ligand
 OpenBabel11021811503D
libRbt.so/2013.1/901 2013/11/27
 10 11  0  0  0  0  0  0  0  0999 V2000
   19.0397   -4.7150    2.4371 N   0  0  0  0  0  0  0  0  0  0  0  0
   18.0193   -5.3131    3.0231 C   0  0  0  0  0  0  0  0  0  0  0  0
   16.9700   -4.5374    3.5273 N   0  0  0  0  0  0  0  0  0  0  0  0
   17.0178   -3.2019    3.4250 C   0  0  0  0  0  0  0  0  0  0  0  0
   18.0523   -2.6043    2.8384 C   0  0  0  0  0  0  0  0  0  0  0  0
   19.0544   -3.3199    2.3335 C   0  0  0  0  0  0  0  0  0  0  0  0
   19.9960   -2.7674    1.7670 O   0  0  0  0  0  0  0  0  0  0  0  0
   17.8752   -1.2902    2.9439 N   0  0  0  0  0  0  0  0  0  0  0  0
   16.7330   -1.0738    3.5885 C   0  0  0  0  0  0  0  0  0  0  0  0
   16.2001   -2.2574    3.8783 N   0  0  0  0  0  0  0  0  0  0  0  0
  1  2  1  0  0  0  0
  1  6  1  0  0  0  0
  2  3  2  0  0  0  0
  3  4  1  0  0  0  0
  4  5  2  0  0  0  0
  4 10  1  0  0  0  0
  5  6  1  0  0  0  0
  5  8  1  0  0  0  0
  6  7  2  0  0  0  0
  8  9  1  0  0  0  0
  9 10  2  0  0  0  0
M  END
>  <CHROM.1>
17.93658342,-3.10330820,2.95301988,0.75335535,-0.50824403,3.10341097

>  <Name>
ligand

>  <RI>
0

>  <Rbt.Current_Directory>
/home/itssahil/PROJECTS/Mol_Feturizer/New_Systems/rnas/4NYD

>  <Rbt.Executable>
rbdock ($Id: //depot/dev/client3/rdock/2013.1/src/exe/rbdock.cxx#4 $)

>  <Rbt.Library>
libRbt.so (2013.1, Build901 2013/11/27)

>  <Rbt.Parameter_File>
/export/apps/rDock/src/rDock_2013.1_src/data/scripts/dock_solv.prm

>  <Rbt.Receptor>
prm/blind_docking_60.prm

>  <SCORE>
-23.655

>  <SCORE.INTER>
-23.655

>  <SCORE.INTER.CONST>
1

>  <SCORE.INTER.POLAR>
0

>  <SCORE.INTER.ROT>
0

>  <SCORE.INTER.SOLV>
3.30291

>  <SCORE.INTER.VDW>
-20.471

>  <SCORE.INTER.norm>
-2.3655

>  <SCORE.INTRA>
0

>  <SCORE.INTRA.DIHEDRAL>
0

>  <SCORE.INTRA.DIHEDRAL.0>
0

>  <SCORE.INTRA.POLAR>
0

>  <SCORE.INTRA.POLAR.0>
0

>  <SCORE.INTRA.REPUL>
0

>  <SCORE.INTRA.REPUL.0>
0

>  <SCORE.INTRA.SOLV>
0

>  <SCORE.INTRA.SOLV.lig_0>
-4.1818

>  <SCORE.INTRA.VDW>
0

>  <SCORE.INTRA.VDW.0>
0

>  <SCORE.INTRA.norm>
0

>  <SCORE.RESTR>
0

>  <SCORE.RESTR.CAVITY>
0

>  <SCORE.RESTR.norm>
0

>  <SCORE.SYSTEM>
0

>  <SCORE.SYSTEM.CONST>
0

>  <SCORE.SYSTEM.DIHEDRAL>
0

>  <SCORE.SYSTEM.SOLV>
0

>  <SCORE.SYSTEM.norm>
0

>  <SCORE.heavy>
10

>  <SCORE.norm>
-2.3655

>  <RMSD>
1.138

$$$$
ligand
 OpenBabel11021811503D
libRbt.so/2013.1/901 2013/11/27
 10 11  0  0  0  0  0  0  0  0999 V2000
   18.9718   -4.7888    2.5663 N   0  0  0  0  0  0  0  0  0  0  0  0
   17.8962   -5.2908    3.1436 C   0  0  0  0  0  0  0  0  0  0  0  0
   16.8792   -4.4267    3.5631 N   0  0  0  0  0  0  0  0  0  0  0  0
   17.0128   -3.1044    3.3900 C   0  0  0  0  0  0  0  0  0  0  0  0
   18.1024   -2.6037    2.8128 C   0  0  0  0  0  0  0  0  0  0  0  0
   19.0761   -3.4051    2.3873 C   0  0  0  0  0  0  0  0  0  0  0  0
   20.0696   -2.9428    1.8290 O   0  0  0  0  0  0  0  0  0  0  0  0
   18.0030   -1.2775    2.8393 N   0  0  0  0  0  0  0  0  0  0  0  0
   16.8538   -0.9572    3.4258 C   0  0  0  0  0  0  0  0  0  0  0  0
   16.2390   -2.0887    3.7587 N   0  0  0  0  0  0  0  0  0  0  0  0
  1  2  1  0  0  0  0
  1  6  1  0  0  0  0
  2  3  2  0  0  0  0
  3  4  1  0  0  0  0
  4  5  2  0  0  0  0
  4 10  1  0  0  0  0
  5  6  1  0  0  0  0
  5  8  1  0  0  0  0
  6  7  2  0  0  0  0
  8  9  1  0  0  0  0
  9 10  2  0  0  0  0
M  END
>  <CHROM.1>
17.95220495,-3.08760147,2.94979452,0.82408886,-0.47367121,3.08094604

>  <Name>
ligand

>  <RI>
0

>  <Rbt.Current_Directory>
/home/itssahil/PROJECTS/Mol_Feturizer/New_Systems/rnas/4NYD

>  <Rbt.Executable>
rbdock ($Id: //depot/dev/client3/rdock/2013.1/src/exe/rbdock.cxx#4 $)

>  <Rbt.Library>
libRbt.so (2013.1, Build901 2013/11/27)

>  <Rbt.Parameter_File>
/export/apps/rDock/src/rDock_2013.1_src/data/scripts/dock_solv.prm

>  <Rbt.Receptor>
prm/blind_docking_40.prm

>  <SCORE>
-23.7145

>  <SCORE.INTER>
-23.7145

>  <SCORE.INTER.CONST>
1

>  <SCORE.INTER.POLAR>
0

>  <SCORE.INTER.ROT>
0

>  <SCORE.INTER.SOLV>
3.26002

>  <SCORE.INTER.VDW>
-20.4963

>  <SCORE.INTER.norm>
-2.37145

>  <SCORE.INTRA>
0

>  <SCORE.INTRA.DIHEDRAL>
0

>  <SCORE.INTRA.DIHEDRAL.0>
0

>  <SCORE.INTRA.POLAR>
0

>  <SCORE.INTRA.POLAR.0>
0

>  <SCORE.INTRA.REPUL>
0

>  <SCORE.INTRA.REPUL.0>
0

>  <SCORE.INTRA.SOLV>
0

>  <SCORE.INTRA.SOLV.lig_0>
-4.1818

>  <SCORE.INTRA.VDW>
0

>  <SCORE.INTRA.VDW.0>
0

>  <SCORE.INTRA.norm>
0

>  <SCORE.RESTR>
0

>  <SCORE.RESTR.CAVITY>
0

>  <SCORE.RESTR.norm>
0

>  <SCORE.SYSTEM>
0

>  <SCORE.SYSTEM.CONST>
0

>  <SCORE.SYSTEM.DIHEDRAL>
0

>  <SCORE.SYSTEM.SOLV>
0

>  <SCORE.SYSTEM.norm>
0

>  <SCORE.heavy>
10

>  <SCORE.norm>
-2.37145

>  <RMSD>
1.165

$$$$
ligand
 OpenBabel11021811503D
libRbt.so/2013.1/901 2013/11/27
 10 11  0  0  0  0  0  0  0  0999 V2000
   18.9563   -4.8251    2.5475 N   0  0  0  0  0  0  0  0  0  0  0  0
   17.8814   -5.3171    3.1345 C   0  0  0  0  0  0  0  0  0  0  0  0
   16.8764   -4.4435    3.5632 N   0  0  0  0  0  0  0  0  0  0  0  0
   17.0206   -3.1226    3.3889 C   0  0  0  0  0  0  0  0  0  0  0  0
   18.1096   -2.6320    2.8018 C   0  0  0  0  0  0  0  0  0  0  0  0
   19.0719   -3.4424    2.3676 C   0  0  0  0  0  0  0  0  0  0  0  0
   20.0646   -2.9893    1.8002 O   0  0  0  0  0  0  0  0  0  0  0  0
   18.0228   -1.3049    2.8292 N   0  0  0  0  0  0  0  0  0  0  0  0
   16.8820   -0.9740    3.4260 C   0  0  0  0  0  0  0  0  0  0  0  0
   16.2598   -2.0997    3.7645 N   0  0  0  0  0  0  0  0  0  0  0  0
  1  2  1  0  0  0  0
  1  6  1  0  0  0  0
  2  3  2  0  0  0  0
  3  4  1  0  0  0  0
  4  5  2  0  0  0  0
  4 10  1  0  0  0  0
  5  6  1  0  0  0  0
  5  8  1  0  0  0  0
  6  7  2  0  0  0  0
  8  9  1  0  0  0  0
  9 10  2  0  0  0  0
M  END
>  <CHROM.1>
17.95614649,-3.11448723,2.94017035,0.83396691,-0.48326104,3.08549899

>  <Name>
ligand

>  <RI>
0

>  <Rbt.Current_Directory>
/home/itssahil/PROJECTS/Mol_Feturizer/New_Systems/rnas/4NYD

>  <Rbt.Executable>
rbdock ($Id: //depot/dev/client3/rdock/2013.1/src/exe/rbdock.cxx#4 $)

>  <Rbt.Library>
libRbt.so (2013.1, Build901 2013/11/27)

>  <Rbt.Parameter_File>
/export/apps/rDock/src/rDock_2013.1_src/data/scripts/dock_solv.prm

>  <Rbt.Receptor>
prm/blind_docking_40.prm

>  <SCORE>
-23.6638

>  <SCORE.INTER>
-23.6638

>  <SCORE.INTER.CONST>
1

>  <SCORE.INTER.POLAR>
0

>  <SCORE.INTER.ROT>
0

>  <SCORE.INTER.SOLV>
3.25613

>  <SCORE.INTER.VDW>
-20.4613

>  <SCORE.INTER.norm>
-2.36638

>  <SCORE.INTRA>
0

>  <SCORE.INTRA.DIHEDRAL>
0

>  <SCORE.INTRA.DIHEDRAL.0>
0

>  <SCORE.INTRA.POLAR>
0

>  <SCORE.INTRA.POLAR.0>
0

>  <SCORE.INTRA.REPUL>
0

>  <SCORE.INTRA.REPUL.0>
0

>  <SCORE.INTRA.SOLV>
0

>  <SCORE.INTRA.SOLV.lig_0>
-4.1818

>  <SCORE.INTRA.VDW>
0

>  <SCORE.INTRA.VDW.0>
0

>  <SCORE.INTRA.norm>
0

>  <SCORE.RESTR>
0

>  <SCORE.RESTR.CAVITY>
0

>  <SCORE.RESTR.norm>
0

>  <SCORE.SYSTEM>
0

>  <SCORE.SYSTEM.CONST>
0

>  <SCORE.SYSTEM.DIHEDRAL>
0

>  <SCORE.SYSTEM.SOLV>
0

>  <SCORE.SYSTEM.norm>
0

>  <SCORE.heavy>
10

>  <SCORE.norm>
-2.36638

>  <RMSD>
1.166

$$$$
ligand
 OpenBabel11021811503D
libRbt.so/2013.1/901 2013/11/27
 10 11  0  0  0  0  0  0  0  0999 V2000
   18.9577   -4.8080    2.5401 N   0  0  0  0  0  0  0  0  0  0  0  0
   17.8869   -5.3058    3.1299 C   0  0  0  0  0  0  0  0  0  0  0  0
   16.8784   -4.4376    3.5615 N   0  0  0  0  0  0  0  0  0  0  0  0
   17.0153   -3.1159    3.3871 C   0  0  0  0  0  0  0  0  0  0  0  0
   18.1001   -2.6194    2.7971 C   0  0  0  0  0  0  0  0  0  0  0  0
   19.0654   -3.4247    2.3602 C   0  0  0  0  0  0  0  0  0  0  0  0
   20.0542   -2.9663    1.7903 O   0  0  0  0  0  0  0  0  0  0  0  0
   18.0063   -1.2928    2.8251 N   0  0  0  0  0  0  0  0  0  0  0  0
   16.8654   -0.9681    3.4251 C   0  0  0  0  0  0  0  0  0  0  0  0
   16.2500   -2.0971    3.7650 N   0  0  0  0  0  0  0  0  0  0  0  0
  1  2  1  0  0  0  0
  1  6  1  0  0  0  0
  2  3  2  0  0  0  0
  3  4  1  0  0  0  0
  4  5  2  0  0  0  0
  4 10  1  0  0  0  0
  5  6  1  0  0  0  0
  5  8  1  0  0  0  0
  6  7  2  0  0  0  0
  8  9  1  0  0  0  0
  9 10  2  0  0  0  0
M  END
>  <CHROM.1>
17.94952585,-3.10275585,2.93586689,0.82784763,-0.48564423,3.08287190

>  <Name>
ligand

>  <RI>
0

>  <Rbt.Current_Directory>
/home/itssahil/PROJECTS/Mol_Feturizer/New_Systems/rnas/4NYD

>  <Rbt.Executable>
rbdock ($Id: //depot/dev/client3/rdock/2013.1/src/exe/rbdock.cxx#4 $)

>  <Rbt.Library>
libRbt.so (2013.1, Build901 2013/11/27)

>  <Rbt.Parameter_File>
/export/apps/rDock/src/rDock_2013.1_src/data/scripts/dock_solv.prm

>  <Rbt.Receptor>
prm/blind_docking_60.prm

>  <SCORE>
-23.6772

>  <SCORE.INTER>
-23.6772

>  <SCORE.INTER.CONST>
1

>  <SCORE.INTER.POLAR>
0

>  <SCORE.INTER.ROT>
0

>  <SCORE.INTER.SOLV>
3.2518

>  <SCORE.INTER.VDW>
-20.4687

>  <SCORE.INTER.norm>
-2.36772

>  <SCORE.INTRA>
0

>  <SCORE.INTRA.DIHEDRAL>
0

>  <SCORE.INTRA.DIHEDRAL.0>
0

>  <SCORE.INTRA.POLAR>
0

>  <SCORE.INTRA.POLAR.0>
0

>  <SCORE.INTRA.REPUL>
0

>  <SCORE.INTRA.REPUL.0>
0

>  <SCORE.INTRA.SOLV>
0

>  <SCORE.INTRA.SOLV.lig_0>
-4.1818

>  <SCORE.INTRA.VDW>
0

>  <SCORE.INTRA.VDW.0>
0

>  <SCORE.INTRA.norm>
0

>  <SCORE.RESTR>
0

>  <SCORE.RESTR.CAVITY>
0

>  <SCORE.RESTR.norm>
0

>  <SCORE.SYSTEM>
0

>  <SCORE.SYSTEM.CONST>
0

>  <SCORE.SYSTEM.DIHEDRAL>
0

>  <SCORE.SYSTEM.SOLV>
0

>  <SCORE.SYSTEM.norm>
0

>  <SCORE.heavy>
10

>  <SCORE.norm>
-2.36772

>  <RMSD>
1.166

$$$$
ligand
 OpenBabel11021811503D
libRbt.so/2013.1/901 2013/11/27
 10 11  0  0  0  0  0  0  0  0999 V2000
   18.9705   -4.7814    2.5444 N   0  0  0  0  0  0  0  0  0  0  0  0
   17.8999   -5.2951    3.1209 C   0  0  0  0  0  0  0  0  0  0  0  0
   16.8812   -4.4406    3.5557 N   0  0  0  0  0  0  0  0  0  0  0  0
   17.0081   -3.1158    3.3979 C   0  0  0  0  0  0  0  0  0  0  0  0
   18.0927   -2.6033    2.8214 C   0  0  0  0  0  0  0  0  0  0  0  0
   19.0678   -3.3953    2.3816 C   0  0  0  0  0  0  0  0  0  0  0  0
   20.0565   -2.9218    1.8240 O   0  0  0  0  0  0  0  0  0  0  0  0
   17.9876   -1.2780    2.8644 N   0  0  0  0  0  0  0  0  0  0  0  0
   16.8399   -0.9699    3.4603 C   0  0  0  0  0  0  0  0  0  0  0  0
   16.2318   -2.1080    3.7825 N   0  0  0  0  0  0  0  0  0  0  0  0
  1  2  1  0  0  0  0
  1  6  1  0  0  0  0
  2  3  2  0  0  0  0
  3  4  1  0  0  0  0
  4  5  2  0  0  0  0
  4 10  1  0  0  0  0
  5  6  1  0  0  0  0
  5  8  1  0  0  0  0
  6  7  2  0  0  0  0
  8  9  1  0  0  0  0
  9 10  2  0  0  0  0
M  END
>  <CHROM.1>
17.94529118,-3.08950318,2.95331051,0.81881884,-0.47831354,3.09055442

>  <Name>
ligand

>  <RI>
0

>  <Rbt.Current_Directory>
/home/itssahil/PROJECTS/Mol_Feturizer/New_Systems/rnas/4NYD

>  <Rbt.Executable>
rbdock ($Id: //depot/dev/client3/rdock/2013.1/src/exe/rbdock.cxx#4 $)

>  <Rbt.Library>
libRbt.so (2013.1, Build901 2013/11/27)

>  <Rbt.Parameter_File>
/export/apps/rDock/src/rDock_2013.1_src/data/scripts/dock_solv.prm

>  <Rbt.Receptor>
prm/pocket_docking_5.prm

>  <SCORE>
-23.6805

>  <SCORE.INTER>
-23.6805

>  <SCORE.INTER.CONST>
1

>  <SCORE.INTER.POLAR>
0

>  <SCORE.INTER.ROT>
0

>  <SCORE.INTER.SOLV>
3.27688

>  <SCORE.INTER.VDW>
-20.4793

>  <SCORE.INTER.norm>
-2.36805

>  <SCORE.INTRA>
0

>  <SCORE.INTRA.DIHEDRAL>
0

>  <SCORE.INTRA.DIHEDRAL.0>
0

>  <SCORE.INTRA.POLAR>
0

>  <SCORE.INTRA.POLAR.0>
0

>  <SCORE.INTRA.REPUL>
0

>  <SCORE.INTRA.REPUL.0>
0

>  <SCORE.INTRA.SOLV>
0

>  <SCORE.INTRA.SOLV.lig_0>
-4.1818

>  <SCORE.INTRA.VDW>
0

>  <SCORE.INTRA.VDW.0>
0

>  <SCORE.INTRA.norm>
0

>  <SCORE.RESTR>
0

>  <SCORE.RESTR.CAVITY>
0

>  <SCORE.RESTR.norm>
0

>  <SCORE.SYSTEM>
0

>  <SCORE.SYSTEM.CONST>
0

>  <SCORE.SYSTEM.DIHEDRAL>
0

>  <SCORE.SYSTEM.SOLV>
0

>  <SCORE.SYSTEM.norm>
0

>  <SCORE.heavy>
10

>  <SCORE.norm>
-2.36805

>  <RMSD>
1.166

$$$$
ligand
 OpenBabel11021811503D
libRbt.so/2013.1/901 2013/11/27
 10 11  0  0  0  0  0  0  0  0999 V2000
   18.9521   -4.8079    2.5587 N   0  0  0  0  0  0  0  0  0  0  0  0
   17.8630   -5.2970    3.1215 C   0  0  0  0  0  0  0  0  0  0  0  0
   16.8549   -4.4200    3.5357 N   0  0  0  0  0  0  0  0  0  0  0  0
   17.0103   -3.0989    3.3723 C   0  0  0  0  0  0  0  0  0  0  0  0
   18.1134   -2.6113    2.8096 C   0  0  0  0  0  0  0  0  0  0  0  0
   19.0793   -3.4249    2.3895 C   0  0  0  0  0  0  0  0  0  0  0  0
   20.0856   -2.9744    1.8445 O   0  0  0  0  0  0  0  0  0  0  0  0
   18.0338   -1.2840    2.8434 N   0  0  0  0  0  0  0  0  0  0  0  0
   16.8835   -0.9498    3.4197 C   0  0  0  0  0  0  0  0  0  0  0  0
   16.2481   -2.0738    3.7391 N   0  0  0  0  0  0  0  0  0  0  0  0
  1  2  1  0  0  0  0
  1  6  1  0  0  0  0
  2  3  2  0  0  0  0
  3  4  1  0  0  0  0
  4  5  2  0  0  0  0
  4 10  1  0  0  0  0
  5  6  1  0  0  0  0
  5  8  1  0  0  0  0
  6  7  2  0  0  0  0
  8  9  1  0  0  0  0
  9 10  2  0  0  0  0
M  END
>  <CHROM.1>
17.95444172,-3.09375744,2.94205218,0.84172888,-0.46394220,3.09505943

>  <Name>
ligand

>  <RI>
0

>  <Rbt.Current_Directory>
/home/itssahil/PROJECTS/Mol_Feturizer/New_Systems/rnas/4NYD

>  <Rbt.Executable>
rbdock ($Id: //depot/dev/client3/rdock/2013.1/src/exe/rbdock.cxx#4 $)

>  <Rbt.Library>
libRbt.so (2013.1, Build901 2013/11/27)

>  <Rbt.Parameter_File>
/export/apps/rDock/src/rDock_2013.1_src/data/scripts/dock_solv.prm

>  <Rbt.Receptor>
prm/pocket_docking_7.prm

>  <SCORE>
-23.7075

>  <SCORE.INTER>
-23.7075

>  <SCORE.INTER.CONST>
1

>  <SCORE.INTER.POLAR>
0

>  <SCORE.INTER.ROT>
0

>  <SCORE.INTER.SOLV>
3.25799

>  <SCORE.INTER.VDW>
-20.491

>  <SCORE.INTER.norm>
-2.37075

>  <SCORE.INTRA>
0

>  <SCORE.INTRA.DIHEDRAL>
0

>  <SCORE.INTRA.DIHEDRAL.0>
0

>  <SCORE.INTRA.POLAR>
0

>  <SCORE.INTRA.POLAR.0>
0

>  <SCORE.INTRA.REPUL>
0

>  <SCORE.INTRA.REPUL.0>
0

>  <SCORE.INTRA.SOLV>
0

>  <SCORE.INTRA.SOLV.lig_0>
-4.1818

>  <SCORE.INTRA.VDW>
0

>  <SCORE.INTRA.VDW.0>
0

>  <SCORE.INTRA.norm>
0

>  <SCORE.RESTR>
0

>  <SCORE.RESTR.CAVITY>
0

>  <SCORE.RESTR.norm>
0

>  <SCORE.SYSTEM>
0

>  <SCORE.SYSTEM.CONST>
0

>  <SCORE.SYSTEM.DIHEDRAL>
0

>  <SCORE.SYSTEM.SOLV>
0

>  <SCORE.SYSTEM.norm>
0

>  <SCORE.heavy>
10

>  <SCORE.norm>
-2.37075

>  <RMSD>
1.166

$$$$
ligand
 OpenBabel11021811503D
libRbt.so/2013.1/901 2013/11/27
 10 11  0  0  0  0  0  0  0  0999 V2000
   18.9832   -4.7923    2.4788 N   0  0  0  0  0  0  0  0  0  0  0  0
   17.9473   -5.3501    3.0772 C   0  0  0  0  0  0  0  0  0  0  0  0
   16.9225   -4.5355    3.5702 N   0  0  0  0  0  0  0  0  0  0  0  0
   17.0091   -3.2040    3.4450 C   0  0  0  0  0  0  0  0  0  0  0  0
   18.0590   -2.6470    2.8461 C   0  0  0  0  0  0  0  0  0  0  0  0
   19.0385   -3.4001    2.3514 C   0  0  0  0  0  0  0  0  0  0  0  0
   19.9943   -2.8852    1.7736 O   0  0  0  0  0  0  0  0  0  0  0  0
   17.9208   -1.3267    2.9295 N   0  0  0  0  0  0  0  0  0  0  0  0
   16.7870   -1.0660    3.5727 C   0  0  0  0  0  0  0  0  0  0  0  0
   16.2205   -2.2284    3.8839 N   0  0  0  0  0  0  0  0  0  0  0  0
  1  2  1  0  0  0  0
  1  6  1  0  0  0  0
  2  3  2  0  0  0  0
  3  4  1  0  0  0  0
  4  5  2  0  0  0  0
  4 10  1  0  0  0  0
  5  6  1  0  0  0  0
  5  8  1  0  0  0  0
  6  7  2  0  0  0  0
  8  9  1  0  0  0  0
  9 10  2  0  0  0  0
M  END
>  <CHROM.1>
17.92907216,-3.14039747,2.96947574,0.78677713,-0.51174533,3.10265185

>  <Name>
ligand

>  <RI>
0

>  <Rbt.Current_Directory>
/home/itssahil/PROJECTS/Mol_Feturizer/New_Systems/rnas/4NYD

>  <Rbt.Executable>
rbdock ($Id: //depot/dev/client3/rdock/2013.1/src/exe/rbdock.cxx#4 $)

>  <Rbt.Library>
libRbt.so (2013.1, Build901 2013/11/27)

>  <Rbt.Parameter_File>
/export/apps/rDock/src/rDock_2013.1_src/data/scripts/dock_solv.prm

>  <Rbt.Receptor>
prm/pocket_docking_3.prm

>  <SCORE>
-23.7301

>  <SCORE.INTER>
-23.7301

>  <SCORE.INTER.CONST>
1

>  <SCORE.INTER.POLAR>
0

>  <SCORE.INTER.ROT>
0

>  <SCORE.INTER.SOLV>
3.32685

>  <SCORE.INTER.VDW>
-20.529

>  <SCORE.INTER.norm>
-2.37301

>  <SCORE.INTRA>
0

>  <SCORE.INTRA.DIHEDRAL>
0

>  <SCORE.INTRA.DIHEDRAL.0>
0

>  <SCORE.INTRA.POLAR>
0

>  <SCORE.INTRA.POLAR.0>
0

>  <SCORE.INTRA.REPUL>
0

>  <SCORE.INTRA.REPUL.0>
0

>  <SCORE.INTRA.SOLV>
0

>  <SCORE.INTRA.SOLV.lig_0>
-4.1818

>  <SCORE.INTRA.VDW>
0

>  <SCORE.INTRA.VDW.0>
0

>  <SCORE.INTRA.norm>
0

>  <SCORE.RESTR>
0

>  <SCORE.RESTR.CAVITY>
0

>  <SCORE.RESTR.norm>
0

>  <SCORE.SYSTEM>
0

>  <SCORE.SYSTEM.CONST>
0

>  <SCORE.SYSTEM.DIHEDRAL>
0

>  <SCORE.SYSTEM.SOLV>
0

>  <SCORE.SYSTEM.norm>
0

>  <SCORE.heavy>
10

>  <SCORE.norm>
-2.37301

>  <RMSD>
1.171

$$$$
ligand
 OpenBabel11021811503D
libRbt.so/2013.1/901 2013/11/27
 10 11  0  0  0  0  0  0  0  0999 V2000
   18.9510   -4.7987    2.5700 N   0  0  0  0  0  0  0  0  0  0  0  0
   17.8693   -5.2852    3.1491 C   0  0  0  0  0  0  0  0  0  0  0  0
   16.8639   -4.4069    3.5669 N   0  0  0  0  0  0  0  0  0  0  0  0
   17.0145   -3.0869    3.3904 C   0  0  0  0  0  0  0  0  0  0  0  0
   18.1103   -2.6018    2.8113 C   0  0  0  0  0  0  0  0  0  0  0  0
   19.0732   -3.4170    2.3875 C   0  0  0  0  0  0  0  0  0  0  0  0
   20.0724   -2.9690    1.8274 O   0  0  0  0  0  0  0  0  0  0  0  0
   18.0280   -1.2744    2.8346 N   0  0  0  0  0  0  0  0  0  0  0  0
   16.8834   -0.9378    3.4208 C   0  0  0  0  0  0  0  0  0  0  0  0
   16.2542   -2.0603    3.7569 N   0  0  0  0  0  0  0  0  0  0  0  0
  1  2  1  0  0  0  0
  1  6  1  0  0  0  0
  2  3  2  0  0  0  0
  3  4  1  0  0  0  0
  4  5  2  0  0  0  0
  4 10  1  0  0  0  0
  5  6  1  0  0  0  0
  5  8  1  0  0  0  0
  6  7  2  0  0  0  0
  8  9  1  0  0  0  0
  9 10  2  0  0  0  0
M  END
>  <CHROM.1>
17.95382740,-3.08343195,2.94966901,0.83863062,-0.47494875,3.08504408

>  <Name>
ligand

>  <RI>
0

>  <Rbt.Current_Directory>
/home/itssahil/PROJECTS/Mol_Feturizer/New_Systems/rnas/4NYD

>  <Rbt.Executable>
rbdock ($Id: //depot/dev/client3/rdock/2013.1/src/exe/rbdock.cxx#4 $)

>  <Rbt.Library>
libRbt.so (2013.1, Build901 2013/11/27)

>  <Rbt.Parameter_File>
/export/apps/rDock/src/rDock_2013.1_src/data/scripts/dock_solv.prm

>  <Rbt.Receptor>
prm/blind_docking_60.prm

>  <SCORE>
-23.7133

>  <SCORE.INTER>
-23.7133

>  <SCORE.INTER.CONST>
1

>  <SCORE.INTER.POLAR>
0

>  <SCORE.INTER.ROT>
0

>  <SCORE.INTER.SOLV>
3.26708

>  <SCORE.INTER.VDW>
-20.4979

>  <SCORE.INTER.norm>
-2.37133

>  <SCORE.INTRA>
0

>  <SCORE.INTRA.DIHEDRAL>
0

>  <SCORE.INTRA.DIHEDRAL.0>
0

>  <SCORE.INTRA.POLAR>
0

>  <SCORE.INTRA.POLAR.0>
0

>  <SCORE.INTRA.REPUL>
0

>  <SCORE.INTRA.REPUL.0>
0

>  <SCORE.INTRA.SOLV>
0

>  <SCORE.INTRA.SOLV.lig_0>
-4.1818

>  <SCORE.INTRA.VDW>
0

>  <SCORE.INTRA.VDW.0>
0

>  <SCORE.INTRA.norm>
0

>  <SCORE.RESTR>
0

>  <SCORE.RESTR.CAVITY>
0

>  <SCORE.RESTR.norm>
0

>  <SCORE.SYSTEM>
0

>  <SCORE.SYSTEM.CONST>
0

>  <SCORE.SYSTEM.DIHEDRAL>
0

>  <SCORE.SYSTEM.SOLV>
0

>  <SCORE.SYSTEM.norm>
0

>  <SCORE.heavy>
10

>  <SCORE.norm>
-2.37133

>  <RMSD>
1.172

$$$$
ligand
 OpenBabel11021811503D
libRbt.so/2013.1/901 2013/11/27
 10 11  0  0  0  0  0  0  0  0999 V2000
   18.9805   -4.7641    2.4809 N   0  0  0  0  0  0  0  0  0  0  0  0
   17.9269   -5.3278    3.0417 C   0  0  0  0  0  0  0  0  0  0  0  0
   16.8939   -4.5173    3.5244 N   0  0  0  0  0  0  0  0  0  0  0  0
   16.9903   -3.1840    3.4274 C   0  0  0  0  0  0  0  0  0  0  0  0
   18.0579   -2.6213    2.8663 C   0  0  0  0  0  0  0  0  0  0  0  0
   19.0459   -3.3701    2.3820 C   0  0  0  0  0  0  0  0  0  0  0  0
   20.0187   -2.8494    1.8388 O   0  0  0  0  0  0  0  0  0  0  0  0
   17.9242   -1.3021    2.9718 N   0  0  0  0  0  0  0  0  0  0  0  0
   16.7757   -1.0477    3.5910 C   0  0  0  0  0  0  0  0  0  0  0  0
   16.1957   -2.2128    3.8650 N   0  0  0  0  0  0  0  0  0  0  0  0
  1  2  1  0  0  0  0
  1  6  1  0  0  0  0
  2  3  2  0  0  0  0
  3  4  1  0  0  0  0
  4  5  2  0  0  0  0
  4 10  1  0  0  0  0
  5  6  1  0  0  0  0
  5  8  1  0  0  0  0
  6  7  2  0  0  0  0
  8  9  1  0  0  0  0
  9 10  2  0  0  0  0
M  END
>  <CHROM.1>
17.92239118,-3.11627660,2.97668632,0.79353437,-0.48646324,3.12530507

>  <Name>
ligand

>  <RI>
0

>  <Rbt.Current_Directory>
/home/itssahil/PROJECTS/Mol_Feturizer/New_Systems/rnas/4NYD

>  <Rbt.Executable>
rbdock ($Id: //depot/dev/client3/rdock/2013.1/src/exe/rbdock.cxx#4 $)

>  <Rbt.Library>
libRbt.so (2013.1, Build901 2013/11/27)

>  <Rbt.Parameter_File>
/export/apps/rDock/src/rDock_2013.1_src/data/scripts/dock_solv.prm

>  <Rbt.Receptor>
prm/blind_docking_60.prm

>  <SCORE>
-23.7479

>  <SCORE.INTER>
-23.7479

>  <SCORE.INTER.CONST>
1

>  <SCORE.INTER.POLAR>
0

>  <SCORE.INTER.ROT>
0

>  <SCORE.INTER.SOLV>
3.33778

>  <SCORE.INTER.VDW>
-20.5445

>  <SCORE.INTER.norm>
-2.37479

>  <SCORE.INTRA>
0

>  <SCORE.INTRA.DIHEDRAL>
0

>  <SCORE.INTRA.DIHEDRAL.0>
0

>  <SCORE.INTRA.POLAR>
0

>  <SCORE.INTRA.POLAR.0>
0

>  <SCORE.INTRA.REPUL>
0

>  <SCORE.INTRA.REPUL.0>
0

>  <SCORE.INTRA.SOLV>
0

>  <SCORE.INTRA.SOLV.lig_0>
-4.1818

>  <SCORE.INTRA.VDW>
0

>  <SCORE.INTRA.VDW.0>
0

>  <SCORE.INTRA.norm>
0

>  <SCORE.RESTR>
0

>  <SCORE.RESTR.CAVITY>
0

>  <SCORE.RESTR.norm>
0

>  <SCORE.SYSTEM>
0

>  <SCORE.SYSTEM.CONST>
0

>  <SCORE.SYSTEM.DIHEDRAL>
0

>  <SCORE.SYSTEM.SOLV>
0

>  <SCORE.SYSTEM.norm>
0

>  <SCORE.heavy>
10

>  <SCORE.norm>
-2.37479

>  <RMSD>
1.172

$$$$
ligand
 OpenBabel11021811503D
libRbt.so/2013.1/901 2013/11/27
 10 11  0  0  0  0  0  0  0  0999 V2000
   18.9757   -4.7567    2.5455 N   0  0  0  0  0  0  0  0  0  0  0  0
   17.9092   -5.2845    3.1167 C   0  0  0  0  0  0  0  0  0  0  0  0
   16.8820   -4.4427    3.5562 N   0  0  0  0  0  0  0  0  0  0  0  0
   16.9967   -3.1156    3.4079 C   0  0  0  0  0  0  0  0  0  0  0  0
   18.0772   -2.5889    2.8366 C   0  0  0  0  0  0  0  0  0  0  0  0
   19.0603   -3.3685    2.3926 C   0  0  0  0  0  0  0  0  0  0  0  0
   20.0453   -2.8819    1.8398 O   0  0  0  0  0  0  0  0  0  0  0  0
   17.9596   -1.2650    2.8889 N   0  0  0  0  0  0  0  0  0  0  0  0
   16.8083   -0.9719    3.4853 C   0  0  0  0  0  0  0  0  0  0  0  0
   16.2104   -2.1179    3.7986 N   0  0  0  0  0  0  0  0  0  0  0  0
  1  2  1  0  0  0  0
  1  6  1  0  0  0  0
  2  3  2  0  0  0  0
  3  4  1  0  0  0  0
  4  5  2  0  0  0  0
  4 10  1  0  0  0  0
  5  6  1  0  0  0  0
  5  8  1  0  0  0  0
  6  7  2  0  0  0  0
  8  9  1  0  0  0  0
  9 10  2  0  0  0  0
M  END
>  <CHROM.1>
17.93418684,-3.07739691,2.96490064,0.80835184,-0.47645942,3.09284948

>  <Name>
ligand

>  <RI>
0

>  <Rbt.Current_Directory>
/home/itssahil/PROJECTS/Mol_Feturizer/New_Systems/rnas/4NYD

>  <Rbt.Executable>
rbdock ($Id: //depot/dev/client3/rdock/2013.1/src/exe/rbdock.cxx#4 $)

>  <Rbt.Library>
libRbt.so (2013.1, Build901 2013/11/27)

>  <Rbt.Parameter_File>
/export/apps/rDock/src/rDock_2013.1_src/data/scripts/dock_solv.prm

>  <Rbt.Receptor>
prm/pocket_docking_4.prm

>  <SCORE>
-23.72

>  <SCORE.INTER>
-23.72

>  <SCORE.INTER.CONST>
1

>  <SCORE.INTER.POLAR>
0

>  <SCORE.INTER.ROT>
0

>  <SCORE.INTER.SOLV>
3.29248

>  <SCORE.INTER.VDW>
-20.5108

>  <SCORE.INTER.norm>
-2.372

>  <SCORE.INTRA>
0

>  <SCORE.INTRA.DIHEDRAL>
0

>  <SCORE.INTRA.DIHEDRAL.0>
0

>  <SCORE.INTRA.POLAR>
0

>  <SCORE.INTRA.POLAR.0>
0

>  <SCORE.INTRA.REPUL>
0

>  <SCORE.INTRA.REPUL.0>
0

>  <SCORE.INTRA.SOLV>
0

>  <SCORE.INTRA.SOLV.lig_0>
-4.1818

>  <SCORE.INTRA.VDW>
0

>  <SCORE.INTRA.VDW.0>
0

>  <SCORE.INTRA.norm>
0

>  <SCORE.RESTR>
0

>  <SCORE.RESTR.CAVITY>
0

>  <SCORE.RESTR.norm>
0

>  <SCORE.SYSTEM>
0

>  <SCORE.SYSTEM.CONST>
0

>  <SCORE.SYSTEM.DIHEDRAL>
0

>  <SCORE.SYSTEM.SOLV>
0

>  <SCORE.SYSTEM.norm>
0

>  <SCORE.heavy>
10

>  <SCORE.norm>
-2.372

>  <RMSD>
1.172

$$$$
ligand
 OpenBabel11021811503D
libRbt.so/2013.1/901 2013/11/27
 10 11  0  0  0  0  0  0  0  0999 V2000
   18.9791   -4.7723    2.4774 N   0  0  0  0  0  0  0  0  0  0  0  0
   17.9365   -5.3342    3.0601 C   0  0  0  0  0  0  0  0  0  0  0  0
   16.9095   -4.5226    3.5535 N   0  0  0  0  0  0  0  0  0  0  0  0
   17.0008   -3.1899    3.4446 C   0  0  0  0  0  0  0  0  0  0  0  0
   18.0575   -2.6289    2.8615 C   0  0  0  0  0  0  0  0  0  0  0  0
   19.0392   -3.3790    2.3667 C   0  0  0  0  0  0  0  0  0  0  0  0
   20.0016   -2.8601    1.8034 O   0  0  0  0  0  0  0  0  0  0  0  0
   17.9220   -1.3092    2.9591 N   0  0  0  0  0  0  0  0  0  0  0  0
   16.7833   -1.0529    3.5952 C   0  0  0  0  0  0  0  0  0  0  0  0
   16.2110   -2.2173    3.8879 N   0  0  0  0  0  0  0  0  0  0  0  0
  1  2  1  0  0  0  0
  1  6  1  0  0  0  0
  2  3  2  0  0  0  0
  3  4  1  0  0  0  0
  4  5  2  0  0  0  0
  4 10  1  0  0  0  0
  5  6  1  0  0  0  0
  5  8  1  0  0  0  0
  6  7  2  0  0  0  0
  8  9  1  0  0  0  0
  9 10  2  0  0  0  0
M  END
>  <CHROM.1>
17.92511230,-3.12334792,2.97797994,0.79022594,-0.50301547,3.11597082

>  <Name>
ligand

>  <RI>
0

>  <Rbt.Current_Directory>
/home/itssahil/PROJECTS/Mol_Feturizer/New_Systems/rnas/4NYD

>  <Rbt.Executable>
rbdock ($Id: //depot/dev/client3/rdock/2013.1/src/exe/rbdock.cxx#4 $)

>  <Rbt.Library>
libRbt.so (2013.1, Build901 2013/11/27)

>  <Rbt.Parameter_File>
/export/apps/rDock/src/rDock_2013.1_src/data/scripts/dock_solv.prm

>  <Rbt.Receptor>
prm/blind_docking_100.prm

>  <SCORE>
-23.7525

>  <SCORE.INTER>
-23.7525

>  <SCORE.INTER.CONST>
1

>  <SCORE.INTER.POLAR>
0

>  <SCORE.INTER.ROT>
0

>  <SCORE.INTER.SOLV>
3.3411

>  <SCORE.INTER.VDW>
-20.5487

>  <SCORE.INTER.norm>
-2.37525

>  <SCORE.INTRA>
0

>  <SCORE.INTRA.DIHEDRAL>
0

>  <SCORE.INTRA.DIHEDRAL.0>
0

>  <SCORE.INTRA.POLAR>
0

>  <SCORE.INTRA.POLAR.0>
0

>  <SCORE.INTRA.REPUL>
0

>  <SCORE.INTRA.REPUL.0>
0

>  <SCORE.INTRA.SOLV>
0

>  <SCORE.INTRA.SOLV.lig_0>
-4.1818

>  <SCORE.INTRA.VDW>
0

>  <SCORE.INTRA.VDW.0>
0

>  <SCORE.INTRA.norm>
0

>  <SCORE.RESTR>
0

>  <SCORE.RESTR.CAVITY>
0

>  <SCORE.RESTR.norm>
0

>  <SCORE.SYSTEM>
0

>  <SCORE.SYSTEM.CONST>
0

>  <SCORE.SYSTEM.DIHEDRAL>
0

>  <SCORE.SYSTEM.SOLV>
0

>  <SCORE.SYSTEM.norm>
0

>  <SCORE.heavy>
10

>  <SCORE.norm>
-2.37525

>  <RMSD>
1.173

$$$$
ligand
 OpenBabel11021811503D
libRbt.so/2013.1/901 2013/11/27
 10 11  0  0  0  0  0  0  0  0999 V2000
   18.9688   -4.7626    2.5256 N   0  0  0  0  0  0  0  0  0  0  0  0
   17.9065   -5.2933    3.1020 C   0  0  0  0  0  0  0  0  0  0  0  0
   16.8826   -4.4536    3.5531 N   0  0  0  0  0  0  0  0  0  0  0  0
   16.9963   -3.1259    3.4107 C   0  0  0  0  0  0  0  0  0  0  0  0
   18.0727   -2.5963    2.8342 C   0  0  0  0  0  0  0  0  0  0  0  0
   19.0524   -3.3738    2.3791 C   0  0  0  0  0  0  0  0  0  0  0  0
   20.0333   -2.8844    1.8216 O   0  0  0  0  0  0  0  0  0  0  0  0
   17.9555   -1.2727    2.8939 N   0  0  0  0  0  0  0  0  0  0  0  0
   16.8086   -0.9826    3.5002 C   0  0  0  0  0  0  0  0  0  0  0  0
   16.2129   -2.1301    3.8121 N   0  0  0  0  0  0  0  0  0  0  0  0
  1  2  1  0  0  0  0
  1  6  1  0  0  0  0
  2  3  2  0  0  0  0
  3  4  1  0  0  0  0
  4  5  2  0  0  0  0
  4 10  1  0  0  0  0
  5  6  1  0  0  0  0
  5  8  1  0  0  0  0
  6  7  2  0  0  0  0
  8  9  1  0  0  0  0
  9 10  2  0  0  0  0
M  END
>  <CHROM.1>
17.93051426,-3.08544718,2.96103817,0.80803573,-0.48376089,3.09771683

>  <Name>
ligand

>  <RI>
0

>  <Rbt.Current_Directory>
/home/itssahil/PROJECTS/Mol_Feturizer/New_Systems/rnas/4NYD

>  <Rbt.Executable>
rbdock ($Id: //depot/dev/client3/rdock/2013.1/src/exe/rbdock.cxx#4 $)

>  <Rbt.Library>
libRbt.so (2013.1, Build901 2013/11/27)

>  <Rbt.Parameter_File>
/export/apps/rDock/src/rDock_2013.1_src/data/scripts/dock_solv.prm

>  <Rbt.Receptor>
prm/pocket_docking_7.prm

>  <SCORE>
-23.7173

>  <SCORE.INTER>
-23.7173

>  <SCORE.INTER.CONST>
1

>  <SCORE.INTER.POLAR>
0

>  <SCORE.INTER.ROT>
0

>  <SCORE.INTER.SOLV>
3.29728

>  <SCORE.INTER.VDW>
-20.5106

>  <SCORE.INTER.norm>
-2.37173

>  <SCORE.INTRA>
0

>  <SCORE.INTRA.DIHEDRAL>
0

>  <SCORE.INTRA.DIHEDRAL.0>
0

>  <SCORE.INTRA.POLAR>
0

>  <SCORE.INTRA.POLAR.0>
0

>  <SCORE.INTRA.REPUL>
0

>  <SCORE.INTRA.REPUL.0>
0

>  <SCORE.INTRA.SOLV>
0

>  <SCORE.INTRA.SOLV.lig_0>
-4.1818

>  <SCORE.INTRA.VDW>
0

>  <SCORE.INTRA.VDW.0>
0

>  <SCORE.INTRA.norm>
0

>  <SCORE.RESTR>
0

>  <SCORE.RESTR.CAVITY>
0

>  <SCORE.RESTR.norm>
0

>  <SCORE.SYSTEM>
0

>  <SCORE.SYSTEM.CONST>
0

>  <SCORE.SYSTEM.DIHEDRAL>
0

>  <SCORE.SYSTEM.SOLV>
0

>  <SCORE.SYSTEM.norm>
0

>  <SCORE.heavy>
10

>  <SCORE.norm>
-2.37173

>  <RMSD>
1.173

$$$$
ligand
 OpenBabel11021811503D
libRbt.so/2013.1/901 2013/11/27
 10 11  0  0  0  0  0  0  0  0999 V2000
   18.9773   -4.7545    2.5524 N   0  0  0  0  0  0  0  0  0  0  0  0
   17.9100   -5.2828    3.1218 C   0  0  0  0  0  0  0  0  0  0  0  0
   16.8810   -4.4415    3.5579 N   0  0  0  0  0  0  0  0  0  0  0  0
   16.9946   -3.1145    3.4083 C   0  0  0  0  0  0  0  0  0  0  0  0
   18.0759   -2.5873    2.8388 C   0  0  0  0  0  0  0  0  0  0  0  0
   19.0607   -3.3665    2.3980 C   0  0  0  0  0  0  0  0  0  0  0  0
   20.0465   -2.8795    1.8468 O   0  0  0  0  0  0  0  0  0  0  0  0
   17.9567   -1.2635    2.8892 N   0  0  0  0  0  0  0  0  0  0  0  0
   16.8038   -0.9709    3.4826 C   0  0  0  0  0  0  0  0  0  0  0  0
   16.2064   -2.1171    3.7960 N   0  0  0  0  0  0  0  0  0  0  0  0
  1  2  1  0  0  0  0
  1  6  1  0  0  0  0
  2  3  2  0  0  0  0
  3  4  1  0  0  0  0
  4  5  2  0  0  0  0
  4 10  1  0  0  0  0
  5  6  1  0  0  0  0
  5  8  1  0  0  0  0
  6  7  2  0  0  0  0
  8  9  1  0  0  0  0
  9 10  2  0  0  0  0
M  END
>  <CHROM.1>
17.93303000,-3.07583695,2.96736210,0.80731925,-0.47414144,3.09114417

>  <Name>
ligand

>  <RI>
0

>  <Rbt.Current_Directory>
/home/itssahil/PROJECTS/Mol_Feturizer/New_Systems/rnas/4NYD

>  <Rbt.Executable>
rbdock ($Id: //depot/dev/client3/rdock/2013.1/src/exe/rbdock.cxx#4 $)

>  <Rbt.Library>
libRbt.so (2013.1, Build901 2013/11/27)

>  <Rbt.Parameter_File>
/export/apps/rDock/src/rDock_2013.1_src/data/scripts/dock_solv.prm

>  <Rbt.Receptor>
prm/pocket_docking_8.prm

>  <SCORE>
-23.7182

>  <SCORE.INTER>
-23.7182

>  <SCORE.INTER.CONST>
1

>  <SCORE.INTER.POLAR>
0

>  <SCORE.INTER.ROT>
0

>  <SCORE.INTER.SOLV>
3.29221

>  <SCORE.INTER.VDW>
-20.5095

>  <SCORE.INTER.norm>
-2.37182

>  <SCORE.INTRA>
0

>  <SCORE.INTRA.DIHEDRAL>
0

>  <SCORE.INTRA.DIHEDRAL.0>
0

>  <SCORE.INTRA.POLAR>
0

>  <SCORE.INTRA.POLAR.0>
0

>  <SCORE.INTRA.REPUL>
0

>  <SCORE.INTRA.REPUL.0>
0

>  <SCORE.INTRA.SOLV>
0

>  <SCORE.INTRA.SOLV.lig_0>
-4.1818

>  <SCORE.INTRA.VDW>
0

>  <SCORE.INTRA.VDW.0>
0

>  <SCORE.INTRA.norm>
0

>  <SCORE.RESTR>
0

>  <SCORE.RESTR.CAVITY>
0

>  <SCORE.RESTR.norm>
0

>  <SCORE.SYSTEM>
0

>  <SCORE.SYSTEM.CONST>
0

>  <SCORE.SYSTEM.DIHEDRAL>
0

>  <SCORE.SYSTEM.SOLV>
0

>  <SCORE.SYSTEM.norm>
0

>  <SCORE.heavy>
10

>  <SCORE.norm>
-2.37182

>  <RMSD>
1.173

$$$$
ligand
 OpenBabel11021811503D
libRbt.so/2013.1/901 2013/11/27
 10 11  0  0  0  0  0  0  0  0999 V2000
   18.9760   -4.7887    2.4681 N   0  0  0  0  0  0  0  0  0  0  0  0
   17.9429   -5.3454    3.0723 C   0  0  0  0  0  0  0  0  0  0  0  0
   16.9172   -4.5303    3.5627 N   0  0  0  0  0  0  0  0  0  0  0  0
   17.0002   -3.1994    3.4291 C   0  0  0  0  0  0  0  0  0  0  0  0
   18.0473   -2.6435    2.8243 C   0  0  0  0  0  0  0  0  0  0  0  0
   19.0275   -3.3972    2.3319 C   0  0  0  0  0  0  0  0  0  0  0  0
   19.9807   -2.8835    1.7487 O   0  0  0  0  0  0  0  0  0  0  0  0
   17.9060   -1.3230    2.8999 N   0  0  0  0  0  0  0  0  0  0  0  0
   16.7731   -1.0611    3.5441 C   0  0  0  0  0  0  0  0  0  0  0  0
   16.2102   -2.2230    3.8638 N   0  0  0  0  0  0  0  0  0  0  0  0
  1  2  1  0  0  0  0
  1  6  1  0  0  0  0
  2  3  2  0  0  0  0
  3  4  1  0  0  0  0
  4  5  2  0  0  0  0
  4 10  1  0  0  0  0
  5  6  1  0  0  0  0
  5  8  1  0  0  0  0
  6  7  2  0  0  0  0
  8  9  1  0  0  0  0
  9 10  2  0  0  0  0
M  END
>  <CHROM.1>
17.91888503,-3.13641787,2.95100938,0.78381225,-0.51399568,3.09502237

>  <Name>
ligand

>  <RI>
0

>  <Rbt.Current_Directory>
/home/itssahil/PROJECTS/Mol_Feturizer/New_Systems/rnas/4NYD

>  <Rbt.Executable>
rbdock ($Id: //depot/dev/client3/rdock/2013.1/src/exe/rbdock.cxx#4 $)

>  <Rbt.Library>
libRbt.so (2013.1, Build901 2013/11/27)

>  <Rbt.Parameter_File>
/export/apps/rDock/src/rDock_2013.1_src/data/scripts/dock_solv.prm

>  <Rbt.Receptor>
prm/pocket_docking_3.prm

>  <SCORE>
-23.6803

>  <SCORE.INTER>
-23.6803

>  <SCORE.INTER.CONST>
1

>  <SCORE.INTER.POLAR>
0

>  <SCORE.INTER.ROT>
0

>  <SCORE.INTER.SOLV>
3.30535

>  <SCORE.INTER.VDW>
-20.4887

>  <SCORE.INTER.norm>
-2.36803

>  <SCORE.INTRA>
0

>  <SCORE.INTRA.DIHEDRAL>
0

>  <SCORE.INTRA.DIHEDRAL.0>
0

>  <SCORE.INTRA.POLAR>
0

>  <SCORE.INTRA.POLAR.0>
0

>  <SCORE.INTRA.REPUL>
0

>  <SCORE.INTRA.REPUL.0>
0

>  <SCORE.INTRA.SOLV>
0

>  <SCORE.INTRA.SOLV.lig_0>
-4.1818

>  <SCORE.INTRA.VDW>
0

>  <SCORE.INTRA.VDW.0>
0

>  <SCORE.INTRA.norm>
0

>  <SCORE.RESTR>
0

>  <SCORE.RESTR.CAVITY>
0

>  <SCORE.RESTR.norm>
0

>  <SCORE.SYSTEM>
0

>  <SCORE.SYSTEM.CONST>
0

>  <SCORE.SYSTEM.DIHEDRAL>
0

>  <SCORE.SYSTEM.SOLV>
0

>  <SCORE.SYSTEM.norm>
0

>  <SCORE.heavy>
10

>  <SCORE.norm>
-2.36803

>  <RMSD>
1.174

$$$$
ligand
 OpenBabel11021811503D
libRbt.so/2013.1/901 2013/11/27
 10 11  0  0  0  0  0  0  0  0999 V2000
   18.9719   -4.7589    2.5408 N   0  0  0  0  0  0  0  0  0  0  0  0
   17.9069   -5.2877    3.1142 C   0  0  0  0  0  0  0  0  0  0  0  0
   16.8804   -4.4466    3.5567 N   0  0  0  0  0  0  0  0  0  0  0  0
   16.9942   -3.1194    3.4092 C   0  0  0  0  0  0  0  0  0  0  0  0
   18.0731   -2.5918    2.8358 C   0  0  0  0  0  0  0  0  0  0  0  0
   19.0554   -3.3707    2.3889 C   0  0  0  0  0  0  0  0  0  0  0  0
   20.0389   -2.8832    1.8341 O   0  0  0  0  0  0  0  0  0  0  0  0
   17.9550   -1.2680    2.8894 N   0  0  0  0  0  0  0  0  0  0  0  0
   16.8050   -0.9759    3.4887 C   0  0  0  0  0  0  0  0  0  0  0  0
   16.2083   -2.1224    3.8025 N   0  0  0  0  0  0  0  0  0  0  0  0
  1  2  1  0  0  0  0
  1  6  1  0  0  0  0
  2  3  2  0  0  0  0
  3  4  1  0  0  0  0
  4  5  2  0  0  0  0
  4 10  1  0  0  0  0
  5  6  1  0  0  0  0
  5  8  1  0  0  0  0
  6  7  2  0  0  0  0
  8  9  1  0  0  0  0
  9 10  2  0  0  0  0
M  END
>  <CHROM.1>
17.93057083,-3.08045762,2.96401023,0.80773136,-0.47879283,3.09334579

>  <Name>
ligand

>  <RI>
0

>  <Rbt.Current_Directory>
/home/itssahil/PROJECTS/Mol_Feturizer/New_Systems/rnas/4NYD

>  <Rbt.Executable>
rbdock ($Id: //depot/dev/client3/rdock/2013.1/src/exe/rbdock.cxx#4 $)

>  <Rbt.Library>
libRbt.so (2013.1, Build901 2013/11/27)

>  <Rbt.Parameter_File>
/export/apps/rDock/src/rDock_2013.1_src/data/scripts/dock_solv.prm

>  <Rbt.Receptor>
prm/pocket_docking_5.prm

>  <SCORE>
-23.7184

>  <SCORE.INTER>
-23.7184

>  <SCORE.INTER.CONST>
1

>  <SCORE.INTER.POLAR>
0

>  <SCORE.INTER.ROT>
0

>  <SCORE.INTER.SOLV>
3.29376

>  <SCORE.INTER.VDW>
-20.5102

>  <SCORE.INTER.norm>
-2.37184

>  <SCORE.INTRA>
0

>  <SCORE.INTRA.DIHEDRAL>
0

>  <SCORE.INTRA.DIHEDRAL.0>
0

>  <SCORE.INTRA.POLAR>
0

>  <SCORE.INTRA.POLAR.0>
0

>  <SCORE.INTRA.REPUL>
0

>  <SCORE.INTRA.REPUL.0>
0

>  <SCORE.INTRA.SOLV>
0

>  <SCORE.INTRA.SOLV.lig_0>
-4.1818

>  <SCORE.INTRA.VDW>
0

>  <SCORE.INTRA.VDW.0>
0

>  <SCORE.INTRA.norm>
0

>  <SCORE.RESTR>
0

>  <SCORE.RESTR.CAVITY>
0

>  <SCORE.RESTR.norm>
0

>  <SCORE.SYSTEM>
0

>  <SCORE.SYSTEM.CONST>
0

>  <SCORE.SYSTEM.DIHEDRAL>
0

>  <SCORE.SYSTEM.SOLV>
0

>  <SCORE.SYSTEM.norm>
0

>  <SCORE.heavy>
10

>  <SCORE.norm>
-2.37184

>  <RMSD>
1.174

$$$$
ligand
 OpenBabel11021811503D
libRbt.so/2013.1/901 2013/11/27
 10 11  0  0  0  0  0  0  0  0999 V2000
   18.9814   -4.7718    2.4807 N   0  0  0  0  0  0  0  0  0  0  0  0
   17.9384   -5.3354    3.0612 C   0  0  0  0  0  0  0  0  0  0  0  0
   16.9103   -4.5254    3.5547 N   0  0  0  0  0  0  0  0  0  0  0  0
   17.0006   -3.1925    3.4482 C   0  0  0  0  0  0  0  0  0  0  0  0
   18.0576   -2.6297    2.8673 C   0  0  0  0  0  0  0  0  0  0  0  0
   19.0406   -3.3782    2.3724 C   0  0  0  0  0  0  0  0  0  0  0  0
   20.0032   -2.8576    1.8111 O   0  0  0  0  0  0  0  0  0  0  0  0
   17.9211   -1.3103    2.9669 N   0  0  0  0  0  0  0  0  0  0  0  0
   16.7814   -1.0559    3.6021 C   0  0  0  0  0  0  0  0  0  0  0  0
   16.2096   -2.2212    3.8921 N   0  0  0  0  0  0  0  0  0  0  0  0
  1  2  1  0  0  0  0
  1  6  1  0  0  0  0
  2  3  2  0  0  0  0
  3  4  1  0  0  0  0
  4  5  2  0  0  0  0
  4 10  1  0  0  0  0
  5  6  1  0  0  0  0
  5  8  1  0  0  0  0
  6  7  2  0  0  0  0
  8  9  1  0  0  0  0
  9 10  2  0  0  0  0
M  END
>  <CHROM.1>
17.92550885,-3.12443411,2.98277444,0.78939916,-0.50177594,3.11725448

>  <Name>
ligand

>  <RI>
0

>  <Rbt.Current_Directory>
/home/itssahil/PROJECTS/Mol_Feturizer/New_Systems/rnas/4NYD

>  <Rbt.Executable>
rbdock ($Id: //depot/dev/client3/rdock/2013.1/src/exe/rbdock.cxx#4 $)

>  <Rbt.Library>
libRbt.so (2013.1, Build901 2013/11/27)

>  <Rbt.Parameter_File>
/export/apps/rDock/src/rDock_2013.1_src/data/scripts/dock_solv.prm

>  <Rbt.Receptor>
prm/pocket_docking_6.prm

>  <SCORE>
-23.7494

>  <SCORE.INTER>
-23.7494

>  <SCORE.INTER.CONST>
1

>  <SCORE.INTER.POLAR>
0

>  <SCORE.INTER.ROT>
0

>  <SCORE.INTER.SOLV>
3.34673

>  <SCORE.INTER.VDW>
-20.5485

>  <SCORE.INTER.norm>
-2.37494

>  <SCORE.INTRA>
0

>  <SCORE.INTRA.DIHEDRAL>
0

>  <SCORE.INTRA.DIHEDRAL.0>
0

>  <SCORE.INTRA.POLAR>
0

>  <SCORE.INTRA.POLAR.0>
0

>  <SCORE.INTRA.REPUL>
0

>  <SCORE.INTRA.REPUL.0>
0

>  <SCORE.INTRA.SOLV>
0

>  <SCORE.INTRA.SOLV.lig_0>
-4.1818

>  <SCORE.INTRA.VDW>
0

>  <SCORE.INTRA.VDW.0>
0

>  <SCORE.INTRA.norm>
0

>  <SCORE.RESTR>
0

>  <SCORE.RESTR.CAVITY>
0

>  <SCORE.RESTR.norm>
0

>  <SCORE.SYSTEM>
0

>  <SCORE.SYSTEM.CONST>
0

>  <SCORE.SYSTEM.DIHEDRAL>
0

>  <SCORE.SYSTEM.SOLV>
0

>  <SCORE.SYSTEM.norm>
0

>  <SCORE.heavy>
10

>  <SCORE.norm>
-2.37494

>  <RMSD>
1.174

$$$$
ligand
 OpenBabel11021811503D
libRbt.so/2013.1/901 2013/11/27
 10 11  0  0  0  0  0  0  0  0999 V2000
   18.9816   -4.7589    2.5412 N   0  0  0  0  0  0  0  0  0  0  0  0
   17.9293   -5.2944    3.1313 C   0  0  0  0  0  0  0  0  0  0  0  0
   16.9028   -4.4603    3.5868 N   0  0  0  0  0  0  0  0  0  0  0  0
   17.0041   -3.1326    3.4346 C   0  0  0  0  0  0  0  0  0  0  0  0
   18.0704   -2.5980    2.8442 C   0  0  0  0  0  0  0  0  0  0  0  0
   19.0521   -3.3704    2.3849 C   0  0  0  0  0  0  0  0  0  0  0  0
   20.0236   -2.8766    1.8147 O   0  0  0  0  0  0  0  0  0  0  0  0
   17.9428   -1.2750    2.8965 N   0  0  0  0  0  0  0  0  0  0  0  0
   16.7994   -0.9904    3.5119 C   0  0  0  0  0  0  0  0  0  0  0  0
   16.2163   -2.1408    3.8370 N   0  0  0  0  0  0  0  0  0  0  0  0
  1  2  1  0  0  0  0
  1  6  1  0  0  0  0
  2  3  2  0  0  0  0
  3  4  1  0  0  0  0
  4  5  2  0  0  0  0
  4 10  1  0  0  0  0
  5  6  1  0  0  0  0
  5  8  1  0  0  0  0
  6  7  2  0  0  0  0
  8  9  1  0  0  0  0
  9 10  2  0  0  0  0
M  END
>  <CHROM.1>
17.93356565,-3.08748852,2.97567316,0.79810003,-0.49296491,3.08646447

>  <Name>
ligand

>  <RI>
0

>  <Rbt.Current_Directory>
/home/itssahil/PROJECTS/Mol_Feturizer/New_Systems/rnas/4NYD

>  <Rbt.Executable>
rbdock ($Id: //depot/dev/client3/rdock/2013.1/src/exe/rbdock.cxx#4 $)

>  <Rbt.Library>
libRbt.so (2013.1, Build901 2013/11/27)

>  <Rbt.Parameter_File>
/export/apps/rDock/src/rDock_2013.1_src/data/scripts/dock_solv.prm

>  <Rbt.Receptor>
prm/blind_docking_100.prm

>  <SCORE>
-23.6777

>  <SCORE.INTER>
-23.6777

>  <SCORE.INTER.CONST>
1

>  <SCORE.INTER.POLAR>
0

>  <SCORE.INTER.ROT>
0

>  <SCORE.INTER.SOLV>
3.31018

>  <SCORE.INTER.VDW>
-20.4885

>  <SCORE.INTER.norm>
-2.36777

>  <SCORE.INTRA>
0

>  <SCORE.INTRA.DIHEDRAL>
0

>  <SCORE.INTRA.DIHEDRAL.0>
0

>  <SCORE.INTRA.POLAR>
0

>  <SCORE.INTRA.POLAR.0>
0

>  <SCORE.INTRA.REPUL>
0

>  <SCORE.INTRA.REPUL.0>
0

>  <SCORE.INTRA.SOLV>
0

>  <SCORE.INTRA.SOLV.lig_0>
-4.1818

>  <SCORE.INTRA.VDW>
0

>  <SCORE.INTRA.VDW.0>
0

>  <SCORE.INTRA.norm>
0

>  <SCORE.RESTR>
0

>  <SCORE.RESTR.CAVITY>
0

>  <SCORE.RESTR.norm>
0

>  <SCORE.SYSTEM>
0

>  <SCORE.SYSTEM.CONST>
0

>  <SCORE.SYSTEM.DIHEDRAL>
0

>  <SCORE.SYSTEM.SOLV>
0

>  <SCORE.SYSTEM.norm>
0

>  <SCORE.heavy>
10

>  <SCORE.norm>
-2.36777

>  <RMSD>
1.175

$$$$
ligand
 OpenBabel11021811503D
libRbt.so/2013.1/901 2013/11/27
 10 11  0  0  0  0  0  0  0  0999 V2000
   18.9707   -4.7899    2.4645 N   0  0  0  0  0  0  0  0  0  0  0  0
   17.9372   -5.3450    3.0696 C   0  0  0  0  0  0  0  0  0  0  0  0
   16.9171   -4.5278    3.5680 N   0  0  0  0  0  0  0  0  0  0  0  0
   17.0056   -3.1966    3.4410 C   0  0  0  0  0  0  0  0  0  0  0  0
   18.0531   -2.6423    2.8352 C   0  0  0  0  0  0  0  0  0  0  0  0
   19.0280   -3.3980    2.3353 C   0  0  0  0  0  0  0  0  0  0  0  0
   19.9814   -2.8856    1.7512 O   0  0  0  0  0  0  0  0  0  0  0  0
   17.9181   -1.3216    2.9181 N   0  0  0  0  0  0  0  0  0  0  0  0
   16.7887   -1.0580    3.5679 C   0  0  0  0  0  0  0  0  0  0  0  0
   16.2217   -2.2189    3.8836 N   0  0  0  0  0  0  0  0  0  0  0  0
  1  2  1  0  0  0  0
  1  6  1  0  0  0  0
  2  3  2  0  0  0  0
  3  4  1  0  0  0  0
  4  5  2  0  0  0  0
  4 10  1  0  0  0  0
  5  6  1  0  0  0  0
  5  8  1  0  0  0  0
  6  7  2  0  0  0  0
  8  9  1  0  0  0  0
  9 10  2  0  0  0  0
M  END
>  <CHROM.1>
17.92288800,-3.13535321,2.95982215,0.78886901,-0.51784217,3.10270722

>  <Name>
ligand

>  <RI>
0

>  <Rbt.Current_Directory>
/home/itssahil/PROJECTS/Mol_Feturizer/New_Systems/rnas/4NYD

>  <Rbt.Executable>
rbdock ($Id: //depot/dev/client3/rdock/2013.1/src/exe/rbdock.cxx#4 $)

>  <Rbt.Library>
libRbt.so (2013.1, Build901 2013/11/27)

>  <Rbt.Parameter_File>
/export/apps/rDock/src/rDock_2013.1_src/data/scripts/dock_solv.prm

>  <Rbt.Receptor>
prm/blind_docking_40.prm

>  <SCORE>
-23.7273

>  <SCORE.INTER>
-23.7273

>  <SCORE.INTER.CONST>
1

>  <SCORE.INTER.POLAR>
0

>  <SCORE.INTER.ROT>
0

>  <SCORE.INTER.SOLV>
3.32415

>  <SCORE.INTER.VDW>
-20.5262

>  <SCORE.INTER.norm>
-2.37273

>  <SCORE.INTRA>
0

>  <SCORE.INTRA.DIHEDRAL>
0

>  <SCORE.INTRA.DIHEDRAL.0>
0

>  <SCORE.INTRA.POLAR>
0

>  <SCORE.INTRA.POLAR.0>
0

>  <SCORE.INTRA.REPUL>
0

>  <SCORE.INTRA.REPUL.0>
0

>  <SCORE.INTRA.SOLV>
0

>  <SCORE.INTRA.SOLV.lig_0>
-4.1818

>  <SCORE.INTRA.VDW>
0

>  <SCORE.INTRA.VDW.0>
0

>  <SCORE.INTRA.norm>
0

>  <SCORE.RESTR>
0

>  <SCORE.RESTR.CAVITY>
0

>  <SCORE.RESTR.norm>
0

>  <SCORE.SYSTEM>
0

>  <SCORE.SYSTEM.CONST>
0

>  <SCORE.SYSTEM.DIHEDRAL>
0

>  <SCORE.SYSTEM.SOLV>
0

>  <SCORE.SYSTEM.norm>
0

>  <SCORE.heavy>
10

>  <SCORE.norm>
-2.37273

>  <RMSD>
1.175

$$$$
ligand
 OpenBabel11021811503D
libRbt.so/2013.1/901 2013/11/27
 10 11  0  0  0  0  0  0  0  0999 V2000
   18.9727   -4.7922    2.4654 N   0  0  0  0  0  0  0  0  0  0  0  0
   17.9430   -5.3487    3.0755 C   0  0  0  0  0  0  0  0  0  0  0  0
   16.9235   -4.5331    3.5778 N   0  0  0  0  0  0  0  0  0  0  0  0
   17.0091   -3.2018    3.4494 C   0  0  0  0  0  0  0  0  0  0  0  0
   18.0528   -2.6460    2.8386 C   0  0  0  0  0  0  0  0  0  0  0  0
   19.0269   -3.4002    2.3349 C   0  0  0  0  0  0  0  0  0  0  0  0
   19.9768   -2.8866    1.7463 O   0  0  0  0  0  0  0  0  0  0  0  0
   17.9158   -1.3255    2.9211 N   0  0  0  0  0  0  0  0  0  0  0  0
   16.7888   -1.0634    3.5757 C   0  0  0  0  0  0  0  0  0  0  0  0
   16.2254   -2.2252    3.8948 N   0  0  0  0  0  0  0  0  0  0  0  0
  1  2  1  0  0  0  0
  1  6  1  0  0  0  0
  2  3  2  0  0  0  0
  3  4  1  0  0  0  0
  4  5  2  0  0  0  0
  4 10  1  0  0  0  0
  5  6  1  0  0  0  0
  5  8  1  0  0  0  0
  6  7  2  0  0  0  0
  8  9  1  0  0  0  0
  9 10  2  0  0  0  0
M  END
>  <CHROM.1>
17.92408050,-3.13918223,2.96417243,0.78656235,-0.52221004,3.10081274

>  <Name>
ligand

>  <RI>
0

>  <Rbt.Current_Directory>
/home/itssahil/PROJECTS/Mol_Feturizer/New_Systems/rnas/4NYD

>  <Rbt.Executable>
rbdock ($Id: //depot/dev/client3/rdock/2013.1/src/exe/rbdock.cxx#4 $)

>  <Rbt.Library>
libRbt.so (2013.1, Build901 2013/11/27)

>  <Rbt.Parameter_File>
/export/apps/rDock/src/rDock_2013.1_src/data/scripts/dock_solv.prm

>  <Rbt.Receptor>
prm/blind_docking_60.prm

>  <SCORE>
-23.7341

>  <SCORE.INTER>
-23.7341

>  <SCORE.INTER.CONST>
1

>  <SCORE.INTER.POLAR>
0

>  <SCORE.INTER.ROT>
0

>  <SCORE.INTER.SOLV>
3.3304

>  <SCORE.INTER.VDW>
-20.5329

>  <SCORE.INTER.norm>
-2.37341

>  <SCORE.INTRA>
0

>  <SCORE.INTRA.DIHEDRAL>
0

>  <SCORE.INTRA.DIHEDRAL.0>
0

>  <SCORE.INTRA.POLAR>
0

>  <SCORE.INTRA.POLAR.0>
0

>  <SCORE.INTRA.REPUL>
0

>  <SCORE.INTRA.REPUL.0>
0

>  <SCORE.INTRA.SOLV>
0

>  <SCORE.INTRA.SOLV.lig_0>
-4.1818

>  <SCORE.INTRA.VDW>
0

>  <SCORE.INTRA.VDW.0>
0

>  <SCORE.INTRA.norm>
0

>  <SCORE.RESTR>
0

>  <SCORE.RESTR.CAVITY>
0

>  <SCORE.RESTR.norm>
0

>  <SCORE.SYSTEM>
0

>  <SCORE.SYSTEM.CONST>
0

>  <SCORE.SYSTEM.DIHEDRAL>
0

>  <SCORE.SYSTEM.SOLV>
0

>  <SCORE.SYSTEM.norm>
0

>  <SCORE.heavy>
10

>  <SCORE.norm>
-2.37341

>  <RMSD>
1.175

$$$$
ligand
 OpenBabel11021811503D
libRbt.so/2013.1/901 2013/11/27
 10 11  0  0  0  0  0  0  0  0999 V2000
   18.9670   -4.8057    2.4623 N   0  0  0  0  0  0  0  0  0  0  0  0
   17.9363   -5.3526    3.0795 C   0  0  0  0  0  0  0  0  0  0  0  0
   16.9163   -4.5291    3.5675 N   0  0  0  0  0  0  0  0  0  0  0  0
   17.0021   -3.2000    3.4185 C   0  0  0  0  0  0  0  0  0  0  0  0
   18.0468   -2.6539    2.8006 C   0  0  0  0  0  0  0  0  0  0  0  0
   19.0215   -3.4160    2.3102 C   0  0  0  0  0  0  0  0  0  0  0  0
   19.9723   -2.9117    1.7150 O   0  0  0  0  0  0  0  0  0  0  0  0
   17.9098   -1.3323    2.8624 N   0  0  0  0  0  0  0  0  0  0  0  0
   16.7819   -1.0599    3.5111 C   0  0  0  0  0  0  0  0  0  0  0  0
   16.2179   -2.2165    3.8475 N   0  0  0  0  0  0  0  0  0  0  0  0
  1  2  1  0  0  0  0
  1  6  1  0  0  0  0
  2  3  2  0  0  0  0
  3  4  1  0  0  0  0
  4  5  2  0  0  0  0
  4 10  1  0  0  0  0
  5  6  1  0  0  0  0
  5  8  1  0  0  0  0
  6  7  2  0  0  0  0
  8  9  1  0  0  0  0
  9 10  2  0  0  0  0
M  END
>  <CHROM.1>
17.91782622,-3.14507029,2.93367225,0.78674920,-0.52076405,3.08531449

>  <Name>
ligand

>  <RI>
0

>  <Rbt.Current_Directory>
/home/itssahil/PROJECTS/Mol_Feturizer/New_Systems/rnas/4NYD

>  <Rbt.Executable>
rbdock ($Id: //depot/dev/client3/rdock/2013.1/src/exe/rbdock.cxx#4 $)

>  <Rbt.Library>
libRbt.so (2013.1, Build901 2013/11/27)

>  <Rbt.Parameter_File>
/export/apps/rDock/src/rDock_2013.1_src/data/scripts/dock_solv.prm

>  <Rbt.Receptor>
prm/pocket_docking_4.prm

>  <SCORE>
-23.7003

>  <SCORE.INTER>
-23.7003

>  <SCORE.INTER.CONST>
1

>  <SCORE.INTER.POLAR>
0

>  <SCORE.INTER.ROT>
0

>  <SCORE.INTER.SOLV>
3.28423

>  <SCORE.INTER.VDW>
-20.4949

>  <SCORE.INTER.norm>
-2.37003

>  <SCORE.INTRA>
0

>  <SCORE.INTRA.DIHEDRAL>
0

>  <SCORE.INTRA.DIHEDRAL.0>
0

>  <SCORE.INTRA.POLAR>
0

>  <SCORE.INTRA.POLAR.0>
0

>  <SCORE.INTRA.REPUL>
0

>  <SCORE.INTRA.REPUL.0>
0

>  <SCORE.INTRA.SOLV>
0

>  <SCORE.INTRA.SOLV.lig_0>
-4.1818

>  <SCORE.INTRA.VDW>
0

>  <SCORE.INTRA.VDW.0>
0

>  <SCORE.INTRA.norm>
0

>  <SCORE.RESTR>
0

>  <SCORE.RESTR.CAVITY>
0

>  <SCORE.RESTR.norm>
0

>  <SCORE.SYSTEM>
0

>  <SCORE.SYSTEM.CONST>
0

>  <SCORE.SYSTEM.DIHEDRAL>
0

>  <SCORE.SYSTEM.SOLV>
0

>  <SCORE.SYSTEM.norm>
0

>  <SCORE.heavy>
10

>  <SCORE.norm>
-2.37003

>  <RMSD>
1.175

$$$$
ligand
 OpenBabel11021811503D
libRbt.so/2013.1/901 2013/11/27
 10 11  0  0  0  0  0  0  0  0999 V2000
   19.0026   -4.7909    2.5339 N   0  0  0  0  0  0  0  0  0  0  0  0
   17.9695   -5.3404    3.1446 C   0  0  0  0  0  0  0  0  0  0  0  0
   16.9326   -4.5217    3.6046 N   0  0  0  0  0  0  0  0  0  0  0  0
   17.0050   -3.1941    3.4358 C   0  0  0  0  0  0  0  0  0  0  0  0
   18.0522   -2.6453    2.8247 C   0  0  0  0  0  0  0  0  0  0  0  0
   19.0430   -3.4031    2.3607 C   0  0  0  0  0  0  0  0  0  0  0  0
   19.9965   -2.8968    1.7716 O   0  0  0  0  0  0  0  0  0  0  0  0
   17.8987   -1.3246    2.8635 N   0  0  0  0  0  0  0  0  0  0  0  0
   16.7582   -1.0557    3.4913 C   0  0  0  0  0  0  0  0  0  0  0  0
   16.2029   -2.2136    3.8376 N   0  0  0  0  0  0  0  0  0  0  0  0
  1  2  1  0  0  0  0
  1  6  1  0  0  0  0
  2  3  2  0  0  0  0
  3  4  1  0  0  0  0
  4  5  2  0  0  0  0
  4 10  1  0  0  0  0
  5  6  1  0  0  0  0
  5  8  1  0  0  0  0
  6  7  2  0  0  0  0
  8  9  1  0  0  0  0
  9 10  2  0  0  0  0
M  END
>  <CHROM.1>
17.92710132,-3.13577999,2.96362293,0.77424011,-0.50526287,3.06343801

>  <Name>
ligand

>  <RI>
0

>  <Rbt.Current_Directory>
/home/itssahil/PROJECTS/Mol_Feturizer/New_Systems/rnas/4NYD

>  <Rbt.Executable>
rbdock ($Id: //depot/dev/client3/rdock/2013.1/src/exe/rbdock.cxx#4 $)

>  <Rbt.Library>
libRbt.so (2013.1, Build901 2013/11/27)

>  <Rbt.Parameter_File>
/export/apps/rDock/src/rDock_2013.1_src/data/scripts/dock_solv.prm

>  <Rbt.Receptor>
prm/pocket_docking_4.prm

>  <SCORE>
-23.7034

>  <SCORE.INTER>
-23.7034

>  <SCORE.INTER.CONST>
1

>  <SCORE.INTER.POLAR>
0

>  <SCORE.INTER.ROT>
0

>  <SCORE.INTER.SOLV>
3.28229

>  <SCORE.INTER.VDW>
-20.4963

>  <SCORE.INTER.norm>
-2.37034

>  <SCORE.INTRA>
0

>  <SCORE.INTRA.DIHEDRAL>
0

>  <SCORE.INTRA.DIHEDRAL.0>
0

>  <SCORE.INTRA.POLAR>
0

>  <SCORE.INTRA.POLAR.0>
0

>  <SCORE.INTRA.REPUL>
0

>  <SCORE.INTRA.REPUL.0>
0

>  <SCORE.INTRA.SOLV>
0

>  <SCORE.INTRA.SOLV.lig_0>
-4.1818

>  <SCORE.INTRA.VDW>
0

>  <SCORE.INTRA.VDW.0>
0

>  <SCORE.INTRA.norm>
0

>  <SCORE.RESTR>
0

>  <SCORE.RESTR.CAVITY>
0

>  <SCORE.RESTR.norm>
0

>  <SCORE.SYSTEM>
0

>  <SCORE.SYSTEM.CONST>
0

>  <SCORE.SYSTEM.DIHEDRAL>
0

>  <SCORE.SYSTEM.SOLV>
0

>  <SCORE.SYSTEM.norm>
0

>  <SCORE.heavy>
10

>  <SCORE.norm>
-2.37034

>  <RMSD>
1.175

$$$$
ligand
 OpenBabel11021811503D
libRbt.so/2013.1/901 2013/11/27
 10 11  0  0  0  0  0  0  0  0999 V2000
   18.9934   -4.7975    2.5128 N   0  0  0  0  0  0  0  0  0  0  0  0
   17.9640   -5.3470    3.1298 C   0  0  0  0  0  0  0  0  0  0  0  0
   16.9334   -4.5276    3.6024 N   0  0  0  0  0  0  0  0  0  0  0  0
   17.0079   -3.1995    3.4390 C   0  0  0  0  0  0  0  0  0  0  0  0
   18.0514   -2.6507    2.8214 C   0  0  0  0  0  0  0  0  0  0  0  0
   19.0361   -3.4092    2.3455 C   0  0  0  0  0  0  0  0  0  0  0  0
   19.9859   -2.9027    1.7505 O   0  0  0  0  0  0  0  0  0  0  0  0
   17.9018   -1.3298    2.8675 N   0  0  0  0  0  0  0  0  0  0  0  0
   16.7675   -1.0607    3.5063 C   0  0  0  0  0  0  0  0  0  0  0  0
   16.2121   -2.2186    3.8521 N   0  0  0  0  0  0  0  0  0  0  0  0
  1  2  1  0  0  0  0
  1  6  1  0  0  0  0
  2  3  2  0  0  0  0
  3  4  1  0  0  0  0
  4  5  2  0  0  0  0
  4 10  1  0  0  0  0
  5  6  1  0  0  0  0
  5  8  1  0  0  0  0
  6  7  2  0  0  0  0
  8  9  1  0  0  0  0
  9 10  2  0  0  0  0
M  END
>  <CHROM.1>
17.92610885,-3.14150800,2.95917461,0.77662429,-0.51402342,3.06913360

>  <Name>
ligand

>  <RI>
0

>  <Rbt.Current_Directory>
/home/itssahil/PROJECTS/Mol_Feturizer/New_Systems/rnas/4NYD

>  <Rbt.Executable>
rbdock ($Id: //depot/dev/client3/rdock/2013.1/src/exe/rbdock.cxx#4 $)

>  <Rbt.Library>
libRbt.so (2013.1, Build901 2013/11/27)

>  <Rbt.Parameter_File>
/export/apps/rDock/src/rDock_2013.1_src/data/scripts/dock_solv.prm

>  <Rbt.Receptor>
prm/pocket_docking_8.prm

>  <SCORE>
-23.7081

>  <SCORE.INTER>
-23.7081

>  <SCORE.INTER.CONST>
1

>  <SCORE.INTER.POLAR>
0

>  <SCORE.INTER.ROT>
0

>  <SCORE.INTER.SOLV>
3.28958

>  <SCORE.INTER.VDW>
-20.5019

>  <SCORE.INTER.norm>
-2.37081

>  <SCORE.INTRA>
0

>  <SCORE.INTRA.DIHEDRAL>
0

>  <SCORE.INTRA.DIHEDRAL.0>
0

>  <SCORE.INTRA.POLAR>
0

>  <SCORE.INTRA.POLAR.0>
0

>  <SCORE.INTRA.REPUL>
0

>  <SCORE.INTRA.REPUL.0>
0

>  <SCORE.INTRA.SOLV>
0

>  <SCORE.INTRA.SOLV.lig_0>
-4.1818

>  <SCORE.INTRA.VDW>
0

>  <SCORE.INTRA.VDW.0>
0

>  <SCORE.INTRA.norm>
0

>  <SCORE.RESTR>
0

>  <SCORE.RESTR.CAVITY>
0

>  <SCORE.RESTR.norm>
0

>  <SCORE.SYSTEM>
0

>  <SCORE.SYSTEM.CONST>
0

>  <SCORE.SYSTEM.DIHEDRAL>
0

>  <SCORE.SYSTEM.SOLV>
0

>  <SCORE.SYSTEM.norm>
0

>  <SCORE.heavy>
10

>  <SCORE.norm>
-2.37081

>  <RMSD>
1.175

$$$$
ligand
 OpenBabel11021811503D
libRbt.so/2013.1/901 2013/11/27
 10 11  0  0  0  0  0  0  0  0999 V2000
   18.9821   -4.7853    2.4737 N   0  0  0  0  0  0  0  0  0  0  0  0
   17.9509   -5.3488    3.0749 C   0  0  0  0  0  0  0  0  0  0  0  0
   16.9214   -4.5400    3.5677 N   0  0  0  0  0  0  0  0  0  0  0  0
   16.9987   -3.2082    3.4394 C   0  0  0  0  0  0  0  0  0  0  0  0
   18.0440   -2.6455    2.8376 C   0  0  0  0  0  0  0  0  0  0  0  0
   19.0277   -3.3931    2.3430 C   0  0  0  0  0  0  0  0  0  0  0  0
   19.9792   -2.8730    1.7625 O   0  0  0  0  0  0  0  0  0  0  0  0
   17.8969   -1.3259    2.9182 N   0  0  0  0  0  0  0  0  0  0  0  0
   16.7624   -1.0714    3.5626 C   0  0  0  0  0  0  0  0  0  0  0  0
   16.2043   -2.2370    3.8773 N   0  0  0  0  0  0  0  0  0  0  0  0
  1  2  1  0  0  0  0
  1  6  1  0  0  0  0
  2  3  2  0  0  0  0
  3  4  1  0  0  0  0
  4  5  2  0  0  0  0
  4 10  1  0  0  0  0
  5  6  1  0  0  0  0
  5  8  1  0  0  0  0
  6  7  2  0  0  0  0
  8  9  1  0  0  0  0
  9 10  2  0  0  0  0
M  END
>  <CHROM.1>
17.91755563,-3.13946820,2.96227099,0.77893769,-0.51303465,3.09655567

>  <Name>
ligand

>  <RI>
0

>  <Rbt.Current_Directory>
/home/itssahil/PROJECTS/Mol_Feturizer/New_Systems/rnas/4NYD

>  <Rbt.Executable>
rbdock ($Id: //depot/dev/client3/rdock/2013.1/src/exe/rbdock.cxx#4 $)

>  <Rbt.Library>
libRbt.so (2013.1, Build901 2013/11/27)

>  <Rbt.Parameter_File>
/export/apps/rDock/src/rDock_2013.1_src/data/scripts/dock_solv.prm

>  <Rbt.Receptor>
prm/blind_docking_40.prm

>  <SCORE>
-23.7173

>  <SCORE.INTER>
-23.7173

>  <SCORE.INTER.CONST>
1

>  <SCORE.INTER.POLAR>
0

>  <SCORE.INTER.ROT>
0

>  <SCORE.INTER.SOLV>
3.31746

>  <SCORE.INTER.VDW>
-20.5173

>  <SCORE.INTER.norm>
-2.37173

>  <SCORE.INTRA>
0

>  <SCORE.INTRA.DIHEDRAL>
0

>  <SCORE.INTRA.DIHEDRAL.0>
0

>  <SCORE.INTRA.POLAR>
0

>  <SCORE.INTRA.POLAR.0>
0

>  <SCORE.INTRA.REPUL>
0

>  <SCORE.INTRA.REPUL.0>
0

>  <SCORE.INTRA.SOLV>
0

>  <SCORE.INTRA.SOLV.lig_0>
-4.1818

>  <SCORE.INTRA.VDW>
0

>  <SCORE.INTRA.VDW.0>
0

>  <SCORE.INTRA.norm>
0

>  <SCORE.RESTR>
0

>  <SCORE.RESTR.CAVITY>
0

>  <SCORE.RESTR.norm>
0

>  <SCORE.SYSTEM>
0

>  <SCORE.SYSTEM.CONST>
0

>  <SCORE.SYSTEM.DIHEDRAL>
0

>  <SCORE.SYSTEM.SOLV>
0

>  <SCORE.SYSTEM.norm>
0

>  <SCORE.heavy>
10

>  <SCORE.norm>
-2.37173

>  <RMSD>
1.176

$$$$
ligand
 OpenBabel11021811503D
libRbt.so/2013.1/901 2013/11/27
 10 11  0  0  0  0  0  0  0  0999 V2000
   18.9404   -4.7538    2.5004 N   0  0  0  0  0  0  0  0  0  0  0  0
   17.8789   -5.2695    3.0917 C   0  0  0  0  0  0  0  0  0  0  0  0
   16.8717   -4.4158    3.5539 N   0  0  0  0  0  0  0  0  0  0  0  0
   17.0005   -3.0899    3.4069 C   0  0  0  0  0  0  0  0  0  0  0  0
   18.0761   -2.5755    2.8153 C   0  0  0  0  0  0  0  0  0  0  0  0
   19.0398   -3.3665    2.3495 C   0  0  0  0  0  0  0  0  0  0  0  0
   20.0197   -2.8910    1.7782 O   0  0  0  0  0  0  0  0  0  0  0  0
   17.9767   -1.2503    2.8733 N   0  0  0  0  0  0  0  0  0  0  0  0
   16.8415   -0.9442    3.4936 C   0  0  0  0  0  0  0  0  0  0  0  0
   16.2352   -2.0833    3.8159 N   0  0  0  0  0  0  0  0  0  0  0  0
  1  2  1  0  0  0  0
  1  6  1  0  0  0  0
  2  3  2  0  0  0  0
  3  4  1  0  0  0  0
  4  5  2  0  0  0  0
  4 10  1  0  0  0  0
  5  6  1  0  0  0  0
  5  8  1  0  0  0  0
  6  7  2  0  0  0  0
  8  9  1  0  0  0  0
  9 10  2  0  0  0  0
M  END
>  <CHROM.1>
17.92933000,-3.06249019,2.94513840,0.82194321,-0.49716349,3.10193413

>  <Name>
ligand

>  <RI>
0

>  <Rbt.Current_Directory>
/home/itssahil/PROJECTS/Mol_Feturizer/New_Systems/rnas/4NYD

>  <Rbt.Executable>
rbdock ($Id: //depot/dev/client3/rdock/2013.1/src/exe/rbdock.cxx#4 $)

>  <Rbt.Library>
libRbt.so (2013.1, Build901 2013/11/27)

>  <Rbt.Parameter_File>
/export/apps/rDock/src/rDock_2013.1_src/data/scripts/dock_solv.prm

>  <Rbt.Receptor>
prm/blind_docking_60.prm

>  <SCORE>
-23.6939

>  <SCORE.INTER>
-23.6939

>  <SCORE.INTER.CONST>
1

>  <SCORE.INTER.POLAR>
0

>  <SCORE.INTER.ROT>
0

>  <SCORE.INTER.SOLV>
3.2968

>  <SCORE.INTER.VDW>
-20.4948

>  <SCORE.INTER.norm>
-2.36939

>  <SCORE.INTRA>
0

>  <SCORE.INTRA.DIHEDRAL>
0

>  <SCORE.INTRA.DIHEDRAL.0>
0

>  <SCORE.INTRA.POLAR>
0

>  <SCORE.INTRA.POLAR.0>
0

>  <SCORE.INTRA.REPUL>
0

>  <SCORE.INTRA.REPUL.0>
0

>  <SCORE.INTRA.SOLV>
0

>  <SCORE.INTRA.SOLV.lig_0>
-4.1818

>  <SCORE.INTRA.VDW>
0

>  <SCORE.INTRA.VDW.0>
0

>  <SCORE.INTRA.norm>
0

>  <SCORE.RESTR>
0

>  <SCORE.RESTR.CAVITY>
0

>  <SCORE.RESTR.norm>
0

>  <SCORE.SYSTEM>
0

>  <SCORE.SYSTEM.CONST>
0

>  <SCORE.SYSTEM.DIHEDRAL>
0

>  <SCORE.SYSTEM.SOLV>
0

>  <SCORE.SYSTEM.norm>
0

>  <SCORE.heavy>
10

>  <SCORE.norm>
-2.36939

>  <RMSD>
1.176

$$$$
ligand
 OpenBabel11021811503D
libRbt.so/2013.1/901 2013/11/27
 10 11  0  0  0  0  0  0  0  0999 V2000
   18.9983   -4.8054    2.5127 N   0  0  0  0  0  0  0  0  0  0  0  0
   17.9731   -5.3586    3.1335 C   0  0  0  0  0  0  0  0  0  0  0  0
   16.9413   -4.5429    3.6099 N   0  0  0  0  0  0  0  0  0  0  0  0
   17.0105   -3.2145    3.4462 C   0  0  0  0  0  0  0  0  0  0  0  0
   18.0497   -2.6620    2.8248 C   0  0  0  0  0  0  0  0  0  0  0  0
   19.0354   -3.4169    2.3453 C   0  0  0  0  0  0  0  0  0  0  0  0
   19.9811   -2.9070    1.7468 O   0  0  0  0  0  0  0  0  0  0  0  0
   17.8955   -1.3416    2.8715 N   0  0  0  0  0  0  0  0  0  0  0  0
   16.7626   -1.0766    3.5144 C   0  0  0  0  0  0  0  0  0  0  0  0
   16.2126   -2.2365    3.8623 N   0  0  0  0  0  0  0  0  0  0  0  0
  1  2  1  0  0  0  0
  1  6  1  0  0  0  0
  2  3  2  0  0  0  0
  3  4  1  0  0  0  0
  4  5  2  0  0  0  0
  4 10  1  0  0  0  0
  5  6  1  0  0  0  0
  5  8  1  0  0  0  0
  6  7  2  0  0  0  0
  8  9  1  0  0  0  0
  9 10  2  0  0  0  0
M  END
>  <CHROM.1>
17.92667686,-3.15323105,2.96302395,0.77218016,-0.51742413,3.06694633

>  <Name>
ligand

>  <RI>
0

>  <Rbt.Current_Directory>
/home/itssahil/PROJECTS/Mol_Feturizer/New_Systems/rnas/4NYD

>  <Rbt.Executable>
rbdock ($Id: //depot/dev/client3/rdock/2013.1/src/exe/rbdock.cxx#4 $)

>  <Rbt.Library>
libRbt.so (2013.1, Build901 2013/11/27)

>  <Rbt.Parameter_File>
/export/apps/rDock/src/rDock_2013.1_src/data/scripts/dock_solv.prm

>  <Rbt.Receptor>
prm/blind_docking_80.prm

>  <SCORE>
-23.6977

>  <SCORE.INTER>
-23.6977

>  <SCORE.INTER.CONST>
1

>  <SCORE.INTER.POLAR>
0

>  <SCORE.INTER.ROT>
0

>  <SCORE.INTER.SOLV>
3.29439

>  <SCORE.INTER.VDW>
-20.4966

>  <SCORE.INTER.norm>
-2.36977

>  <SCORE.INTRA>
0

>  <SCORE.INTRA.DIHEDRAL>
0

>  <SCORE.INTRA.DIHEDRAL.0>
0

>  <SCORE.INTRA.POLAR>
0

>  <SCORE.INTRA.POLAR.0>
0

>  <SCORE.INTRA.REPUL>
0

>  <SCORE.INTRA.REPUL.0>
0

>  <SCORE.INTRA.SOLV>
0

>  <SCORE.INTRA.SOLV.lig_0>
-4.1818

>  <SCORE.INTRA.VDW>
0

>  <SCORE.INTRA.VDW.0>
0

>  <SCORE.INTRA.norm>
0

>  <SCORE.RESTR>
0

>  <SCORE.RESTR.CAVITY>
0

>  <SCORE.RESTR.norm>
0

>  <SCORE.SYSTEM>
0

>  <SCORE.SYSTEM.CONST>
0

>  <SCORE.SYSTEM.DIHEDRAL>
0

>  <SCORE.SYSTEM.SOLV>
0

>  <SCORE.SYSTEM.norm>
0

>  <SCORE.heavy>
10

>  <SCORE.norm>
-2.36977

>  <RMSD>
1.176

$$$$
ligand
 OpenBabel11021811503D
libRbt.so/2013.1/901 2013/11/27
 10 11  0  0  0  0  0  0  0  0999 V2000
   18.9884   -4.7552    2.5512 N   0  0  0  0  0  0  0  0  0  0  0  0
   17.9358   -5.2944    3.1375 C   0  0  0  0  0  0  0  0  0  0  0  0
   16.9041   -4.4639    3.5877 N   0  0  0  0  0  0  0  0  0  0  0  0
   17.0006   -3.1360    3.4345 C   0  0  0  0  0  0  0  0  0  0  0  0
   18.0672   -2.5977    2.8479 C   0  0  0  0  0  0  0  0  0  0  0  0
   19.0540   -3.3666    2.3935 C   0  0  0  0  0  0  0  0  0  0  0  0
   20.0258   -2.8696    1.8268 O   0  0  0  0  0  0  0  0  0  0  0  0
   17.9341   -1.2752    2.8981 N   0  0  0  0  0  0  0  0  0  0  0  0
   16.7870   -0.9945    3.5084 C   0  0  0  0  0  0  0  0  0  0  0  0
   16.2072   -2.1468    3.8325 N   0  0  0  0  0  0  0  0  0  0  0  0
  1  2  1  0  0  0  0
  1  6  1  0  0  0  0
  2  3  2  0  0  0  0
  3  4  1  0  0  0  0
  4  5  2  0  0  0  0
  4 10  1  0  0  0  0
  5  6  1  0  0  0  0
  5  8  1  0  0  0  0
  6  7  2  0  0  0  0
  8  9  1  0  0  0  0
  9 10  2  0  0  0  0
M  END
>  <CHROM.1>
17.93182510,-3.08757865,2.97935476,0.79382616,-0.48857239,3.08332182

>  <Name>
ligand

>  <RI>
0

>  <Rbt.Current_Directory>
/home/itssahil/PROJECTS/Mol_Feturizer/New_Systems/rnas/4NYD

>  <Rbt.Executable>
rbdock ($Id: //depot/dev/client3/rdock/2013.1/src/exe/rbdock.cxx#4 $)

>  <Rbt.Library>
libRbt.so (2013.1, Build901 2013/11/27)

>  <Rbt.Parameter_File>
/export/apps/rDock/src/rDock_2013.1_src/data/scripts/dock_solv.prm

>  <Rbt.Receptor>
prm/pocket_docking_3.prm

>  <SCORE>
-23.7075

>  <SCORE.INTER>
-23.7075

>  <SCORE.INTER.CONST>
1

>  <SCORE.INTER.POLAR>
0

>  <SCORE.INTER.ROT>
0

>  <SCORE.INTER.SOLV>
3.30773

>  <SCORE.INTER.VDW>
-20.5076

>  <SCORE.INTER.norm>
-2.37075

>  <SCORE.INTRA>
0

>  <SCORE.INTRA.DIHEDRAL>
0

>  <SCORE.INTRA.DIHEDRAL.0>
0

>  <SCORE.INTRA.POLAR>
0

>  <SCORE.INTRA.POLAR.0>
0

>  <SCORE.INTRA.REPUL>
0

>  <SCORE.INTRA.REPUL.0>
0

>  <SCORE.INTRA.SOLV>
0

>  <SCORE.INTRA.SOLV.lig_0>
-4.1818

>  <SCORE.INTRA.VDW>
0

>  <SCORE.INTRA.VDW.0>
0

>  <SCORE.INTRA.norm>
0

>  <SCORE.RESTR>
0

>  <SCORE.RESTR.CAVITY>
0

>  <SCORE.RESTR.norm>
0

>  <SCORE.SYSTEM>
0

>  <SCORE.SYSTEM.CONST>
0

>  <SCORE.SYSTEM.DIHEDRAL>
0

>  <SCORE.SYSTEM.SOLV>
0

>  <SCORE.SYSTEM.norm>
0

>  <SCORE.heavy>
10

>  <SCORE.norm>
-2.37075

>  <RMSD>
1.176

$$$$
ligand
 OpenBabel11021811503D
libRbt.so/2013.1/901 2013/11/27
 10 11  0  0  0  0  0  0  0  0999 V2000
   18.9879   -4.7942    2.4855 N   0  0  0  0  0  0  0  0  0  0  0  0
   17.9555   -5.3576    3.0848 C   0  0  0  0  0  0  0  0  0  0  0  0
   16.9272   -4.5484    3.5794 N   0  0  0  0  0  0  0  0  0  0  0  0
   17.0068   -3.2164    3.4545 C   0  0  0  0  0  0  0  0  0  0  0  0
   18.0532   -2.6538    2.8546 C   0  0  0  0  0  0  0  0  0  0  0  0
   19.0359   -3.4018    2.3585 C   0  0  0  0  0  0  0  0  0  0  0  0
   19.9884   -2.8818    1.7798 O   0  0  0  0  0  0  0  0  0  0  0  0
   17.9083   -1.3343    2.9386 N   0  0  0  0  0  0  0  0  0  0  0  0
   16.7739   -1.0796    3.5832 C   0  0  0  0  0  0  0  0  0  0  0  0
   16.2137   -2.2450    3.8946 N   0  0  0  0  0  0  0  0  0  0  0  0
  1  2  1  0  0  0  0
  1  6  1  0  0  0  0
  2  3  2  0  0  0  0
  3  4  1  0  0  0  0
  4  5  2  0  0  0  0
  4 10  1  0  0  0  0
  5  6  1  0  0  0  0
  5  8  1  0  0  0  0
  6  7  2  0  0  0  0
  8  9  1  0  0  0  0
  9 10  2  0  0  0  0
M  END
>  <CHROM.1>
17.92588522,-3.14794206,2.97795744,0.78086225,-0.51269117,3.10010935

>  <Name>
ligand

>  <RI>
0

>  <Rbt.Current_Directory>
/home/itssahil/PROJECTS/Mol_Feturizer/New_Systems/rnas/4NYD

>  <Rbt.Executable>
rbdock ($Id: //depot/dev/client3/rdock/2013.1/src/exe/rbdock.cxx#4 $)

>  <Rbt.Library>
libRbt.so (2013.1, Build901 2013/11/27)

>  <Rbt.Parameter_File>
/export/apps/rDock/src/rDock_2013.1_src/data/scripts/dock_solv.prm

>  <Rbt.Receptor>
prm/pocket_docking_6.prm

>  <SCORE>
-23.7224

>  <SCORE.INTER>
-23.7224

>  <SCORE.INTER.CONST>
1

>  <SCORE.INTER.POLAR>
0

>  <SCORE.INTER.ROT>
0

>  <SCORE.INTER.SOLV>
3.33573

>  <SCORE.INTER.VDW>
-20.5269

>  <SCORE.INTER.norm>
-2.37224

>  <SCORE.INTRA>
0

>  <SCORE.INTRA.DIHEDRAL>
0

>  <SCORE.INTRA.DIHEDRAL.0>
0

>  <SCORE.INTRA.POLAR>
0

>  <SCORE.INTRA.POLAR.0>
0

>  <SCORE.INTRA.REPUL>
0

>  <SCORE.INTRA.REPUL.0>
0

>  <SCORE.INTRA.SOLV>
0

>  <SCORE.INTRA.SOLV.lig_0>
-4.1818

>  <SCORE.INTRA.VDW>
0

>  <SCORE.INTRA.VDW.0>
0

>  <SCORE.INTRA.norm>
0

>  <SCORE.RESTR>
0

>  <SCORE.RESTR.CAVITY>
0

>  <SCORE.RESTR.norm>
0

>  <SCORE.SYSTEM>
0

>  <SCORE.SYSTEM.CONST>
0

>  <SCORE.SYSTEM.DIHEDRAL>
0

>  <SCORE.SYSTEM.SOLV>
0

>  <SCORE.SYSTEM.norm>
0

>  <SCORE.heavy>
10

>  <SCORE.norm>
-2.37224

>  <RMSD>
1.176

$$$$
ligand
 OpenBabel11021811503D
libRbt.so/2013.1/901 2013/11/27
 10 11  0  0  0  0  0  0  0  0999 V2000
   18.9669   -4.7648    2.5419 N   0  0  0  0  0  0  0  0  0  0  0  0
   17.9023   -5.2903    3.1188 C   0  0  0  0  0  0  0  0  0  0  0  0
   16.8777   -4.4466    3.5605 N   0  0  0  0  0  0  0  0  0  0  0  0
   16.9929   -3.1200    3.4087 C   0  0  0  0  0  0  0  0  0  0  0  0
   18.0715   -2.5956    2.8317 C   0  0  0  0  0  0  0  0  0  0  0  0
   19.0520   -3.3771    2.3855 C   0  0  0  0  0  0  0  0  0  0  0  0
   20.0352   -2.8927    1.8274 O   0  0  0  0  0  0  0  0  0  0  0  0
   17.9553   -1.2714    2.8813 N   0  0  0  0  0  0  0  0  0  0  0  0
   16.8067   -0.9759    3.4818 C   0  0  0  0  0  0  0  0  0  0  0  0
   16.2091   -2.1207    3.8003 N   0  0  0  0  0  0  0  0  0  0  0  0
  1  2  1  0  0  0  0
  1  6  1  0  0  0  0
  2  3  2  0  0  0  0
  3  4  1  0  0  0  0
  4  5  2  0  0  0  0
  4 10  1  0  0  0  0
  5  6  1  0  0  0  0
  5  8  1  0  0  0  0
  6  7  2  0  0  0  0
  8  9  1  0  0  0  0
  9 10  2  0  0  0  0
M  END
>  <CHROM.1>
17.92859195,-3.08363509,2.96170601,0.80911536,-0.48064766,3.09084345

>  <Name>
ligand

>  <RI>
0

>  <Rbt.Current_Directory>
/home/itssahil/PROJECTS/Mol_Feturizer/New_Systems/rnas/4NYD

>  <Rbt.Executable>
rbdock ($Id: //depot/dev/client3/rdock/2013.1/src/exe/rbdock.cxx#4 $)

>  <Rbt.Library>
libRbt.so (2013.1, Build901 2013/11/27)

>  <Rbt.Parameter_File>
/export/apps/rDock/src/rDock_2013.1_src/data/scripts/dock_solv.prm

>  <Rbt.Receptor>
prm/blind_docking_80.prm

>  <SCORE>
-23.7181

>  <SCORE.INTER>
-23.7181

>  <SCORE.INTER.CONST>
1

>  <SCORE.INTER.POLAR>
0

>  <SCORE.INTER.ROT>
0

>  <SCORE.INTER.SOLV>
3.2904

>  <SCORE.INTER.VDW>
-20.5089

>  <SCORE.INTER.norm>
-2.37181

>  <SCORE.INTRA>
0

>  <SCORE.INTRA.DIHEDRAL>
0

>  <SCORE.INTRA.DIHEDRAL.0>
0

>  <SCORE.INTRA.POLAR>
0

>  <SCORE.INTRA.POLAR.0>
0

>  <SCORE.INTRA.REPUL>
0

>  <SCORE.INTRA.REPUL.0>
0

>  <SCORE.INTRA.SOLV>
0

>  <SCORE.INTRA.SOLV.lig_0>
-4.1818

>  <SCORE.INTRA.VDW>
0

>  <SCORE.INTRA.VDW.0>
0

>  <SCORE.INTRA.norm>
0

>  <SCORE.RESTR>
0

>  <SCORE.RESTR.CAVITY>
0

>  <SCORE.RESTR.norm>
0

>  <SCORE.SYSTEM>
0

>  <SCORE.SYSTEM.CONST>
0

>  <SCORE.SYSTEM.DIHEDRAL>
0

>  <SCORE.SYSTEM.SOLV>
0

>  <SCORE.SYSTEM.norm>
0

>  <SCORE.heavy>
10

>  <SCORE.norm>
-2.37181

>  <RMSD>
1.177

$$$$
ligand
 OpenBabel11021811503D
libRbt.so/2013.1/901 2013/11/27
 10 11  0  0  0  0  0  0  0  0999 V2000
   18.9779   -4.7788    2.4694 N   0  0  0  0  0  0  0  0  0  0  0  0
   17.9460   -5.3439    3.0680 C   0  0  0  0  0  0  0  0  0  0  0  0
   16.9216   -4.5357    3.5723 N   0  0  0  0  0  0  0  0  0  0  0  0
   17.0046   -3.2030    3.4575 C   0  0  0  0  0  0  0  0  0  0  0  0
   18.0505   -2.6387    2.8583 C   0  0  0  0  0  0  0  0  0  0  0  0
   19.0294   -3.3855    2.3530 C   0  0  0  0  0  0  0  0  0  0  0  0
   19.9814   -2.8638    1.7750 O   0  0  0  0  0  0  0  0  0  0  0  0
   17.9097   -1.3194    2.9530 N   0  0  0  0  0  0  0  0  0  0  0  0
   16.7783   -1.0665    3.6035 C   0  0  0  0  0  0  0  0  0  0  0  0
   16.2159   -2.2327    3.9079 N   0  0  0  0  0  0  0  0  0  0  0  0
  1  2  1  0  0  0  0
  1  6  1  0  0  0  0
  2  3  2  0  0  0  0
  3  4  1  0  0  0  0
  4  5  2  0  0  0  0
  4 10  1  0  0  0  0
  5  6  1  0  0  0  0
  5  8  1  0  0  0  0
  6  7  2  0  0  0  0
  8  9  1  0  0  0  0
  9 10  2  0  0  0  0
M  END
>  <CHROM.1>
17.92224869,-3.13338301,2.97827421,0.78396873,-0.51628159,3.10937124

>  <Name>
ligand

>  <RI>
0

>  <Rbt.Current_Directory>
/home/itssahil/PROJECTS/Mol_Feturizer/New_Systems/rnas/4NYD

>  <Rbt.Executable>
rbdock ($Id: //depot/dev/client3/rdock/2013.1/src/exe/rbdock.cxx#4 $)

>  <Rbt.Library>
libRbt.so (2013.1, Build901 2013/11/27)

>  <Rbt.Parameter_File>
/export/apps/rDock/src/rDock_2013.1_src/data/scripts/dock_solv.prm

>  <Rbt.Receptor>
prm/pocket_docking_4.prm

>  <SCORE>
-23.7274

>  <SCORE.INTER>
-23.7274

>  <SCORE.INTER.CONST>
1

>  <SCORE.INTER.POLAR>
0

>  <SCORE.INTER.ROT>
0

>  <SCORE.INTER.SOLV>
3.34659

>  <SCORE.INTER.VDW>
-20.5338

>  <SCORE.INTER.norm>
-2.37274

>  <SCORE.INTRA>
0

>  <SCORE.INTRA.DIHEDRAL>
0

>  <SCORE.INTRA.DIHEDRAL.0>
0

>  <SCORE.INTRA.POLAR>
0

>  <SCORE.INTRA.POLAR.0>
0

>  <SCORE.INTRA.REPUL>
0

>  <SCORE.INTRA.REPUL.0>
0

>  <SCORE.INTRA.SOLV>
0

>  <SCORE.INTRA.SOLV.lig_0>
-4.1818

>  <SCORE.INTRA.VDW>
0

>  <SCORE.INTRA.VDW.0>
0

>  <SCORE.INTRA.norm>
0

>  <SCORE.RESTR>
0

>  <SCORE.RESTR.CAVITY>
0

>  <SCORE.RESTR.norm>
0

>  <SCORE.SYSTEM>
0

>  <SCORE.SYSTEM.CONST>
0

>  <SCORE.SYSTEM.DIHEDRAL>
0

>  <SCORE.SYSTEM.SOLV>
0

>  <SCORE.SYSTEM.norm>
0

>  <SCORE.heavy>
10

>  <SCORE.norm>
-2.37274

>  <RMSD>
1.177

$$$$
ligand
 OpenBabel11021811503D
libRbt.so/2013.1/901 2013/11/27
 10 11  0  0  0  0  0  0  0  0999 V2000
   18.9556   -4.7748    2.5060 N   0  0  0  0  0  0  0  0  0  0  0  0
   17.8984   -5.3038    3.0932 C   0  0  0  0  0  0  0  0  0  0  0  0
   16.8802   -4.4626    3.5543 N   0  0  0  0  0  0  0  0  0  0  0  0
   16.9942   -3.1351    3.4103 C   0  0  0  0  0  0  0  0  0  0  0  0
   18.0654   -2.6072    2.8227 C   0  0  0  0  0  0  0  0  0  0  0  0
   19.0395   -3.3861    2.3581 C   0  0  0  0  0  0  0  0  0  0  0  0
   20.0154   -2.8983    1.7905 O   0  0  0  0  0  0  0  0  0  0  0  0
   17.9507   -1.2834    2.8831 N   0  0  0  0  0  0  0  0  0  0  0  0
   16.8103   -0.9915    3.5008 C   0  0  0  0  0  0  0  0  0  0  0  0
   16.2163   -2.1381    3.8192 N   0  0  0  0  0  0  0  0  0  0  0  0
  1  2  1  0  0  0  0
  1  6  1  0  0  0  0
  2  3  2  0  0  0  0
  3  4  1  0  0  0  0
  4  5  2  0  0  0  0
  4 10  1  0  0  0  0
  5  6  1  0  0  0  0
  5  8  1  0  0  0  0
  6  7  2  0  0  0  0
  8  9  1  0  0  0  0
  9 10  2  0  0  0  0
M  END
>  <CHROM.1>
17.92392311,-3.09608431,2.95118241,0.80905416,-0.49389311,3.09779872

>  <Name>
ligand

>  <RI>
0

>  <Rbt.Current_Directory>
/home/itssahil/PROJECTS/Mol_Feturizer/New_Systems/rnas/4NYD

>  <Rbt.Executable>
rbdock ($Id: //depot/dev/client3/rdock/2013.1/src/exe/rbdock.cxx#4 $)

>  <Rbt.Library>
libRbt.so (2013.1, Build901 2013/11/27)

>  <Rbt.Parameter_File>
/export/apps/rDock/src/rDock_2013.1_src/data/scripts/dock_solv.prm

>  <Rbt.Receptor>
prm/pocket_docking_4.prm

>  <SCORE>
-23.7098

>  <SCORE.INTER>
-23.7098

>  <SCORE.INTER.CONST>
1

>  <SCORE.INTER.POLAR>
0

>  <SCORE.INTER.ROT>
0

>  <SCORE.INTER.SOLV>
3.29271

>  <SCORE.INTER.VDW>
-20.5041

>  <SCORE.INTER.norm>
-2.37098

>  <SCORE.INTRA>
0

>  <SCORE.INTRA.DIHEDRAL>
0

>  <SCORE.INTRA.DIHEDRAL.0>
0

>  <SCORE.INTRA.POLAR>
0

>  <SCORE.INTRA.POLAR.0>
0

>  <SCORE.INTRA.REPUL>
0

>  <SCORE.INTRA.REPUL.0>
0

>  <SCORE.INTRA.SOLV>
0

>  <SCORE.INTRA.SOLV.lig_0>
-4.1818

>  <SCORE.INTRA.VDW>
0

>  <SCORE.INTRA.VDW.0>
0

>  <SCORE.INTRA.norm>
0

>  <SCORE.RESTR>
0

>  <SCORE.RESTR.CAVITY>
0

>  <SCORE.RESTR.norm>
0

>  <SCORE.SYSTEM>
0

>  <SCORE.SYSTEM.CONST>
0

>  <SCORE.SYSTEM.DIHEDRAL>
0

>  <SCORE.SYSTEM.SOLV>
0

>  <SCORE.SYSTEM.norm>
0

>  <SCORE.heavy>
10

>  <SCORE.norm>
-2.37098

>  <RMSD>
1.177

$$$$
ligand
 OpenBabel11021811503D
libRbt.so/2013.1/901 2013/11/27
 10 11  0  0  0  0  0  0  0  0999 V2000
   18.9781   -4.7632    2.4701 N   0  0  0  0  0  0  0  0  0  0  0  0
   17.9401   -5.3310    3.0553 C   0  0  0  0  0  0  0  0  0  0  0  0
   16.9098   -4.5252    3.5514 N   0  0  0  0  0  0  0  0  0  0  0  0
   16.9932   -3.1920    3.4423 C   0  0  0  0  0  0  0  0  0  0  0  0
   18.0452   -2.6250    2.8566 C   0  0  0  0  0  0  0  0  0  0  0  0
   19.0300   -3.3695    2.3593 C   0  0  0  0  0  0  0  0  0  0  0  0
   19.9880   -2.8451    1.7936 O   0  0  0  0  0  0  0  0  0  0  0  0
   17.9026   -1.3061    2.9546 N   0  0  0  0  0  0  0  0  0  0  0  0
   16.7640   -1.0562    3.5936 C   0  0  0  0  0  0  0  0  0  0  0  0
   16.1990   -2.2238    3.8876 N   0  0  0  0  0  0  0  0  0  0  0  0
  1  2  1  0  0  0  0
  1  6  1  0  0  0  0
  2  3  2  0  0  0  0
  3  4  1  0  0  0  0
  4  5  2  0  0  0  0
  4 10  1  0  0  0  0
  5  6  1  0  0  0  0
  5  8  1  0  0  0  0
  6  7  2  0  0  0  0
  8  9  1  0  0  0  0
  9 10  2  0  0  0  0
M  END
>  <CHROM.1>
17.91597386,-3.12018127,2.97338280,0.78368944,-0.50535080,3.11285575

>  <Name>
ligand

>  <RI>
0

>  <Rbt.Current_Directory>
/home/itssahil/PROJECTS/Mol_Feturizer/New_Systems/rnas/4NYD

>  <Rbt.Executable>
rbdock ($Id: //depot/dev/client3/rdock/2013.1/src/exe/rbdock.cxx#4 $)

>  <Rbt.Library>
libRbt.so (2013.1, Build901 2013/11/27)

>  <Rbt.Parameter_File>
/export/apps/rDock/src/rDock_2013.1_src/data/scripts/dock_solv.prm

>  <Rbt.Receptor>
prm/pocket_docking_6.prm

>  <SCORE>
-23.749

>  <SCORE.INTER>
-23.749

>  <SCORE.INTER.CONST>
1

>  <SCORE.INTER.POLAR>
0

>  <SCORE.INTER.ROT>
0

>  <SCORE.INTER.SOLV>
3.33616

>  <SCORE.INTER.VDW>
-20.5448

>  <SCORE.INTER.norm>
-2.3749

>  <SCORE.INTRA>
0

>  <SCORE.INTRA.DIHEDRAL>
0

>  <SCORE.INTRA.DIHEDRAL.0>
0

>  <SCORE.INTRA.POLAR>
0

>  <SCORE.INTRA.POLAR.0>
0

>  <SCORE.INTRA.REPUL>
0

>  <SCORE.INTRA.REPUL.0>
0

>  <SCORE.INTRA.SOLV>
0

>  <SCORE.INTRA.SOLV.lig_0>
-4.1818

>  <SCORE.INTRA.VDW>
0

>  <SCORE.INTRA.VDW.0>
0

>  <SCORE.INTRA.norm>
0

>  <SCORE.RESTR>
0

>  <SCORE.RESTR.CAVITY>
0

>  <SCORE.RESTR.norm>
0

>  <SCORE.SYSTEM>
0

>  <SCORE.SYSTEM.CONST>
0

>  <SCORE.SYSTEM.DIHEDRAL>
0

>  <SCORE.SYSTEM.SOLV>
0

>  <SCORE.SYSTEM.norm>
0

>  <SCORE.heavy>
10

>  <SCORE.norm>
-2.3749

>  <RMSD>
1.177

$$$$
ligand
 OpenBabel11021811503D
libRbt.so/2013.1/901 2013/11/27
 10 11  0  0  0  0  0  0  0  0999 V2000
   18.9797   -4.7957    2.4731 N   0  0  0  0  0  0  0  0  0  0  0  0
   17.9517   -5.3556    3.0830 C   0  0  0  0  0  0  0  0  0  0  0  0
   16.9281   -4.5434    3.5825 N   0  0  0  0  0  0  0  0  0  0  0  0
   17.0080   -3.2120    3.4516 C   0  0  0  0  0  0  0  0  0  0  0  0
   18.0501   -2.6529    2.8410 C   0  0  0  0  0  0  0  0  0  0  0  0
   19.0280   -3.4039    2.3400 C   0  0  0  0  0  0  0  0  0  0  0  0
   19.9764   -2.8872    1.7515 O   0  0  0  0  0  0  0  0  0  0  0  0
   17.9072   -1.3328    2.9208 N   0  0  0  0  0  0  0  0  0  0  0  0
   16.7784   -1.0744    3.5735 C   0  0  0  0  0  0  0  0  0  0  0  0
   16.2195   -2.2379    3.8942 N   0  0  0  0  0  0  0  0  0  0  0  0
  1  2  1  0  0  0  0
  1  6  1  0  0  0  0
  2  3  2  0  0  0  0
  3  4  1  0  0  0  0
  4  5  2  0  0  0  0
  4 10  1  0  0  0  0
  5  6  1  0  0  0  0
  5  8  1  0  0  0  0
  6  7  2  0  0  0  0
  8  9  1  0  0  0  0
  9 10  2  0  0  0  0
M  END
>  <CHROM.1>
17.92333487,-3.14635764,2.96738847,0.78162090,-0.52080056,3.09640498

>  <Name>
ligand

>  <RI>
0

>  <Rbt.Current_Directory>
/home/itssahil/PROJECTS/Mol_Feturizer/New_Systems/rnas/4NYD

>  <Rbt.Executable>
rbdock ($Id: //depot/dev/client3/rdock/2013.1/src/exe/rbdock.cxx#4 $)

>  <Rbt.Library>
libRbt.so (2013.1, Build901 2013/11/27)

>  <Rbt.Parameter_File>
/export/apps/rDock/src/rDock_2013.1_src/data/scripts/dock_solv.prm

>  <Rbt.Receptor>
prm/pocket_docking_7.prm

>  <SCORE>
-23.7301

>  <SCORE.INTER>
-23.7301

>  <SCORE.INTER.CONST>
1

>  <SCORE.INTER.POLAR>
0

>  <SCORE.INTER.ROT>
0

>  <SCORE.INTER.SOLV>
3.32856

>  <SCORE.INTER.VDW>
-20.5296

>  <SCORE.INTER.norm>
-2.37301

>  <SCORE.INTRA>
0

>  <SCORE.INTRA.DIHEDRAL>
0

>  <SCORE.INTRA.DIHEDRAL.0>
0

>  <SCORE.INTRA.POLAR>
0

>  <SCORE.INTRA.POLAR.0>
0

>  <SCORE.INTRA.REPUL>
0

>  <SCORE.INTRA.REPUL.0>
0

>  <SCORE.INTRA.SOLV>
0

>  <SCORE.INTRA.SOLV.lig_0>
-4.1818

>  <SCORE.INTRA.VDW>
0

>  <SCORE.INTRA.VDW.0>
0

>  <SCORE.INTRA.norm>
0

>  <SCORE.RESTR>
0

>  <SCORE.RESTR.CAVITY>
0

>  <SCORE.RESTR.norm>
0

>  <SCORE.SYSTEM>
0

>  <SCORE.SYSTEM.CONST>
0

>  <SCORE.SYSTEM.DIHEDRAL>
0

>  <SCORE.SYSTEM.SOLV>
0

>  <SCORE.SYSTEM.norm>
0

>  <SCORE.heavy>
10

>  <SCORE.norm>
-2.37301

>  <RMSD>
1.177

$$$$
ligand
 OpenBabel11021811503D
libRbt.so/2013.1/901 2013/11/27
 10 11  0  0  0  0  0  0  0  0999 V2000
   18.9660   -4.7595    2.5166 N   0  0  0  0  0  0  0  0  0  0  0  0
   17.9062   -5.2976    3.0908 C   0  0  0  0  0  0  0  0  0  0  0  0
   16.8811   -4.4643    3.5509 N   0  0  0  0  0  0  0  0  0  0  0  0
   16.9911   -3.1352    3.4191 C   0  0  0  0  0  0  0  0  0  0  0  0
   18.0648   -2.5981    2.8447 C   0  0  0  0  0  0  0  0  0  0  0  0
   19.0456   -3.3693    2.3813 C   0  0  0  0  0  0  0  0  0  0  0  0
   20.0241   -2.8729    1.8256 O   0  0  0  0  0  0  0  0  0  0  0  0
   17.9444   -1.2753    2.9154 N   0  0  0  0  0  0  0  0  0  0  0  0
   16.7980   -0.9932    3.5264 C   0  0  0  0  0  0  0  0  0  0  0  0
   16.2060   -2.1448    3.8303 N   0  0  0  0  0  0  0  0  0  0  0  0
  1  2  1  0  0  0  0
  1  6  1  0  0  0  0
  2  3  2  0  0  0  0
  3  4  1  0  0  0  0
  4  5  2  0  0  0  0
  4 10  1  0  0  0  0
  5  6  1  0  0  0  0
  5  8  1  0  0  0  0
  6  7  2  0  0  0  0
  8  9  1  0  0  0  0
  9 10  2  0  0  0  0
M  END
>  <CHROM.1>
17.92421589,-3.08866665,2.96783944,0.80500184,-0.48575533,3.10443760

>  <Name>
ligand

>  <RI>
0

>  <Rbt.Current_Directory>
/home/itssahil/PROJECTS/Mol_Feturizer/New_Systems/rnas/4NYD

>  <Rbt.Executable>
rbdock ($Id: //depot/dev/client3/rdock/2013.1/src/exe/rbdock.cxx#4 $)

>  <Rbt.Library>
libRbt.so (2013.1, Build901 2013/11/27)

>  <Rbt.Parameter_File>
/export/apps/rDock/src/rDock_2013.1_src/data/scripts/dock_solv.prm

>  <Rbt.Receptor>
prm/pocket_docking_8.prm

>  <SCORE>
-23.7069

>  <SCORE.INTER>
-23.7069

>  <SCORE.INTER.CONST>
1

>  <SCORE.INTER.POLAR>
0

>  <SCORE.INTER.ROT>
0

>  <SCORE.INTER.SOLV>
3.31256

>  <SCORE.INTER.VDW>
-20.5088

>  <SCORE.INTER.norm>
-2.37069

>  <SCORE.INTRA>
0

>  <SCORE.INTRA.DIHEDRAL>
0

>  <SCORE.INTRA.DIHEDRAL.0>
0

>  <SCORE.INTRA.POLAR>
0

>  <SCORE.INTRA.POLAR.0>
0

>  <SCORE.INTRA.REPUL>
0

>  <SCORE.INTRA.REPUL.0>
0

>  <SCORE.INTRA.SOLV>
0

>  <SCORE.INTRA.SOLV.lig_0>
-4.1818

>  <SCORE.INTRA.VDW>
0

>  <SCORE.INTRA.VDW.0>
0

>  <SCORE.INTRA.norm>
0

>  <SCORE.RESTR>
0

>  <SCORE.RESTR.CAVITY>
0

>  <SCORE.RESTR.norm>
0

>  <SCORE.SYSTEM>
0

>  <SCORE.SYSTEM.CONST>
0

>  <SCORE.SYSTEM.DIHEDRAL>
0

>  <SCORE.SYSTEM.SOLV>
0

>  <SCORE.SYSTEM.norm>
0

>  <SCORE.heavy>
10

>  <SCORE.norm>
-2.37069

>  <RMSD>
1.177

$$$$
ligand
 OpenBabel11021811503D
libRbt.so/2013.1/901 2013/11/27
 10 11  0  0  0  0  0  0  0  0999 V2000
   18.9830   -4.7604    2.4752 N   0  0  0  0  0  0  0  0  0  0  0  0
   17.9452   -5.3323    3.0568 C   0  0  0  0  0  0  0  0  0  0  0  0
   16.9150   -4.5299    3.5587 N   0  0  0  0  0  0  0  0  0  0  0  0
   16.9984   -3.1961    3.4587 C   0  0  0  0  0  0  0  0  0  0  0  0
   18.0502   -2.6250    2.8767 C   0  0  0  0  0  0  0  0  0  0  0  0
   19.0349   -3.3660    2.3740 C   0  0  0  0  0  0  0  0  0  0  0  0
   19.9927   -2.8377    1.8117 O   0  0  0  0  0  0  0  0  0  0  0  0
   17.9076   -1.3068    2.9837 N   0  0  0  0  0  0  0  0  0  0  0  0
   16.7692   -1.0614    3.6248 C   0  0  0  0  0  0  0  0  0  0  0  0
   16.2043   -2.2310    3.9108 N   0  0  0  0  0  0  0  0  0  0  0  0
  1  2  1  0  0  0  0
  1  6  1  0  0  0  0
  2  3  2  0  0  0  0
  3  4  1  0  0  0  0
  4  5  2  0  0  0  0
  4 10  1  0  0  0  0
  5  6  1  0  0  0  0
  5  8  1  0  0  0  0
  6  7  2  0  0  0  0
  8  9  1  0  0  0  0
  9 10  2  0  0  0  0
M  END
>  <CHROM.1>
17.92103210,-3.12098580,2.99006127,0.78364267,-0.50560606,3.11971511

>  <Name>
ligand

>  <RI>
0

>  <Rbt.Current_Directory>
/home/itssahil/PROJECTS/Mol_Feturizer/New_Systems/rnas/4NYD

>  <Rbt.Executable>
rbdock ($Id: //depot/dev/client3/rdock/2013.1/src/exe/rbdock.cxx#4 $)

>  <Rbt.Library>
libRbt.so (2013.1, Build901 2013/11/27)

>  <Rbt.Parameter_File>
/export/apps/rDock/src/rDock_2013.1_src/data/scripts/dock_solv.prm

>  <Rbt.Receptor>
prm/blind_docking_100.prm

>  <SCORE>
-23.7483

>  <SCORE.INTER>
-23.7483

>  <SCORE.INTER.CONST>
1

>  <SCORE.INTER.POLAR>
0

>  <SCORE.INTER.ROT>
0

>  <SCORE.INTER.SOLV>
3.35863

>  <SCORE.INTER.VDW>
-20.5518

>  <SCORE.INTER.norm>
-2.37483

>  <SCORE.INTRA>
0

>  <SCORE.INTRA.DIHEDRAL>
0

>  <SCORE.INTRA.DIHEDRAL.0>
0

>  <SCORE.INTRA.POLAR>
0

>  <SCORE.INTRA.POLAR.0>
0

>  <SCORE.INTRA.REPUL>
0

>  <SCORE.INTRA.REPUL.0>
0

>  <SCORE.INTRA.SOLV>
0

>  <SCORE.INTRA.SOLV.lig_0>
-4.1818

>  <SCORE.INTRA.VDW>
0

>  <SCORE.INTRA.VDW.0>
0

>  <SCORE.INTRA.norm>
0

>  <SCORE.RESTR>
0

>  <SCORE.RESTR.CAVITY>
0

>  <SCORE.RESTR.norm>
0

>  <SCORE.SYSTEM>
0

>  <SCORE.SYSTEM.CONST>
0

>  <SCORE.SYSTEM.DIHEDRAL>
0

>  <SCORE.SYSTEM.SOLV>
0

>  <SCORE.SYSTEM.norm>
0

>  <SCORE.heavy>
10

>  <SCORE.norm>
-2.37483

>  <RMSD>
1.178

$$$$
ligand
 OpenBabel11021811503D
libRbt.so/2013.1/901 2013/11/27
 10 11  0  0  0  0  0  0  0  0999 V2000
   18.9921   -4.7717    2.4781 N   0  0  0  0  0  0  0  0  0  0  0  0
   17.9622   -5.3464    3.0710 C   0  0  0  0  0  0  0  0  0  0  0  0
   16.9228   -4.5485    3.5606 N   0  0  0  0  0  0  0  0  0  0  0  0
   16.9894   -3.2156    3.4378 C   0  0  0  0  0  0  0  0  0  0  0  0
   18.0334   -2.6415    2.8445 C   0  0  0  0  0  0  0  0  0  0  0  0
   19.0265   -3.3787    2.3530 C   0  0  0  0  0  0  0  0  0  0  0  0
   19.9769   -2.8483    1.7803 O   0  0  0  0  0  0  0  0  0  0  0  0
   17.8745   -1.3236    2.9292 N   0  0  0  0  0  0  0  0  0  0  0  0
   16.7339   -1.0814    3.5677 C   0  0  0  0  0  0  0  0  0  0  0  0
   16.1840   -2.2528    3.8746 N   0  0  0  0  0  0  0  0  0  0  0  0
  1  2  1  0  0  0  0
  1  6  1  0  0  0  0
  2  3  2  0  0  0  0
  3  4  1  0  0  0  0
  4  5  2  0  0  0  0
  4 10  1  0  0  0  0
  5  6  1  0  0  0  0
  5  8  1  0  0  0  0
  6  7  2  0  0  0  0
  8  9  1  0  0  0  0
  9 10  2  0  0  0  0
M  END
>  <CHROM.1>
17.91048139,-3.13704491,2.96650971,0.76939332,-0.50660457,3.09571815

>  <Name>
ligand

>  <RI>
0

>  <Rbt.Current_Directory>
/home/itssahil/PROJECTS/Mol_Feturizer/New_Systems/rnas/4NYD

>  <Rbt.Executable>
rbdock ($Id: //depot/dev/client3/rdock/2013.1/src/exe/rbdock.cxx#4 $)

>  <Rbt.Library>
libRbt.so (2013.1, Build901 2013/11/27)

>  <Rbt.Parameter_File>
/export/apps/rDock/src/rDock_2013.1_src/data/scripts/dock_solv.prm

>  <Rbt.Receptor>
prm/blind_docking_60.prm

>  <SCORE>
-23.6986

>  <SCORE.INTER>
-23.6986

>  <SCORE.INTER.CONST>
1

>  <SCORE.INTER.POLAR>
0

>  <SCORE.INTER.ROT>
0

>  <SCORE.INTER.SOLV>
3.31782

>  <SCORE.INTER.VDW>
-20.505

>  <SCORE.INTER.norm>
-2.36986

>  <SCORE.INTRA>
0

>  <SCORE.INTRA.DIHEDRAL>
0

>  <SCORE.INTRA.DIHEDRAL.0>
0

>  <SCORE.INTRA.POLAR>
0

>  <SCORE.INTRA.POLAR.0>
0

>  <SCORE.INTRA.REPUL>
0

>  <SCORE.INTRA.REPUL.0>
0

>  <SCORE.INTRA.SOLV>
0

>  <SCORE.INTRA.SOLV.lig_0>
-4.1818

>  <SCORE.INTRA.VDW>
0

>  <SCORE.INTRA.VDW.0>
0

>  <SCORE.INTRA.norm>
0

>  <SCORE.RESTR>
0

>  <SCORE.RESTR.CAVITY>
0

>  <SCORE.RESTR.norm>
0

>  <SCORE.SYSTEM>
0

>  <SCORE.SYSTEM.CONST>
0

>  <SCORE.SYSTEM.DIHEDRAL>
0

>  <SCORE.SYSTEM.SOLV>
0

>  <SCORE.SYSTEM.norm>
0

>  <SCORE.heavy>
10

>  <SCORE.norm>
-2.36986

>  <RMSD>
1.178

$$$$
ligand
 OpenBabel11021811503D
libRbt.so/2013.1/901 2013/11/27
 10 11  0  0  0  0  0  0  0  0999 V2000
   19.9640   -4.9695    1.9530 N   0  0  0  0  0  0  0  0  0  0  0  0
   19.2075   -5.9670    2.3713 C   0  0  0  0  0  0  0  0  0  0  0  0
   17.9970   -5.6843    3.0131 N   0  0  0  0  0  0  0  0  0  0  0  0
   17.6267   -4.4114    3.2096 C   0  0  0  0  0  0  0  0  0  0  0  0
   18.3967   -3.4098    2.7909 C   0  0  0  0  0  0  0  0  0  0  0  0
   19.5438   -3.6513    2.1607 C   0  0  0  0  0  0  0  0  0  0  0  0
   20.2404   -2.7248    1.7498 O   0  0  0  0  0  0  0  0  0  0  0  0
   17.8296   -2.2714    3.1807 N   0  0  0  0  0  0  0  0  0  0  0  0
   16.7098   -2.5657    3.8337 C   0  0  0  0  0  0  0  0  0  0  0  0
   16.5819   -3.8895    3.8438 N   0  0  0  0  0  0  0  0  0  0  0  0
  1  2  1  0  0  0  0
  1  6  1  0  0  0  0
  2  3  2  0  0  0  0
  3  4  1  0  0  0  0
  4  5  2  0  0  0  0
  4 10  1  0  0  0  0
  5  6  1  0  0  0  0
  5  8  1  0  0  0  0
  6  7  2  0  0  0  0
  8  9  1  0  0  0  0
  9 10  2  0  0  0  0
M  END
>  <CHROM.1>
18.44589196,-3.93238073,2.78991698,0.38938961,-0.51866275,-3.13382697

>  <Name>
ligand

>  <RI>
0

>  <Rbt.Current_Directory>
/home/itssahil/PROJECTS/Mol_Feturizer/New_Systems/rnas/4NYD

>  <Rbt.Executable>
rbdock ($Id: //depot/dev/client3/rdock/2013.1/src/exe/rbdock.cxx#4 $)

>  <Rbt.Library>
libRbt.so (2013.1, Build901 2013/11/27)

>  <Rbt.Parameter_File>
/export/apps/rDock/src/rDock_2013.1_src/data/scripts/dock_solv.prm

>  <Rbt.Receptor>
prm/blind_docking_60.prm

>  <SCORE>
-23.0031

>  <SCORE.INTER>
-23.0031

>  <SCORE.INTER.CONST>
1

>  <SCORE.INTER.POLAR>
0

>  <SCORE.INTER.ROT>
0

>  <SCORE.INTER.SOLV>
3.09251

>  <SCORE.INTER.VDW>
-19.9663

>  <SCORE.INTER.norm>
-2.30031

>  <SCORE.INTRA>
0

>  <SCORE.INTRA.DIHEDRAL>
0

>  <SCORE.INTRA.DIHEDRAL.0>
0

>  <SCORE.INTRA.POLAR>
0

>  <SCORE.INTRA.POLAR.0>
0

>  <SCORE.INTRA.REPUL>
0

>  <SCORE.INTRA.REPUL.0>
0

>  <SCORE.INTRA.SOLV>
0

>  <SCORE.INTRA.SOLV.lig_0>
-4.1818

>  <SCORE.INTRA.VDW>
0

>  <SCORE.INTRA.VDW.0>
0

>  <SCORE.INTRA.norm>
0

>  <SCORE.RESTR>
0

>  <SCORE.RESTR.CAVITY>
0

>  <SCORE.RESTR.norm>
0

>  <SCORE.SYSTEM>
0

>  <SCORE.SYSTEM.CONST>
0

>  <SCORE.SYSTEM.DIHEDRAL>
0

>  <SCORE.SYSTEM.SOLV>
0

>  <SCORE.SYSTEM.norm>
0

>  <SCORE.heavy>
10

>  <SCORE.norm>
-2.30031

>  <RMSD>
1.178

$$$$
ligand
 OpenBabel11021811503D
libRbt.so/2013.1/901 2013/11/27
 10 11  0  0  0  0  0  0  0  0999 V2000
   18.9796   -4.7595    2.4763 N   0  0  0  0  0  0  0  0  0  0  0  0
   17.9383   -5.3291    3.0540 C   0  0  0  0  0  0  0  0  0  0  0  0
   16.9083   -4.5245    3.5525 N   0  0  0  0  0  0  0  0  0  0  0  0
   16.9952   -3.1908    3.4533 C   0  0  0  0  0  0  0  0  0  0  0  0
   18.0505   -2.6220    2.8752 C   0  0  0  0  0  0  0  0  0  0  0  0
   19.0351   -3.3652    2.3758 C   0  0  0  0  0  0  0  0  0  0  0  0
   19.9962   -2.8390    1.8170 O   0  0  0  0  0  0  0  0  0  0  0  0
   17.9105   -1.3035    2.9823 N   0  0  0  0  0  0  0  0  0  0  0  0
   16.7705   -1.0556    3.6193 C   0  0  0  0  0  0  0  0  0  0  0  0
   16.2018   -2.2240    3.9030 N   0  0  0  0  0  0  0  0  0  0  0  0
  1  2  1  0  0  0  0
  1  6  1  0  0  0  0
  2  3  2  0  0  0  0
  3  4  1  0  0  0  0
  4  5  2  0  0  0  0
  4 10  1  0  0  0  0
  5  6  1  0  0  0  0
  5  8  1  0  0  0  0
  6  7  2  0  0  0  0
  8  9  1  0  0  0  0
  9 10  2  0  0  0  0
M  END
>  <CHROM.1>
17.91965337,-3.11771015,2.98796746,0.78645415,-0.50210703,3.12143458

>  <Name>
ligand

>  <RI>
0

>  <Rbt.Current_Directory>
/home/itssahil/PROJECTS/Mol_Feturizer/New_Systems/rnas/4NYD

>  <Rbt.Executable>
rbdock ($Id: //depot/dev/client3/rdock/2013.1/src/exe/rbdock.cxx#4 $)

>  <Rbt.Library>
libRbt.so (2013.1, Build901 2013/11/27)

>  <Rbt.Parameter_File>
/export/apps/rDock/src/rDock_2013.1_src/data/scripts/dock_solv.prm

>  <Rbt.Receptor>
prm/pocket_docking_5.prm

>  <SCORE>
-23.7427

>  <SCORE.INTER>
-23.7427

>  <SCORE.INTER.CONST>
1

>  <SCORE.INTER.POLAR>
0

>  <SCORE.INTER.ROT>
0

>  <SCORE.INTER.SOLV>
3.35595

>  <SCORE.INTER.VDW>
-20.5471

>  <SCORE.INTER.norm>
-2.37427

>  <SCORE.INTRA>
0

>  <SCORE.INTRA.DIHEDRAL>
0

>  <SCORE.INTRA.DIHEDRAL.0>
0

>  <SCORE.INTRA.POLAR>
0

>  <SCORE.INTRA.POLAR.0>
0

>  <SCORE.INTRA.REPUL>
0

>  <SCORE.INTRA.REPUL.0>
0

>  <SCORE.INTRA.SOLV>
0

>  <SCORE.INTRA.SOLV.lig_0>
-4.1818

>  <SCORE.INTRA.VDW>
0

>  <SCORE.INTRA.VDW.0>
0

>  <SCORE.INTRA.norm>
0

>  <SCORE.RESTR>
0

>  <SCORE.RESTR.CAVITY>
0

>  <SCORE.RESTR.norm>
0

>  <SCORE.SYSTEM>
0

>  <SCORE.SYSTEM.CONST>
0

>  <SCORE.SYSTEM.DIHEDRAL>
0

>  <SCORE.SYSTEM.SOLV>
0

>  <SCORE.SYSTEM.norm>
0

>  <SCORE.heavy>
10

>  <SCORE.norm>
-2.37427

>  <RMSD>
1.178

$$$$
ligand
 OpenBabel11021811503D
libRbt.so/2013.1/901 2013/11/27
 10 11  0  0  0  0  0  0  0  0999 V2000
   18.9665   -4.7863    2.4535 N   0  0  0  0  0  0  0  0  0  0  0  0
   17.9417   -5.3439    3.0708 C   0  0  0  0  0  0  0  0  0  0  0  0
   16.9244   -4.5294    3.5793 N   0  0  0  0  0  0  0  0  0  0  0  0
   17.0072   -3.1980    3.4494 C   0  0  0  0  0  0  0  0  0  0  0  0
   18.0461   -2.6412    2.8313 C   0  0  0  0  0  0  0  0  0  0  0  0
   19.0179   -3.3944    2.3217 C   0  0  0  0  0  0  0  0  0  0  0  0
   19.9631   -2.8798    1.7264 O   0  0  0  0  0  0  0  0  0  0  0  0
   17.9076   -1.3208    2.9139 N   0  0  0  0  0  0  0  0  0  0  0  0
   16.7847   -1.0599    3.5757 C   0  0  0  0  0  0  0  0  0  0  0  0
   16.2251   -2.2223    3.8994 N   0  0  0  0  0  0  0  0  0  0  0  0
  1  2  1  0  0  0  0
  1  6  1  0  0  0  0
  2  3  2  0  0  0  0
  3  4  1  0  0  0  0
  4  5  2  0  0  0  0
  4 10  1  0  0  0  0
  5  6  1  0  0  0  0
  5  8  1  0  0  0  0
  6  7  2  0  0  0  0
  8  9  1  0  0  0  0
  9 10  2  0  0  0  0
M  END
>  <CHROM.1>
17.91886649,-3.13447128,2.95808734,0.78457945,-0.52877349,3.09914179

>  <Name>
ligand

>  <RI>
0

>  <Rbt.Current_Directory>
/home/itssahil/PROJECTS/Mol_Feturizer/New_Systems/rnas/4NYD

>  <Rbt.Executable>
rbdock ($Id: //depot/dev/client3/rdock/2013.1/src/exe/rbdock.cxx#4 $)

>  <Rbt.Library>
libRbt.so (2013.1, Build901 2013/11/27)

>  <Rbt.Parameter_File>
/export/apps/rDock/src/rDock_2013.1_src/data/scripts/dock_solv.prm

>  <Rbt.Receptor>
prm/pocket_docking_5.prm

>  <SCORE>
-23.734

>  <SCORE.INTER>
-23.734

>  <SCORE.INTER.CONST>
1

>  <SCORE.INTER.POLAR>
0

>  <SCORE.INTER.ROT>
0

>  <SCORE.INTER.SOLV>
3.33006

>  <SCORE.INTER.VDW>
-20.5327

>  <SCORE.INTER.norm>
-2.3734

>  <SCORE.INTRA>
0

>  <SCORE.INTRA.DIHEDRAL>
0

>  <SCORE.INTRA.DIHEDRAL.0>
0

>  <SCORE.INTRA.POLAR>
0

>  <SCORE.INTRA.POLAR.0>
0

>  <SCORE.INTRA.REPUL>
0

>  <SCORE.INTRA.REPUL.0>
0

>  <SCORE.INTRA.SOLV>
0

>  <SCORE.INTRA.SOLV.lig_0>
-4.1818

>  <SCORE.INTRA.VDW>
0

>  <SCORE.INTRA.VDW.0>
0

>  <SCORE.INTRA.norm>
0

>  <SCORE.RESTR>
0

>  <SCORE.RESTR.CAVITY>
0

>  <SCORE.RESTR.norm>
0

>  <SCORE.SYSTEM>
0

>  <SCORE.SYSTEM.CONST>
0

>  <SCORE.SYSTEM.DIHEDRAL>
0

>  <SCORE.SYSTEM.SOLV>
0

>  <SCORE.SYSTEM.norm>
0

>  <SCORE.heavy>
10

>  <SCORE.norm>
-2.3734

>  <RMSD>
1.178

$$$$
ligand
 OpenBabel11021811503D
libRbt.so/2013.1/901 2013/11/27
 10 11  0  0  0  0  0  0  0  0999 V2000
   18.9749   -4.7637    2.5285 N   0  0  0  0  0  0  0  0  0  0  0  0
   17.9286   -5.3005    3.1280 C   0  0  0  0  0  0  0  0  0  0  0  0
   16.9027   -4.4681    3.5878 N   0  0  0  0  0  0  0  0  0  0  0  0
   16.9985   -3.1407    3.4301 C   0  0  0  0  0  0  0  0  0  0  0  0
   18.0588   -2.6048    2.8302 C   0  0  0  0  0  0  0  0  0  0  0  0
   19.0398   -3.3755    2.3666 C   0  0  0  0  0  0  0  0  0  0  0  0
   20.0055   -2.8807    1.7877 O   0  0  0  0  0  0  0  0  0  0  0  0
   17.9272   -1.2820    2.8785 N   0  0  0  0  0  0  0  0  0  0  0  0
   16.7873   -0.9989    3.5010 C   0  0  0  0  0  0  0  0  0  0  0  0
   16.2104   -2.1499    3.8345 N   0  0  0  0  0  0  0  0  0  0  0  0
  1  2  1  0  0  0  0
  1  6  1  0  0  0  0
  2  3  2  0  0  0  0
  3  4  1  0  0  0  0
  4  5  2  0  0  0  0
  4 10  1  0  0  0  0
  5  6  1  0  0  0  0
  5  8  1  0  0  0  0
  6  7  2  0  0  0  0
  8  9  1  0  0  0  0
  9 10  2  0  0  0  0
M  END
>  <CHROM.1>
17.92451651,-3.09416785,2.96435038,0.79391029,-0.49989813,3.08083544

>  <Name>
ligand

>  <RI>
0

>  <Rbt.Current_Directory>
/home/itssahil/PROJECTS/Mol_Feturizer/New_Systems/rnas/4NYD

>  <Rbt.Executable>
rbdock ($Id: //depot/dev/client3/rdock/2013.1/src/exe/rbdock.cxx#4 $)

>  <Rbt.Library>
libRbt.so (2013.1, Build901 2013/11/27)

>  <Rbt.Parameter_File>
/export/apps/rDock/src/rDock_2013.1_src/data/scripts/dock_solv.prm

>  <Rbt.Receptor>
prm/blind_docking_100.prm

>  <SCORE>
-23.7126

>  <SCORE.INTER>
-23.7126

>  <SCORE.INTER.CONST>
1

>  <SCORE.INTER.POLAR>
0

>  <SCORE.INTER.ROT>
0

>  <SCORE.INTER.SOLV>
3.29659

>  <SCORE.INTER.VDW>
-20.5072

>  <SCORE.INTER.norm>
-2.37126

>  <SCORE.INTRA>
0

>  <SCORE.INTRA.DIHEDRAL>
0

>  <SCORE.INTRA.DIHEDRAL.0>
0

>  <SCORE.INTRA.POLAR>
0

>  <SCORE.INTRA.POLAR.0>
0

>  <SCORE.INTRA.REPUL>
0

>  <SCORE.INTRA.REPUL.0>
0

>  <SCORE.INTRA.SOLV>
0

>  <SCORE.INTRA.SOLV.lig_0>
-4.1818

>  <SCORE.INTRA.VDW>
0

>  <SCORE.INTRA.VDW.0>
0

>  <SCORE.INTRA.norm>
0

>  <SCORE.RESTR>
0

>  <SCORE.RESTR.CAVITY>
0

>  <SCORE.RESTR.norm>
0

>  <SCORE.SYSTEM>
0

>  <SCORE.SYSTEM.CONST>
0

>  <SCORE.SYSTEM.DIHEDRAL>
0

>  <SCORE.SYSTEM.SOLV>
0

>  <SCORE.SYSTEM.norm>
0

>  <SCORE.heavy>
10

>  <SCORE.norm>
-2.37126

>  <RMSD>
1.179

$$$$
ligand
 OpenBabel11021811503D
libRbt.so/2013.1/901 2013/11/27
 10 11  0  0  0  0  0  0  0  0999 V2000
   18.9773   -4.7594    2.5218 N   0  0  0  0  0  0  0  0  0  0  0  0
   17.9352   -5.3010    3.1243 C   0  0  0  0  0  0  0  0  0  0  0  0
   16.9083   -4.4730    3.5899 N   0  0  0  0  0  0  0  0  0  0  0  0
   16.9990   -3.1450    3.4347 C   0  0  0  0  0  0  0  0  0  0  0  0
   18.0552   -2.6042    2.8317 C   0  0  0  0  0  0  0  0  0  0  0  0
   19.0369   -3.3707    2.3626 C   0  0  0  0  0  0  0  0  0  0  0  0
   19.9987   -2.8714    1.7810 O   0  0  0  0  0  0  0  0  0  0  0  0
   17.9194   -1.2820    2.8835 N   0  0  0  0  0  0  0  0  0  0  0  0
   16.7810   -1.0040    3.5111 C   0  0  0  0  0  0  0  0  0  0  0  0
   16.2093   -2.1577    3.8444 N   0  0  0  0  0  0  0  0  0  0  0  0
  1  2  1  0  0  0  0
  1  6  1  0  0  0  0
  2  3  2  0  0  0  0
  3  4  1  0  0  0  0
  4  5  2  0  0  0  0
  4 10  1  0  0  0  0
  5  6  1  0  0  0  0
  5  8  1  0  0  0  0
  6  7  2  0  0  0  0
  8  9  1  0  0  0  0
  9 10  2  0  0  0  0
M  END
>  <CHROM.1>
17.92306886,-3.09435403,2.96539471,0.78985133,-0.50365771,3.08103177

>  <Name>
ligand

>  <RI>
0

>  <Rbt.Current_Directory>
/home/itssahil/PROJECTS/Mol_Feturizer/New_Systems/rnas/4NYD

>  <Rbt.Executable>
rbdock ($Id: //depot/dev/client3/rdock/2013.1/src/exe/rbdock.cxx#4 $)

>  <Rbt.Library>
libRbt.so (2013.1, Build901 2013/11/27)

>  <Rbt.Parameter_File>
/export/apps/rDock/src/rDock_2013.1_src/data/scripts/dock_solv.prm

>  <Rbt.Receptor>
prm/pocket_docking_3.prm

>  <SCORE>
-23.7159

>  <SCORE.INTER>
-23.7159

>  <SCORE.INTER.CONST>
1

>  <SCORE.INTER.POLAR>
0

>  <SCORE.INTER.ROT>
0

>  <SCORE.INTER.SOLV>
3.3011

>  <SCORE.INTER.VDW>
-20.511

>  <SCORE.INTER.norm>
-2.37159

>  <SCORE.INTRA>
0

>  <SCORE.INTRA.DIHEDRAL>
0

>  <SCORE.INTRA.DIHEDRAL.0>
0

>  <SCORE.INTRA.POLAR>
0

>  <SCORE.INTRA.POLAR.0>
0

>  <SCORE.INTRA.REPUL>
0

>  <SCORE.INTRA.REPUL.0>
0

>  <SCORE.INTRA.SOLV>
0

>  <SCORE.INTRA.SOLV.lig_0>
-4.1818

>  <SCORE.INTRA.VDW>
0

>  <SCORE.INTRA.VDW.0>
0

>  <SCORE.INTRA.norm>
0

>  <SCORE.RESTR>
0

>  <SCORE.RESTR.CAVITY>
0

>  <SCORE.RESTR.norm>
0

>  <SCORE.SYSTEM>
0

>  <SCORE.SYSTEM.CONST>
0

>  <SCORE.SYSTEM.DIHEDRAL>
0

>  <SCORE.SYSTEM.SOLV>
0

>  <SCORE.SYSTEM.norm>
0

>  <SCORE.heavy>
10

>  <SCORE.norm>
-2.37159

>  <RMSD>
1.179

$$$$
ligand
 OpenBabel11021811503D
libRbt.so/2013.1/901 2013/11/27
 10 11  0  0  0  0  0  0  0  0999 V2000
   18.9754   -4.7672    2.4653 N   0  0  0  0  0  0  0  0  0  0  0  0
   17.9431   -5.3351    3.0604 C   0  0  0  0  0  0  0  0  0  0  0  0
   16.9185   -4.5293    3.5680 N   0  0  0  0  0  0  0  0  0  0  0  0
   17.0016   -3.1961    3.4598 C   0  0  0  0  0  0  0  0  0  0  0  0
   18.0480   -2.6289    2.8642 C   0  0  0  0  0  0  0  0  0  0  0  0
   19.0271   -3.3733    2.3558 C   0  0  0  0  0  0  0  0  0  0  0  0
   19.9796   -2.8488    1.7810 O   0  0  0  0  0  0  0  0  0  0  0  0
   17.9071   -1.3101    2.9653 N   0  0  0  0  0  0  0  0  0  0  0  0
   16.7753   -1.0604    3.6163 C   0  0  0  0  0  0  0  0  0  0  0  0
   16.2126   -2.2280    3.9145 N   0  0  0  0  0  0  0  0  0  0  0  0
  1  2  1  0  0  0  0
  1  6  1  0  0  0  0
  2  3  2  0  0  0  0
  3  4  1  0  0  0  0
  4  5  2  0  0  0  0
  4 10  1  0  0  0  0
  5  6  1  0  0  0  0
  5  8  1  0  0  0  0
  6  7  2  0  0  0  0
  8  9  1  0  0  0  0
  9 10  2  0  0  0  0
M  END
>  <CHROM.1>
17.91959235,-3.12419903,2.98157618,0.78407144,-0.51558846,3.11436595

>  <Name>
ligand

>  <RI>
0

>  <Rbt.Current_Directory>
/home/itssahil/PROJECTS/Mol_Feturizer/New_Systems/rnas/4NYD

>  <Rbt.Executable>
rbdock ($Id: //depot/dev/client3/rdock/2013.1/src/exe/rbdock.cxx#4 $)

>  <Rbt.Library>
libRbt.so (2013.1, Build901 2013/11/27)

>  <Rbt.Parameter_File>
/export/apps/rDock/src/rDock_2013.1_src/data/scripts/dock_solv.prm

>  <Rbt.Receptor>
prm/pocket_docking_4.prm

>  <SCORE>
-23.7601

>  <SCORE.INTER>
-23.7601

>  <SCORE.INTER.CONST>
1

>  <SCORE.INTER.POLAR>
0

>  <SCORE.INTER.ROT>
0

>  <SCORE.INTER.SOLV>
3.35402

>  <SCORE.INTER.VDW>
-20.5581

>  <SCORE.INTER.norm>
-2.37601

>  <SCORE.INTRA>
0

>  <SCORE.INTRA.DIHEDRAL>
0

>  <SCORE.INTRA.DIHEDRAL.0>
0

>  <SCORE.INTRA.POLAR>
0

>  <SCORE.INTRA.POLAR.0>
0

>  <SCORE.INTRA.REPUL>
0

>  <SCORE.INTRA.REPUL.0>
0

>  <SCORE.INTRA.SOLV>
0

>  <SCORE.INTRA.SOLV.lig_0>
-4.1818

>  <SCORE.INTRA.VDW>
0

>  <SCORE.INTRA.VDW.0>
0

>  <SCORE.INTRA.norm>
0

>  <SCORE.RESTR>
0

>  <SCORE.RESTR.CAVITY>
0

>  <SCORE.RESTR.norm>
0

>  <SCORE.SYSTEM>
0

>  <SCORE.SYSTEM.CONST>
0

>  <SCORE.SYSTEM.DIHEDRAL>
0

>  <SCORE.SYSTEM.SOLV>
0

>  <SCORE.SYSTEM.norm>
0

>  <SCORE.heavy>
10

>  <SCORE.norm>
-2.37601

>  <RMSD>
1.179

$$$$
ligand
 OpenBabel11021811503D
libRbt.so/2013.1/901 2013/11/27
 10 11  0  0  0  0  0  0  0  0999 V2000
   18.9905   -4.7482    2.5455 N   0  0  0  0  0  0  0  0  0  0  0  0
   17.9439   -5.2944    3.1361 C   0  0  0  0  0  0  0  0  0  0  0  0
   16.9086   -4.4708    3.5909 N   0  0  0  0  0  0  0  0  0  0  0  0
   16.9958   -3.1423    3.4374 C   0  0  0  0  0  0  0  0  0  0  0  0
   18.0564   -2.5969    2.8466 C   0  0  0  0  0  0  0  0  0  0  0  0
   19.0462   -3.3592    2.3879 C   0  0  0  0  0  0  0  0  0  0  0  0
   20.0124   -2.8557    1.8172 O   0  0  0  0  0  0  0  0  0  0  0  0
   17.9147   -1.2753    2.8976 N   0  0  0  0  0  0  0  0  0  0  0  0
   16.7683   -1.0023    3.5127 C   0  0  0  0  0  0  0  0  0  0  0  0
   16.1975   -2.1585    3.8390 N   0  0  0  0  0  0  0  0  0  0  0  0
  1  2  1  0  0  0  0
  1  6  1  0  0  0  0
  2  3  2  0  0  0  0
  3  4  1  0  0  0  0
  4  5  2  0  0  0  0
  4 10  1  0  0  0  0
  5  6  1  0  0  0  0
  5  8  1  0  0  0  0
  6  7  2  0  0  0  0
  8  9  1  0  0  0  0
  9 10  2  0  0  0  0
M  END
>  <CHROM.1>
17.92472781,-3.08767493,2.97846290,0.78606908,-0.49234959,3.07984776

>  <Name>
ligand

>  <RI>
0

>  <Rbt.Current_Directory>
/home/itssahil/PROJECTS/Mol_Feturizer/New_Systems/rnas/4NYD

>  <Rbt.Executable>
rbdock ($Id: //depot/dev/client3/rdock/2013.1/src/exe/rbdock.cxx#4 $)

>  <Rbt.Library>
libRbt.so (2013.1, Build901 2013/11/27)

>  <Rbt.Parameter_File>
/export/apps/rDock/src/rDock_2013.1_src/data/scripts/dock_solv.prm

>  <Rbt.Receptor>
prm/pocket_docking_5.prm

>  <SCORE>
-23.7097

>  <SCORE.INTER>
-23.7097

>  <SCORE.INTER.CONST>
1

>  <SCORE.INTER.POLAR>
0

>  <SCORE.INTER.ROT>
0

>  <SCORE.INTER.SOLV>
3.30536

>  <SCORE.INTER.VDW>
-20.5082

>  <SCORE.INTER.norm>
-2.37097

>  <SCORE.INTRA>
0

>  <SCORE.INTRA.DIHEDRAL>
0

>  <SCORE.INTRA.DIHEDRAL.0>
0

>  <SCORE.INTRA.POLAR>
0

>  <SCORE.INTRA.POLAR.0>
0

>  <SCORE.INTRA.REPUL>
0

>  <SCORE.INTRA.REPUL.0>
0

>  <SCORE.INTRA.SOLV>
0

>  <SCORE.INTRA.SOLV.lig_0>
-4.1818

>  <SCORE.INTRA.VDW>
0

>  <SCORE.INTRA.VDW.0>
0

>  <SCORE.INTRA.norm>
0

>  <SCORE.RESTR>
0

>  <SCORE.RESTR.CAVITY>
0

>  <SCORE.RESTR.norm>
0

>  <SCORE.SYSTEM>
0

>  <SCORE.SYSTEM.CONST>
0

>  <SCORE.SYSTEM.DIHEDRAL>
0

>  <SCORE.SYSTEM.SOLV>
0

>  <SCORE.SYSTEM.norm>
0

>  <SCORE.heavy>
10

>  <SCORE.norm>
-2.37097

>  <RMSD>
1.179

$$$$
ligand
 OpenBabel11021811503D
libRbt.so/2013.1/901 2013/11/27
 10 11  0  0  0  0  0  0  0  0999 V2000
   18.9755   -4.7543    2.5323 N   0  0  0  0  0  0  0  0  0  0  0  0
   17.9136   -5.2975    3.0975 C   0  0  0  0  0  0  0  0  0  0  0  0
   16.8817   -4.4692    3.5512 N   0  0  0  0  0  0  0  0  0  0  0  0
   16.9873   -3.1393    3.4225 C   0  0  0  0  0  0  0  0  0  0  0  0
   18.0633   -2.5970    2.8571 C   0  0  0  0  0  0  0  0  0  0  0  0
   19.0506   -3.3635    2.3999 C   0  0  0  0  0  0  0  0  0  0  0  0
   20.0313   -2.8622    1.8526 O   0  0  0  0  0  0  0  0  0  0  0  0
   17.9370   -1.2748    2.9292 N   0  0  0  0  0  0  0  0  0  0  0  0
   16.7849   -0.9983    3.5319 C   0  0  0  0  0  0  0  0  0  0  0  0
   16.1951   -2.1528    3.8292 N   0  0  0  0  0  0  0  0  0  0  0  0
  1  2  1  0  0  0  0
  1  6  1  0  0  0  0
  2  3  2  0  0  0  0
  3  4  1  0  0  0  0
  4  5  2  0  0  0  0
  4 10  1  0  0  0  0
  5  6  1  0  0  0  0
  5  8  1  0  0  0  0
  6  7  2  0  0  0  0
  8  9  1  0  0  0  0
  9 10  2  0  0  0  0
M  END
>  <CHROM.1>
17.92367654,-3.08833438,2.97838986,0.80082240,-0.47797331,3.10420624

>  <Name>
ligand

>  <RI>
0

>  <Rbt.Current_Directory>
/home/itssahil/PROJECTS/Mol_Feturizer/New_Systems/rnas/4NYD

>  <Rbt.Executable>
rbdock ($Id: //depot/dev/client3/rdock/2013.1/src/exe/rbdock.cxx#4 $)

>  <Rbt.Library>
libRbt.so (2013.1, Build901 2013/11/27)

>  <Rbt.Parameter_File>
/export/apps/rDock/src/rDock_2013.1_src/data/scripts/dock_solv.prm

>  <Rbt.Receptor>
prm/pocket_docking_6.prm

>  <SCORE>
-23.698

>  <SCORE.INTER>
-23.698

>  <SCORE.INTER.CONST>
1

>  <SCORE.INTER.POLAR>
0

>  <SCORE.INTER.ROT>
0

>  <SCORE.INTER.SOLV>
3.31877

>  <SCORE.INTER.VDW>
-20.5049

>  <SCORE.INTER.norm>
-2.3698

>  <SCORE.INTRA>
0

>  <SCORE.INTRA.DIHEDRAL>
0

>  <SCORE.INTRA.DIHEDRAL.0>
0

>  <SCORE.INTRA.POLAR>
0

>  <SCORE.INTRA.POLAR.0>
0

>  <SCORE.INTRA.REPUL>
0

>  <SCORE.INTRA.REPUL.0>
0

>  <SCORE.INTRA.SOLV>
0

>  <SCORE.INTRA.SOLV.lig_0>
-4.1818

>  <SCORE.INTRA.VDW>
0

>  <SCORE.INTRA.VDW.0>
0

>  <SCORE.INTRA.norm>
0

>  <SCORE.RESTR>
0

>  <SCORE.RESTR.CAVITY>
0

>  <SCORE.RESTR.norm>
0

>  <SCORE.SYSTEM>
0

>  <SCORE.SYSTEM.CONST>
0

>  <SCORE.SYSTEM.DIHEDRAL>
0

>  <SCORE.SYSTEM.SOLV>
0

>  <SCORE.SYSTEM.norm>
0

>  <SCORE.heavy>
10

>  <SCORE.norm>
-2.3698

>  <RMSD>
1.179

$$$$
ligand
 OpenBabel11021811503D
libRbt.so/2013.1/901 2013/11/27
 10 11  0  0  0  0  0  0  0  0999 V2000
   18.9642   -4.7672    2.5458 N   0  0  0  0  0  0  0  0  0  0  0  0
   17.8991   -5.2905    3.1238 C   0  0  0  0  0  0  0  0  0  0  0  0
   16.8753   -4.4448    3.5636 N   0  0  0  0  0  0  0  0  0  0  0  0
   16.9918   -3.1187    3.4090 C   0  0  0  0  0  0  0  0  0  0  0  0
   18.0709   -2.5965    2.8309 C   0  0  0  0  0  0  0  0  0  0  0  0
   19.0507   -3.3800    2.3864 C   0  0  0  0  0  0  0  0  0  0  0  0
   20.0343   -2.8977    1.8274 O   0  0  0  0  0  0  0  0  0  0  0  0
   17.9559   -1.2722    2.8777 N   0  0  0  0  0  0  0  0  0  0  0  0
   16.8076   -0.9743    3.4775 C   0  0  0  0  0  0  0  0  0  0  0  0
   16.2089   -2.1178    3.7984 N   0  0  0  0  0  0  0  0  0  0  0  0
  1  2  1  0  0  0  0
  1  6  1  0  0  0  0
  2  3  2  0  0  0  0
  3  4  1  0  0  0  0
  4  5  2  0  0  0  0
  4 10  1  0  0  0  0
  5  6  1  0  0  0  0
  5  8  1  0  0  0  0
  6  7  2  0  0  0  0
  8  9  1  0  0  0  0
  9 10  2  0  0  0  0
M  END
>  <CHROM.1>
17.92751913,-3.08418107,2.96196054,0.81019879,-0.48064391,3.08921239

>  <Name>
ligand

>  <RI>
0

>  <Rbt.Current_Directory>
/home/itssahil/PROJECTS/Mol_Feturizer/New_Systems/rnas/4NYD

>  <Rbt.Executable>
rbdock ($Id: //depot/dev/client3/rdock/2013.1/src/exe/rbdock.cxx#4 $)

>  <Rbt.Library>
libRbt.so (2013.1, Build901 2013/11/27)

>  <Rbt.Parameter_File>
/export/apps/rDock/src/rDock_2013.1_src/data/scripts/dock_solv.prm

>  <Rbt.Receptor>
prm/pocket_docking_8.prm

>  <SCORE>
-23.7176

>  <SCORE.INTER>
-23.7176

>  <SCORE.INTER.CONST>
1

>  <SCORE.INTER.POLAR>
0

>  <SCORE.INTER.ROT>
0

>  <SCORE.INTER.SOLV>
3.28957

>  <SCORE.INTER.VDW>
-20.5083

>  <SCORE.INTER.norm>
-2.37176

>  <SCORE.INTRA>
0

>  <SCORE.INTRA.DIHEDRAL>
0

>  <SCORE.INTRA.DIHEDRAL.0>
0

>  <SCORE.INTRA.POLAR>
0

>  <SCORE.INTRA.POLAR.0>
0

>  <SCORE.INTRA.REPUL>
0

>  <SCORE.INTRA.REPUL.0>
0

>  <SCORE.INTRA.SOLV>
0

>  <SCORE.INTRA.SOLV.lig_0>
-4.1818

>  <SCORE.INTRA.VDW>
0

>  <SCORE.INTRA.VDW.0>
0

>  <SCORE.INTRA.norm>
0

>  <SCORE.RESTR>
0

>  <SCORE.RESTR.CAVITY>
0

>  <SCORE.RESTR.norm>
0

>  <SCORE.SYSTEM>
0

>  <SCORE.SYSTEM.CONST>
0

>  <SCORE.SYSTEM.DIHEDRAL>
0

>  <SCORE.SYSTEM.SOLV>
0

>  <SCORE.SYSTEM.norm>
0

>  <SCORE.heavy>
10

>  <SCORE.norm>
-2.37176

>  <RMSD>
1.179

$$$$
ligand
 OpenBabel11021811503D
libRbt.so/2013.1/901 2013/11/27
 10 11  0  0  0  0  0  0  0  0999 V2000
   18.9682   -4.7674    2.5667 N   0  0  0  0  0  0  0  0  0  0  0  0
   17.8986   -5.2867    3.1400 C   0  0  0  0  0  0  0  0  0  0  0  0
   16.8728   -4.4377    3.5688 N   0  0  0  0  0  0  0  0  0  0  0  0
   16.9919   -3.1124    3.4086 C   0  0  0  0  0  0  0  0  0  0  0  0
   18.0756   -2.5943    2.8354 C   0  0  0  0  0  0  0  0  0  0  0  0
   19.0574   -3.3810    2.4013 C   0  0  0  0  0  0  0  0  0  0  0  0
   20.0453   -2.9025    1.8466 O   0  0  0  0  0  0  0  0  0  0  0  0
   17.9618   -1.2696    2.8750 N   0  0  0  0  0  0  0  0  0  0  0  0
   16.8098   -0.9676    3.4656 C   0  0  0  0  0  0  0  0  0  0  0  0
   16.2076   -2.1088    3.7879 N   0  0  0  0  0  0  0  0  0  0  0  0
  1  2  1  0  0  0  0
  1  6  1  0  0  0  0
  2  3  2  0  0  0  0
  3  4  1  0  0  0  0
  4  5  2  0  0  0  0
  4 10  1  0  0  0  0
  5  6  1  0  0  0  0
  5  8  1  0  0  0  0
  6  7  2  0  0  0  0
  8  9  1  0  0  0  0
  9 10  2  0  0  0  0
M  END
>  <CHROM.1>
17.93068333,-3.08116428,2.96776416,0.81192528,-0.47394005,3.08521177

>  <Name>
ligand

>  <RI>
0

>  <Rbt.Current_Directory>
/home/itssahil/PROJECTS/Mol_Feturizer/New_Systems/rnas/4NYD

>  <Rbt.Executable>
rbdock ($Id: //depot/dev/client3/rdock/2013.1/src/exe/rbdock.cxx#4 $)

>  <Rbt.Library>
libRbt.so (2013.1, Build901 2013/11/27)

>  <Rbt.Parameter_File>
/export/apps/rDock/src/rDock_2013.1_src/data/scripts/dock_solv.prm

>  <Rbt.Receptor>
prm/blind_docking_100.prm

>  <SCORE>
-23.7136

>  <SCORE.INTER>
-23.7136

>  <SCORE.INTER.CONST>
1

>  <SCORE.INTER.POLAR>
0

>  <SCORE.INTER.ROT>
0

>  <SCORE.INTER.SOLV>
3.28835

>  <SCORE.INTER.VDW>
-20.5052

>  <SCORE.INTER.norm>
-2.37136

>  <SCORE.INTRA>
0

>  <SCORE.INTRA.DIHEDRAL>
0

>  <SCORE.INTRA.DIHEDRAL.0>
0

>  <SCORE.INTRA.POLAR>
0

>  <SCORE.INTRA.POLAR.0>
0

>  <SCORE.INTRA.REPUL>
0

>  <SCORE.INTRA.REPUL.0>
0

>  <SCORE.INTRA.SOLV>
0

>  <SCORE.INTRA.SOLV.lig_0>
-4.1818

>  <SCORE.INTRA.VDW>
0

>  <SCORE.INTRA.VDW.0>
0

>  <SCORE.INTRA.norm>
0

>  <SCORE.RESTR>
0

>  <SCORE.RESTR.CAVITY>
0

>  <SCORE.RESTR.norm>
0

>  <SCORE.SYSTEM>
0

>  <SCORE.SYSTEM.CONST>
0

>  <SCORE.SYSTEM.DIHEDRAL>
0

>  <SCORE.SYSTEM.SOLV>
0

>  <SCORE.SYSTEM.norm>
0

>  <SCORE.heavy>
10

>  <SCORE.norm>
-2.37136

>  <RMSD>
1.180

$$$$
ligand
 OpenBabel11021811503D
libRbt.so/2013.1/901 2013/11/27
 10 11  0  0  0  0  0  0  0  0999 V2000
   18.9631   -4.7726    2.5514 N   0  0  0  0  0  0  0  0  0  0  0  0
   17.8969   -5.2925    3.1304 C   0  0  0  0  0  0  0  0  0  0  0  0
   16.8737   -4.4439    3.5662 N   0  0  0  0  0  0  0  0  0  0  0  0
   16.9920   -3.1185    3.4068 C   0  0  0  0  0  0  0  0  0  0  0  0
   18.0722   -2.5998    2.8278 C   0  0  0  0  0  0  0  0  0  0  0  0
   19.0514   -3.3860    2.3870 C   0  0  0  0  0  0  0  0  0  0  0  0
   20.0361   -2.9070    1.8271 O   0  0  0  0  0  0  0  0  0  0  0  0
   17.9588   -1.2751    2.8697 N   0  0  0  0  0  0  0  0  0  0  0  0
   16.8104   -0.9737    3.4674 C   0  0  0  0  0  0  0  0  0  0  0  0
   16.2100   -2.1152    3.7919 N   0  0  0  0  0  0  0  0  0  0  0  0
  1  2  1  0  0  0  0
  1  6  1  0  0  0  0
  2  3  2  0  0  0  0
  3  4  1  0  0  0  0
  4  5  2  0  0  0  0
  4 10  1  0  0  0  0
  5  6  1  0  0  0  0
  5  8  1  0  0  0  0
  6  7  2  0  0  0  0
  8  9  1  0  0  0  0
  9 10  2  0  0  0  0
M  END
>  <CHROM.1>
17.92811448,-3.08677370,2.96049454,0.81162154,-0.47983812,3.08621709

>  <Name>
ligand

>  <RI>
0

>  <Rbt.Current_Directory>
/home/itssahil/PROJECTS/Mol_Feturizer/New_Systems/rnas/4NYD

>  <Rbt.Executable>
rbdock ($Id: //depot/dev/client3/rdock/2013.1/src/exe/rbdock.cxx#4 $)

>  <Rbt.Library>
libRbt.so (2013.1, Build901 2013/11/27)

>  <Rbt.Parameter_File>
/export/apps/rDock/src/rDock_2013.1_src/data/scripts/dock_solv.prm

>  <Rbt.Receptor>
prm/blind_docking_40.prm

>  <SCORE>
-23.7149

>  <SCORE.INTER>
-23.7149

>  <SCORE.INTER.CONST>
1

>  <SCORE.INTER.POLAR>
0

>  <SCORE.INTER.ROT>
0

>  <SCORE.INTER.SOLV>
3.2844

>  <SCORE.INTER.VDW>
-20.5048

>  <SCORE.INTER.norm>
-2.37149

>  <SCORE.INTRA>
0

>  <SCORE.INTRA.DIHEDRAL>
0

>  <SCORE.INTRA.DIHEDRAL.0>
0

>  <SCORE.INTRA.POLAR>
0

>  <SCORE.INTRA.POLAR.0>
0

>  <SCORE.INTRA.REPUL>
0

>  <SCORE.INTRA.REPUL.0>
0

>  <SCORE.INTRA.SOLV>
0

>  <SCORE.INTRA.SOLV.lig_0>
-4.1818

>  <SCORE.INTRA.VDW>
0

>  <SCORE.INTRA.VDW.0>
0

>  <SCORE.INTRA.norm>
0

>  <SCORE.RESTR>
0

>  <SCORE.RESTR.CAVITY>
0

>  <SCORE.RESTR.norm>
0

>  <SCORE.SYSTEM>
0

>  <SCORE.SYSTEM.CONST>
0

>  <SCORE.SYSTEM.DIHEDRAL>
0

>  <SCORE.SYSTEM.SOLV>
0

>  <SCORE.SYSTEM.norm>
0

>  <SCORE.heavy>
10

>  <SCORE.norm>
-2.37149

>  <RMSD>
1.180

$$$$
ligand
 OpenBabel11021811503D
libRbt.so/2013.1/901 2013/11/27
 10 11  0  0  0  0  0  0  0  0999 V2000
   18.9810   -4.7522    2.5297 N   0  0  0  0  0  0  0  0  0  0  0  0
   17.9378   -5.2963    3.1280 C   0  0  0  0  0  0  0  0  0  0  0  0
   16.9076   -4.4707    3.5905 N   0  0  0  0  0  0  0  0  0  0  0  0
   16.9963   -3.1423    3.4366 C   0  0  0  0  0  0  0  0  0  0  0  0
   18.0536   -2.5990    2.8380 C   0  0  0  0  0  0  0  0  0  0  0  0
   19.0385   -3.3633    2.3719 C   0  0  0  0  0  0  0  0  0  0  0  0
   20.0015   -2.8617    1.7941 O   0  0  0  0  0  0  0  0  0  0  0  0
   17.9151   -1.2771    2.8902 N   0  0  0  0  0  0  0  0  0  0  0  0
   16.7739   -1.0018    3.5138 C   0  0  0  0  0  0  0  0  0  0  0  0
   16.2031   -2.1569    3.8442 N   0  0  0  0  0  0  0  0  0  0  0  0
  1  2  1  0  0  0  0
  1  6  1  0  0  0  0
  2  3  2  0  0  0  0
  3  4  1  0  0  0  0
  4  5  2  0  0  0  0
  4 10  1  0  0  0  0
  5  6  1  0  0  0  0
  5  8  1  0  0  0  0
  6  7  2  0  0  0  0
  8  9  1  0  0  0  0
  9 10  2  0  0  0  0
M  END
>  <CHROM.1>
17.92197695,-3.08953183,2.97075952,0.78790457,-0.49988179,3.08085795

>  <Name>
ligand

>  <RI>
0

>  <Rbt.Current_Directory>
/home/itssahil/PROJECTS/Mol_Feturizer/New_Systems/rnas/4NYD

>  <Rbt.Executable>
rbdock ($Id: //depot/dev/client3/rdock/2013.1/src/exe/rbdock.cxx#4 $)

>  <Rbt.Library>
libRbt.so (2013.1, Build901 2013/11/27)

>  <Rbt.Parameter_File>
/export/apps/rDock/src/rDock_2013.1_src/data/scripts/dock_solv.prm

>  <Rbt.Receptor>
prm/pocket_docking_3.prm

>  <SCORE>
-23.716

>  <SCORE.INTER>
-23.716

>  <SCORE.INTER.CONST>
1

>  <SCORE.INTER.POLAR>
0

>  <SCORE.INTER.ROT>
0

>  <SCORE.INTER.SOLV>
3.30381

>  <SCORE.INTER.VDW>
-20.512

>  <SCORE.INTER.norm>
-2.3716

>  <SCORE.INTRA>
0

>  <SCORE.INTRA.DIHEDRAL>
0

>  <SCORE.INTRA.DIHEDRAL.0>
0

>  <SCORE.INTRA.POLAR>
0

>  <SCORE.INTRA.POLAR.0>
0

>  <SCORE.INTRA.REPUL>
0

>  <SCORE.INTRA.REPUL.0>
0

>  <SCORE.INTRA.SOLV>
0

>  <SCORE.INTRA.SOLV.lig_0>
-4.1818

>  <SCORE.INTRA.VDW>
0

>  <SCORE.INTRA.VDW.0>
0

>  <SCORE.INTRA.norm>
0

>  <SCORE.RESTR>
0

>  <SCORE.RESTR.CAVITY>
0

>  <SCORE.RESTR.norm>
0

>  <SCORE.SYSTEM>
0

>  <SCORE.SYSTEM.CONST>
0

>  <SCORE.SYSTEM.DIHEDRAL>
0

>  <SCORE.SYSTEM.SOLV>
0

>  <SCORE.SYSTEM.norm>
0

>  <SCORE.heavy>
10

>  <SCORE.norm>
-2.3716

>  <RMSD>
1.180

$$$$
ligand
 OpenBabel11021811503D
libRbt.so/2013.1/901 2013/11/27
 10 11  0  0  0  0  0  0  0  0999 V2000
   18.9602   -4.7565    2.4995 N   0  0  0  0  0  0  0  0  0  0  0  0
   17.9165   -5.2952    3.1019 C   0  0  0  0  0  0  0  0  0  0  0  0
   16.9010   -4.4628    3.5844 N   0  0  0  0  0  0  0  0  0  0  0  0
   17.0041   -3.1339    3.4452 C   0  0  0  0  0  0  0  0  0  0  0  0
   18.0618   -2.5962    2.8423 C   0  0  0  0  0  0  0  0  0  0  0  0
   19.0328   -3.3666    2.3573 C   0  0  0  0  0  0  0  0  0  0  0  0
   19.9959   -2.8697    1.7758 O   0  0  0  0  0  0  0  0  0  0  0  0
   17.9398   -1.2735    2.9114 N   0  0  0  0  0  0  0  0  0  0  0  0
   16.8082   -0.9920    3.5497 C   0  0  0  0  0  0  0  0  0  0  0  0
   16.2269   -2.1440    3.8723 N   0  0  0  0  0  0  0  0  0  0  0  0
  1  2  1  0  0  0  0
  1  6  1  0  0  0  0
  2  3  2  0  0  0  0
  3  4  1  0  0  0  0
  4  5  2  0  0  0  0
  4 10  1  0  0  0  0
  5  6  1  0  0  0  0
  5  8  1  0  0  0  0
  6  7  2  0  0  0  0
  8  9  1  0  0  0  0
  9 10  2  0  0  0  0
M  END
>  <CHROM.1>
17.92563177,-3.08664516,2.97066053,0.80096736,-0.51054294,3.09894748

>  <Name>
ligand

>  <RI>
0

>  <Rbt.Current_Directory>
/home/itssahil/PROJECTS/Mol_Feturizer/New_Systems/rnas/4NYD

>  <Rbt.Executable>
rbdock ($Id: //depot/dev/client3/rdock/2013.1/src/exe/rbdock.cxx#4 $)

>  <Rbt.Library>
libRbt.so (2013.1, Build901 2013/11/27)

>  <Rbt.Parameter_File>
/export/apps/rDock/src/rDock_2013.1_src/data/scripts/dock_solv.prm

>  <Rbt.Receptor>
prm/pocket_docking_5.prm

>  <SCORE>
-23.6768

>  <SCORE.INTER>
-23.6768

>  <SCORE.INTER.CONST>
1

>  <SCORE.INTER.POLAR>
0

>  <SCORE.INTER.ROT>
0

>  <SCORE.INTER.SOLV>
3.33085

>  <SCORE.INTER.VDW>
-20.4948

>  <SCORE.INTER.norm>
-2.36768

>  <SCORE.INTRA>
0

>  <SCORE.INTRA.DIHEDRAL>
0

>  <SCORE.INTRA.DIHEDRAL.0>
0

>  <SCORE.INTRA.POLAR>
0

>  <SCORE.INTRA.POLAR.0>
0

>  <SCORE.INTRA.REPUL>
0

>  <SCORE.INTRA.REPUL.0>
0

>  <SCORE.INTRA.SOLV>
0

>  <SCORE.INTRA.SOLV.lig_0>
-4.1818

>  <SCORE.INTRA.VDW>
0

>  <SCORE.INTRA.VDW.0>
0

>  <SCORE.INTRA.norm>
0

>  <SCORE.RESTR>
0

>  <SCORE.RESTR.CAVITY>
0

>  <SCORE.RESTR.norm>
0

>  <SCORE.SYSTEM>
0

>  <SCORE.SYSTEM.CONST>
0

>  <SCORE.SYSTEM.DIHEDRAL>
0

>  <SCORE.SYSTEM.SOLV>
0

>  <SCORE.SYSTEM.norm>
0

>  <SCORE.heavy>
10

>  <SCORE.norm>
-2.36768

>  <RMSD>
1.180

$$$$
ligand
 OpenBabel11021811503D
libRbt.so/2013.1/901 2013/11/27
 10 11  0  0  0  0  0  0  0  0999 V2000
   18.9690   -4.7574    2.4543 N   0  0  0  0  0  0  0  0  0  0  0  0
   17.9375   -5.3260    3.0501 C   0  0  0  0  0  0  0  0  0  0  0  0
   16.9124   -4.5210    3.5580 N   0  0  0  0  0  0  0  0  0  0  0  0
   16.9942   -3.1877    3.4492 C   0  0  0  0  0  0  0  0  0  0  0  0
   18.0397   -2.6198    2.8527 C   0  0  0  0  0  0  0  0  0  0  0  0
   19.0193   -3.3636    2.3441 C   0  0  0  0  0  0  0  0  0  0  0  0
   19.9709   -2.8384    1.7686 O   0  0  0  0  0  0  0  0  0  0  0  0
   17.8977   -1.3011    2.9534 N   0  0  0  0  0  0  0  0  0  0  0  0
   16.7660   -1.0522    3.6048 C   0  0  0  0  0  0  0  0  0  0  0  0
   16.2046   -2.2202    3.9038 N   0  0  0  0  0  0  0  0  0  0  0  0
  1  2  1  0  0  0  0
  1  6  1  0  0  0  0
  2  3  2  0  0  0  0
  3  4  1  0  0  0  0
  4  5  2  0  0  0  0
  4 10  1  0  0  0  0
  5  6  1  0  0  0  0
  5  8  1  0  0  0  0
  6  7  2  0  0  0  0
  8  9  1  0  0  0  0
  9 10  2  0  0  0  0
M  END
>  <CHROM.1>
17.91185986,-3.11518846,2.97039695,0.78296735,-0.51609954,3.11339475

>  <Name>
ligand

>  <RI>
0

>  <Rbt.Current_Directory>
/home/itssahil/PROJECTS/Mol_Feturizer/New_Systems/rnas/4NYD

>  <Rbt.Executable>
rbdock ($Id: //depot/dev/client3/rdock/2013.1/src/exe/rbdock.cxx#4 $)

>  <Rbt.Library>
libRbt.so (2013.1, Build901 2013/11/27)

>  <Rbt.Parameter_File>
/export/apps/rDock/src/rDock_2013.1_src/data/scripts/dock_solv.prm

>  <Rbt.Receptor>
prm/pocket_docking_5.prm

>  <SCORE>
-23.755

>  <SCORE.INTER>
-23.755

>  <SCORE.INTER.CONST>
1

>  <SCORE.INTER.POLAR>
0

>  <SCORE.INTER.ROT>
0

>  <SCORE.INTER.SOLV>
3.34371

>  <SCORE.INTER.VDW>
-20.5512

>  <SCORE.INTER.norm>
-2.3755

>  <SCORE.INTRA>
0

>  <SCORE.INTRA.DIHEDRAL>
0

>  <SCORE.INTRA.DIHEDRAL.0>
0

>  <SCORE.INTRA.POLAR>
0

>  <SCORE.INTRA.POLAR.0>
0

>  <SCORE.INTRA.REPUL>
0

>  <SCORE.INTRA.REPUL.0>
0

>  <SCORE.INTRA.SOLV>
0

>  <SCORE.INTRA.SOLV.lig_0>
-4.1818

>  <SCORE.INTRA.VDW>
0

>  <SCORE.INTRA.VDW.0>
0

>  <SCORE.INTRA.norm>
0

>  <SCORE.RESTR>
0

>  <SCORE.RESTR.CAVITY>
0

>  <SCORE.RESTR.norm>
0

>  <SCORE.SYSTEM>
0

>  <SCORE.SYSTEM.CONST>
0

>  <SCORE.SYSTEM.DIHEDRAL>
0

>  <SCORE.SYSTEM.SOLV>
0

>  <SCORE.SYSTEM.norm>
0

>  <SCORE.heavy>
10

>  <SCORE.norm>
-2.3755

>  <RMSD>
1.180

$$$$
ligand
 OpenBabel11021811503D
libRbt.so/2013.1/901 2013/11/27
 10 11  0  0  0  0  0  0  0  0999 V2000
   18.9665   -4.7596    2.5411 N   0  0  0  0  0  0  0  0  0  0  0  0
   17.9036   -5.2894    3.1170 C   0  0  0  0  0  0  0  0  0  0  0  0
   16.8769   -4.4495    3.5613 N   0  0  0  0  0  0  0  0  0  0  0  0
   16.9886   -3.1222    3.4128 C   0  0  0  0  0  0  0  0  0  0  0  0
   18.0656   -2.5935    2.8368 C   0  0  0  0  0  0  0  0  0  0  0  0
   19.0479   -3.3713    2.3882 C   0  0  0  0  0  0  0  0  0  0  0  0
   20.0296   -2.8828    1.8311 O   0  0  0  0  0  0  0  0  0  0  0  0
   17.9458   -1.2698    2.8898 N   0  0  0  0  0  0  0  0  0  0  0  0
   16.7967   -0.9789    3.4915 C   0  0  0  0  0  0  0  0  0  0  0  0
   16.2022   -2.1260    3.8073 N   0  0  0  0  0  0  0  0  0  0  0  0
  1  2  1  0  0  0  0
  1  6  1  0  0  0  0
  2  3  2  0  0  0  0
  3  4  1  0  0  0  0
  4  5  2  0  0  0  0
  4 10  1  0  0  0  0
  5  6  1  0  0  0  0
  5  8  1  0  0  0  0
  6  7  2  0  0  0  0
  8  9  1  0  0  0  0
  9 10  2  0  0  0  0
M  END
>  <CHROM.1>
17.92395206,-3.08226396,2.96557959,0.80612220,-0.48087398,3.09202939

>  <Name>
ligand

>  <RI>
0

>  <Rbt.Current_Directory>
/home/itssahil/PROJECTS/Mol_Feturizer/New_Systems/rnas/4NYD

>  <Rbt.Executable>
rbdock ($Id: //depot/dev/client3/rdock/2013.1/src/exe/rbdock.cxx#4 $)

>  <Rbt.Library>
libRbt.so (2013.1, Build901 2013/11/27)

>  <Rbt.Parameter_File>
/export/apps/rDock/src/rDock_2013.1_src/data/scripts/dock_solv.prm

>  <Rbt.Receptor>
prm/pocket_docking_6.prm

>  <SCORE>
-23.7167

>  <SCORE.INTER>
-23.7167

>  <SCORE.INTER.CONST>
1

>  <SCORE.INTER.POLAR>
0

>  <SCORE.INTER.ROT>
0

>  <SCORE.INTER.SOLV>
3.29654

>  <SCORE.INTER.VDW>
-20.51

>  <SCORE.INTER.norm>
-2.37167

>  <SCORE.INTRA>
0

>  <SCORE.INTRA.DIHEDRAL>
0

>  <SCORE.INTRA.DIHEDRAL.0>
0

>  <SCORE.INTRA.POLAR>
0

>  <SCORE.INTRA.POLAR.0>
0

>  <SCORE.INTRA.REPUL>
0

>  <SCORE.INTRA.REPUL.0>
0

>  <SCORE.INTRA.SOLV>
0

>  <SCORE.INTRA.SOLV.lig_0>
-4.1818

>  <SCORE.INTRA.VDW>
0

>  <SCORE.INTRA.VDW.0>
0

>  <SCORE.INTRA.norm>
0

>  <SCORE.RESTR>
0

>  <SCORE.RESTR.CAVITY>
0

>  <SCORE.RESTR.norm>
0

>  <SCORE.SYSTEM>
0

>  <SCORE.SYSTEM.CONST>
0

>  <SCORE.SYSTEM.DIHEDRAL>
0

>  <SCORE.SYSTEM.SOLV>
0

>  <SCORE.SYSTEM.norm>
0

>  <SCORE.heavy>
10

>  <SCORE.norm>
-2.37167

>  <RMSD>
1.180

$$$$
ligand
 OpenBabel11021811503D
libRbt.so/2013.1/901 2013/11/27
 10 11  0  0  0  0  0  0  0  0999 V2000
   18.9813   -4.7570    2.5173 N   0  0  0  0  0  0  0  0  0  0  0  0
   17.9426   -5.3082    3.1170 C   0  0  0  0  0  0  0  0  0  0  0  0
   16.9131   -4.4886    3.5917 N   0  0  0  0  0  0  0  0  0  0  0  0
   16.9980   -3.1589    3.4479 C   0  0  0  0  0  0  0  0  0  0  0  0
   18.0507   -2.6085    2.8477 C   0  0  0  0  0  0  0  0  0  0  0  0
   19.0347   -3.3668    2.3701 C   0  0  0  0  0  0  0  0  0  0  0  0
   19.9933   -2.8584    1.7910 O   0  0  0  0  0  0  0  0  0  0  0  0
   17.9095   -1.2874    2.9111 N   0  0  0  0  0  0  0  0  0  0  0  0
   16.7711   -1.0196    3.5432 C   0  0  0  0  0  0  0  0  0  0  0  0
   16.2048   -2.1785    3.8675 N   0  0  0  0  0  0  0  0  0  0  0  0
  1  2  1  0  0  0  0
  1  6  1  0  0  0  0
  2  3  2  0  0  0  0
  3  4  1  0  0  0  0
  4  5  2  0  0  0  0
  4 10  1  0  0  0  0
  5  6  1  0  0  0  0
  5  8  1  0  0  0  0
  6  7  2  0  0  0  0
  8  9  1  0  0  0  0
  9 10  2  0  0  0  0
M  END
>  <CHROM.1>
17.92092828,-3.10031386,2.97732480,0.78492513,-0.50527054,3.08731733

>  <Name>
ligand

>  <RI>
0

>  <Rbt.Current_Directory>
/home/itssahil/PROJECTS/Mol_Feturizer/New_Systems/rnas/4NYD

>  <Rbt.Executable>
rbdock ($Id: //depot/dev/client3/rdock/2013.1/src/exe/rbdock.cxx#4 $)

>  <Rbt.Library>
libRbt.so (2013.1, Build901 2013/11/27)

>  <Rbt.Parameter_File>
/export/apps/rDock/src/rDock_2013.1_src/data/scripts/dock_solv.prm

>  <Rbt.Receptor>
prm/blind_docking_40.prm

>  <SCORE>
-23.7066

>  <SCORE.INTER>
-23.7066

>  <SCORE.INTER.CONST>
1

>  <SCORE.INTER.POLAR>
0

>  <SCORE.INTER.ROT>
0

>  <SCORE.INTER.SOLV>
3.32051

>  <SCORE.INTER.VDW>
-20.5112

>  <SCORE.INTER.norm>
-2.37066

>  <SCORE.INTRA>
0

>  <SCORE.INTRA.DIHEDRAL>
0

>  <SCORE.INTRA.DIHEDRAL.0>
0

>  <SCORE.INTRA.POLAR>
0

>  <SCORE.INTRA.POLAR.0>
0

>  <SCORE.INTRA.REPUL>
0

>  <SCORE.INTRA.REPUL.0>
0

>  <SCORE.INTRA.SOLV>
0

>  <SCORE.INTRA.SOLV.lig_0>
-4.1818

>  <SCORE.INTRA.VDW>
0

>  <SCORE.INTRA.VDW.0>
0

>  <SCORE.INTRA.norm>
0

>  <SCORE.RESTR>
0

>  <SCORE.RESTR.CAVITY>
0

>  <SCORE.RESTR.norm>
0

>  <SCORE.SYSTEM>
0

>  <SCORE.SYSTEM.CONST>
0

>  <SCORE.SYSTEM.DIHEDRAL>
0

>  <SCORE.SYSTEM.SOLV>
0

>  <SCORE.SYSTEM.norm>
0

>  <SCORE.heavy>
10

>  <SCORE.norm>
-2.37066

>  <RMSD>
1.181

$$$$
ligand
 OpenBabel11021811503D
libRbt.so/2013.1/901 2013/11/27
 10 11  0  0  0  0  0  0  0  0999 V2000
   18.9488   -4.7727    2.4957 N   0  0  0  0  0  0  0  0  0  0  0  0
   17.9032   -5.3016    3.1033 C   0  0  0  0  0  0  0  0  0  0  0  0
   16.8944   -4.4603    3.5845 N   0  0  0  0  0  0  0  0  0  0  0  0
   17.0060   -3.1327    3.4386 C   0  0  0  0  0  0  0  0  0  0  0  0
   18.0657   -2.6049    2.8304 C   0  0  0  0  0  0  0  0  0  0  0  0
   19.0302   -3.3840    2.3467 C   0  0  0  0  0  0  0  0  0  0  0  0
   19.9951   -2.8963    1.7603 O   0  0  0  0  0  0  0  0  0  0  0  0
   17.9525   -1.2811    2.8935 N   0  0  0  0  0  0  0  0  0  0  0  0
   16.8245   -0.9891    3.5333 C   0  0  0  0  0  0  0  0  0  0  0  0
   16.2364   -2.1357    3.8629 N   0  0  0  0  0  0  0  0  0  0  0  0
  1  2  1  0  0  0  0
  1  6  1  0  0  0  0
  2  3  2  0  0  0  0
  3  4  1  0  0  0  0
  4  5  2  0  0  0  0
  4 10  1  0  0  0  0
  5  6  1  0  0  0  0
  5  8  1  0  0  0  0
  6  7  2  0  0  0  0
  8  9  1  0  0  0  0
  9 10  2  0  0  0  0
M  END
>  <CHROM.1>
17.92655026,-3.09382393,2.96148139,0.80839670,-0.51338380,3.09779019

>  <Name>
ligand

>  <RI>
0

>  <Rbt.Current_Directory>
/home/itssahil/PROJECTS/Mol_Feturizer/New_Systems/rnas/4NYD

>  <Rbt.Executable>
rbdock ($Id: //depot/dev/client3/rdock/2013.1/src/exe/rbdock.cxx#4 $)

>  <Rbt.Library>
libRbt.so (2013.1, Build901 2013/11/27)

>  <Rbt.Parameter_File>
/export/apps/rDock/src/rDock_2013.1_src/data/scripts/dock_solv.prm

>  <Rbt.Receptor>
prm/pocket_docking_5.prm

>  <SCORE>
-23.6713

>  <SCORE.INTER>
-23.6713

>  <SCORE.INTER.CONST>
1

>  <SCORE.INTER.POLAR>
0

>  <SCORE.INTER.ROT>
0

>  <SCORE.INTER.SOLV>
3.32231

>  <SCORE.INTER.VDW>
-20.4883

>  <SCORE.INTER.norm>
-2.36713

>  <SCORE.INTRA>
0

>  <SCORE.INTRA.DIHEDRAL>
0

>  <SCORE.INTRA.DIHEDRAL.0>
0

>  <SCORE.INTRA.POLAR>
0

>  <SCORE.INTRA.POLAR.0>
0

>  <SCORE.INTRA.REPUL>
0

>  <SCORE.INTRA.REPUL.0>
0

>  <SCORE.INTRA.SOLV>
0

>  <SCORE.INTRA.SOLV.lig_0>
-4.1818

>  <SCORE.INTRA.VDW>
0

>  <SCORE.INTRA.VDW.0>
0

>  <SCORE.INTRA.norm>
0

>  <SCORE.RESTR>
0

>  <SCORE.RESTR.CAVITY>
0

>  <SCORE.RESTR.norm>
0

>  <SCORE.SYSTEM>
0

>  <SCORE.SYSTEM.CONST>
0

>  <SCORE.SYSTEM.DIHEDRAL>
0

>  <SCORE.SYSTEM.SOLV>
0

>  <SCORE.SYSTEM.norm>
0

>  <SCORE.heavy>
10

>  <SCORE.norm>
-2.36713

>  <RMSD>
1.181

$$$$
ligand
 OpenBabel11021811503D
libRbt.so/2013.1/901 2013/11/27
 10 11  0  0  0  0  0  0  0  0999 V2000
   18.9502   -4.7760    2.4991 N   0  0  0  0  0  0  0  0  0  0  0  0
   17.9034   -5.3060    3.1038 C   0  0  0  0  0  0  0  0  0  0  0  0
   16.8938   -4.4656    3.5848 N   0  0  0  0  0  0  0  0  0  0  0  0
   17.0057   -3.1378    3.4417 C   0  0  0  0  0  0  0  0  0  0  0  0
   18.0665   -2.6089    2.8365 C   0  0  0  0  0  0  0  0  0  0  0  0
   19.0319   -3.3870    2.3530 C   0  0  0  0  0  0  0  0  0  0  0  0
   19.9979   -2.8982    1.7693 O   0  0  0  0  0  0  0  0  0  0  0  0
   17.9533   -1.2851    2.9019 N   0  0  0  0  0  0  0  0  0  0  0  0
   16.8241   -0.9943    3.5403 C   0  0  0  0  0  0  0  0  0  0  0  0
   16.2354   -2.1415    3.8666 N   0  0  0  0  0  0  0  0  0  0  0  0
  1  2  1  0  0  0  0
  1  6  1  0  0  0  0
  2  3  2  0  0  0  0
  3  4  1  0  0  0  0
  4  5  2  0  0  0  0
  4 10  1  0  0  0  0
  5  6  1  0  0  0  0
  5  8  1  0  0  0  0
  6  7  2  0  0  0  0
  8  9  1  0  0  0  0
  9 10  2  0  0  0  0
M  END
>  <CHROM.1>
17.92714658,-3.09800243,2.96635299,0.80854259,-0.51156755,3.09982737

>  <Name>
ligand

>  <RI>
0

>  <Rbt.Current_Directory>
/home/itssahil/PROJECTS/Mol_Feturizer/New_Systems/rnas/4NYD

>  <Rbt.Executable>
rbdock ($Id: //depot/dev/client3/rdock/2013.1/src/exe/rbdock.cxx#4 $)

>  <Rbt.Library>
libRbt.so (2013.1, Build901 2013/11/27)

>  <Rbt.Parameter_File>
/export/apps/rDock/src/rDock_2013.1_src/data/scripts/dock_solv.prm

>  <Rbt.Receptor>
prm/pocket_docking_8.prm

>  <SCORE>
-23.6664

>  <SCORE.INTER>
-23.6664

>  <SCORE.INTER.CONST>
1

>  <SCORE.INTER.POLAR>
0

>  <SCORE.INTER.ROT>
0

>  <SCORE.INTER.SOLV>
3.32749

>  <SCORE.INTER.VDW>
-20.4867

>  <SCORE.INTER.norm>
-2.36664

>  <SCORE.INTRA>
0

>  <SCORE.INTRA.DIHEDRAL>
0

>  <SCORE.INTRA.DIHEDRAL.0>
0

>  <SCORE.INTRA.POLAR>
0

>  <SCORE.INTRA.POLAR.0>
0

>  <SCORE.INTRA.REPUL>
0

>  <SCORE.INTRA.REPUL.0>
0

>  <SCORE.INTRA.SOLV>
0

>  <SCORE.INTRA.SOLV.lig_0>
-4.1818

>  <SCORE.INTRA.VDW>
0

>  <SCORE.INTRA.VDW.0>
0

>  <SCORE.INTRA.norm>
0

>  <SCORE.RESTR>
0

>  <SCORE.RESTR.CAVITY>
0

>  <SCORE.RESTR.norm>
0

>  <SCORE.SYSTEM>
0

>  <SCORE.SYSTEM.CONST>
0

>  <SCORE.SYSTEM.DIHEDRAL>
0

>  <SCORE.SYSTEM.SOLV>
0

>  <SCORE.SYSTEM.norm>
0

>  <SCORE.heavy>
10

>  <SCORE.norm>
-2.36664

>  <RMSD>
1.181

$$$$
ligand
 OpenBabel11021811503D
libRbt.so/2013.1/901 2013/11/27
 10 11  0  0  0  0  0  0  0  0999 V2000
   18.9844   -4.7889    2.4847 N   0  0  0  0  0  0  0  0  0  0  0  0
   17.9678   -5.3493    3.1129 C   0  0  0  0  0  0  0  0  0  0  0  0
   16.9407   -4.5396    3.6091 N   0  0  0  0  0  0  0  0  0  0  0  0
   17.0058   -3.2097    3.4565 C   0  0  0  0  0  0  0  0  0  0  0  0
   18.0365   -2.6499    2.8274 C   0  0  0  0  0  0  0  0  0  0  0  0
   19.0174   -3.3989    2.3292 C   0  0  0  0  0  0  0  0  0  0  0  0
   19.9550   -2.8822    1.7238 O   0  0  0  0  0  0  0  0  0  0  0  0
   17.8809   -1.3303    2.8877 N   0  0  0  0  0  0  0  0  0  0  0  0
   16.7555   -1.0728    3.5468 C   0  0  0  0  0  0  0  0  0  0  0  0
   16.2116   -2.2367    3.8910 N   0  0  0  0  0  0  0  0  0  0  0  0
  1  2  1  0  0  0  0
  1  6  1  0  0  0  0
  2  3  2  0  0  0  0
  3  4  1  0  0  0  0
  4  5  2  0  0  0  0
  4 10  1  0  0  0  0
  5  6  1  0  0  0  0
  5  8  1  0  0  0  0
  6  7  2  0  0  0  0
  8  9  1  0  0  0  0
  9 10  2  0  0  0  0
M  END
>  <CHROM.1>
17.91593287,-3.14260125,2.96272785,0.76936607,-0.52947988,3.07445079

>  <Name>
ligand

>  <RI>
0

>  <Rbt.Current_Directory>
/home/itssahil/PROJECTS/Mol_Feturizer/New_Systems/rnas/4NYD

>  <Rbt.Executable>
rbdock ($Id: //depot/dev/client3/rdock/2013.1/src/exe/rbdock.cxx#4 $)

>  <Rbt.Library>
libRbt.so (2013.1, Build901 2013/11/27)

>  <Rbt.Parameter_File>
/export/apps/rDock/src/rDock_2013.1_src/data/scripts/dock_solv.prm

>  <Rbt.Receptor>
prm/blind_docking_40.prm

>  <SCORE>
-23.7103

>  <SCORE.INTER>
-23.7103

>  <SCORE.INTER.CONST>
1

>  <SCORE.INTER.POLAR>
0

>  <SCORE.INTER.ROT>
0

>  <SCORE.INTER.SOLV>
3.31315

>  <SCORE.INTER.VDW>
-20.5112

>  <SCORE.INTER.norm>
-2.37103

>  <SCORE.INTRA>
0

>  <SCORE.INTRA.DIHEDRAL>
0

>  <SCORE.INTRA.DIHEDRAL.0>
0

>  <SCORE.INTRA.POLAR>
0

>  <SCORE.INTRA.POLAR.0>
0

>  <SCORE.INTRA.REPUL>
0

>  <SCORE.INTRA.REPUL.0>
0

>  <SCORE.INTRA.SOLV>
0

>  <SCORE.INTRA.SOLV.lig_0>
-4.1818

>  <SCORE.INTRA.VDW>
0

>  <SCORE.INTRA.VDW.0>
0

>  <SCORE.INTRA.norm>
0

>  <SCORE.RESTR>
0

>  <SCORE.RESTR.CAVITY>
0

>  <SCORE.RESTR.norm>
0

>  <SCORE.SYSTEM>
0

>  <SCORE.SYSTEM.CONST>
0

>  <SCORE.SYSTEM.DIHEDRAL>
0

>  <SCORE.SYSTEM.SOLV>
0

>  <SCORE.SYSTEM.norm>
0

>  <SCORE.heavy>
10

>  <SCORE.norm>
-2.37103

>  <RMSD>
1.182

$$$$
ligand
 OpenBabel11021811503D
libRbt.so/2013.1/901 2013/11/27
 10 11  0  0  0  0  0  0  0  0999 V2000
   18.9625   -4.7599    2.5272 N   0  0  0  0  0  0  0  0  0  0  0  0
   17.9017   -5.2942    3.1029 C   0  0  0  0  0  0  0  0  0  0  0  0
   16.8762   -4.4578    3.5566 N   0  0  0  0  0  0  0  0  0  0  0  0
   16.9870   -3.1295    3.4173 C   0  0  0  0  0  0  0  0  0  0  0  0
   18.0619   -2.5962    2.8415 C   0  0  0  0  0  0  0  0  0  0  0  0
   19.0430   -3.3705    2.3840 C   0  0  0  0  0  0  0  0  0  0  0  0
   20.0226   -2.8777    1.8271 O   0  0  0  0  0  0  0  0  0  0  0  0
   17.9419   -1.2730    2.9044 N   0  0  0  0  0  0  0  0  0  0  0  0
   16.7947   -0.9868    3.5120 C   0  0  0  0  0  0  0  0  0  0  0  0
   16.2017   -2.1364    3.8215 N   0  0  0  0  0  0  0  0  0  0  0  0
  1  2  1  0  0  0  0
  1  6  1  0  0  0  0
  2  3  2  0  0  0  0
  3  4  1  0  0  0  0
  4  5  2  0  0  0  0
  4 10  1  0  0  0  0
  5  6  1  0  0  0  0
  5  8  1  0  0  0  0
  6  7  2  0  0  0  0
  8  9  1  0  0  0  0
  9 10  2  0  0  0  0
M  END
>  <CHROM.1>
17.92084226,-3.08598293,2.96724056,0.80557592,-0.48421682,3.09894298

>  <Name>
ligand

>  <RI>
0

>  <Rbt.Current_Directory>
/home/itssahil/PROJECTS/Mol_Feturizer/New_Systems/rnas/4NYD

>  <Rbt.Executable>
rbdock ($Id: //depot/dev/client3/rdock/2013.1/src/exe/rbdock.cxx#4 $)

>  <Rbt.Library>
libRbt.so (2013.1, Build901 2013/11/27)

>  <Rbt.Parameter_File>
/export/apps/rDock/src/rDock_2013.1_src/data/scripts/dock_solv.prm

>  <Rbt.Receptor>
prm/blind_docking_80.prm

>  <SCORE>
-23.71

>  <SCORE.INTER>
-23.71

>  <SCORE.INTER.CONST>
1

>  <SCORE.INTER.POLAR>
0

>  <SCORE.INTER.ROT>
0

>  <SCORE.INTER.SOLV>
3.30692

>  <SCORE.INTER.VDW>
-20.509

>  <SCORE.INTER.norm>
-2.371

>  <SCORE.INTRA>
0

>  <SCORE.INTRA.DIHEDRAL>
0

>  <SCORE.INTRA.DIHEDRAL.0>
0

>  <SCORE.INTRA.POLAR>
0

>  <SCORE.INTRA.POLAR.0>
0

>  <SCORE.INTRA.REPUL>
0

>  <SCORE.INTRA.REPUL.0>
0

>  <SCORE.INTRA.SOLV>
0

>  <SCORE.INTRA.SOLV.lig_0>
-4.1818

>  <SCORE.INTRA.VDW>
0

>  <SCORE.INTRA.VDW.0>
0

>  <SCORE.INTRA.norm>
0

>  <SCORE.RESTR>
0

>  <SCORE.RESTR.CAVITY>
0

>  <SCORE.RESTR.norm>
0

>  <SCORE.SYSTEM>
0

>  <SCORE.SYSTEM.CONST>
0

>  <SCORE.SYSTEM.DIHEDRAL>
0

>  <SCORE.SYSTEM.SOLV>
0

>  <SCORE.SYSTEM.norm>
0

>  <SCORE.heavy>
10

>  <SCORE.norm>
-2.371

>  <RMSD>
1.182

$$$$
ligand
 OpenBabel11021811503D
libRbt.so/2013.1/901 2013/11/27
 10 11  0  0  0  0  0  0  0  0999 V2000
   18.9873   -4.7561    2.4986 N   0  0  0  0  0  0  0  0  0  0  0  0
   17.9580   -5.3227    3.1001 C   0  0  0  0  0  0  0  0  0  0  0  0
   16.9268   -4.5170    3.5944 N   0  0  0  0  0  0  0  0  0  0  0  0
   17.0007   -3.1849    3.4671 C   0  0  0  0  0  0  0  0  0  0  0  0
   18.0440   -2.6190    2.8650 C   0  0  0  0  0  0  0  0  0  0  0  0
   19.0293   -3.3637    2.3691 C   0  0  0  0  0  0  0  0  0  0  0  0
   19.9790   -2.8408    1.7884 O   0  0  0  0  0  0  0  0  0  0  0  0
   17.8937   -1.2999    2.9469 N   0  0  0  0  0  0  0  0  0  0  0  0
   16.7591   -1.0488    3.5923 C   0  0  0  0  0  0  0  0  0  0  0  0
   16.2041   -2.2160    3.9064 N   0  0  0  0  0  0  0  0  0  0  0  0
  1  2  1  0  0  0  0
  1  6  1  0  0  0  0
  2  3  2  0  0  0  0
  3  4  1  0  0  0  0
  4  5  2  0  0  0  0
  4 10  1  0  0  0  0
  5  6  1  0  0  0  0
  5  8  1  0  0  0  0
  6  7  2  0  0  0  0
  8  9  1  0  0  0  0
  9 10  2  0  0  0  0
M  END
>  <CHROM.1>
17.91896340,-3.11340564,2.98938289,0.77602295,-0.51364804,3.09597440

>  <Name>
ligand

>  <RI>
0

>  <Rbt.Current_Directory>
/home/itssahil/PROJECTS/Mol_Feturizer/New_Systems/rnas/4NYD

>  <Rbt.Executable>
rbdock ($Id: //depot/dev/client3/rdock/2013.1/src/exe/rbdock.cxx#4 $)

>  <Rbt.Library>
libRbt.so (2013.1, Build901 2013/11/27)

>  <Rbt.Parameter_File>
/export/apps/rDock/src/rDock_2013.1_src/data/scripts/dock_solv.prm

>  <Rbt.Receptor>
prm/pocket_docking_4.prm

>  <SCORE>
-23.7624

>  <SCORE.INTER>
-23.7624

>  <SCORE.INTER.CONST>
1

>  <SCORE.INTER.POLAR>
0

>  <SCORE.INTER.ROT>
0

>  <SCORE.INTER.SOLV>
3.34657

>  <SCORE.INTER.VDW>
-20.5571

>  <SCORE.INTER.norm>
-2.37624

>  <SCORE.INTRA>
0

>  <SCORE.INTRA.DIHEDRAL>
0

>  <SCORE.INTRA.DIHEDRAL.0>
0

>  <SCORE.INTRA.POLAR>
0

>  <SCORE.INTRA.POLAR.0>
0

>  <SCORE.INTRA.REPUL>
0

>  <SCORE.INTRA.REPUL.0>
0

>  <SCORE.INTRA.SOLV>
0

>  <SCORE.INTRA.SOLV.lig_0>
-4.1818

>  <SCORE.INTRA.VDW>
0

>  <SCORE.INTRA.VDW.0>
0

>  <SCORE.INTRA.norm>
0

>  <SCORE.RESTR>
0

>  <SCORE.RESTR.CAVITY>
0

>  <SCORE.RESTR.norm>
0

>  <SCORE.SYSTEM>
0

>  <SCORE.SYSTEM.CONST>
0

>  <SCORE.SYSTEM.DIHEDRAL>
0

>  <SCORE.SYSTEM.SOLV>
0

>  <SCORE.SYSTEM.norm>
0

>  <SCORE.heavy>
10

>  <SCORE.norm>
-2.37624

>  <RMSD>
1.182

$$$$
ligand
 OpenBabel11021811503D
libRbt.so/2013.1/901 2013/11/27
 10 11  0  0  0  0  0  0  0  0999 V2000
   18.9757   -4.8023    2.4657 N   0  0  0  0  0  0  0  0  0  0  0  0
   17.9567   -5.3630    3.0897 C   0  0  0  0  0  0  0  0  0  0  0  0
   16.9335   -4.5526    3.5929 N   0  0  0  0  0  0  0  0  0  0  0  0
   17.0048   -3.2218    3.4512 C   0  0  0  0  0  0  0  0  0  0  0  0
   18.0379   -2.6618    2.8264 C   0  0  0  0  0  0  0  0  0  0  0  0
   19.0151   -3.4112    2.3217 C   0  0  0  0  0  0  0  0  0  0  0  0
   19.9550   -2.8939    1.7202 O   0  0  0  0  0  0  0  0  0  0  0  0
   17.8885   -1.3419    2.8976 N   0  0  0  0  0  0  0  0  0  0  0  0
   16.7646   -1.0846    3.5591 C   0  0  0  0  0  0  0  0  0  0  0  0
   16.2153   -2.2487    3.8940 N   0  0  0  0  0  0  0  0  0  0  0  0
  1  2  1  0  0  0  0
  1  6  1  0  0  0  0
  2  3  2  0  0  0  0
  3  4  1  0  0  0  0
  4  5  2  0  0  0  0
  4 10  1  0  0  0  0
  5  6  1  0  0  0  0
  5  8  1  0  0  0  0
  6  7  2  0  0  0  0
  8  9  1  0  0  0  0
  9 10  2  0  0  0  0
M  END
>  <CHROM.1>
17.91510176,-3.15494126,2.95770508,0.77475175,-0.53011513,3.08538713

>  <Name>
ligand

>  <RI>
0

>  <Rbt.Current_Directory>
/home/itssahil/PROJECTS/Mol_Feturizer/New_Systems/rnas/4NYD

>  <Rbt.Executable>
rbdock ($Id: //depot/dev/client3/rdock/2013.1/src/exe/rbdock.cxx#4 $)

>  <Rbt.Library>
libRbt.so (2013.1, Build901 2013/11/27)

>  <Rbt.Parameter_File>
/export/apps/rDock/src/rDock_2013.1_src/data/scripts/dock_solv.prm

>  <Rbt.Receptor>
prm/pocket_docking_4.prm

>  <SCORE>
-23.7513

>  <SCORE.INTER>
-23.7513

>  <SCORE.INTER.CONST>
1

>  <SCORE.INTER.POLAR>
0

>  <SCORE.INTER.ROT>
0

>  <SCORE.INTER.SOLV>
3.32025

>  <SCORE.INTER.VDW>
-20.5409

>  <SCORE.INTER.norm>
-2.37513

>  <SCORE.INTRA>
0

>  <SCORE.INTRA.DIHEDRAL>
0

>  <SCORE.INTRA.DIHEDRAL.0>
0

>  <SCORE.INTRA.POLAR>
0

>  <SCORE.INTRA.POLAR.0>
0

>  <SCORE.INTRA.REPUL>
0

>  <SCORE.INTRA.REPUL.0>
0

>  <SCORE.INTRA.SOLV>
0

>  <SCORE.INTRA.SOLV.lig_0>
-4.1818

>  <SCORE.INTRA.VDW>
0

>  <SCORE.INTRA.VDW.0>
0

>  <SCORE.INTRA.norm>
0

>  <SCORE.RESTR>
0

>  <SCORE.RESTR.CAVITY>
0

>  <SCORE.RESTR.norm>
0

>  <SCORE.SYSTEM>
0

>  <SCORE.SYSTEM.CONST>
0

>  <SCORE.SYSTEM.DIHEDRAL>
0

>  <SCORE.SYSTEM.SOLV>
0

>  <SCORE.SYSTEM.norm>
0

>  <SCORE.heavy>
10

>  <SCORE.norm>
-2.37513

>  <RMSD>
1.182

$$$$
ligand
 OpenBabel11021811503D
libRbt.so/2013.1/901 2013/11/27
 10 11  0  0  0  0  0  0  0  0999 V2000
   18.9393   -4.7596    2.5195 N   0  0  0  0  0  0  0  0  0  0  0  0
   17.8775   -5.2725    3.1125 C   0  0  0  0  0  0  0  0  0  0  0  0
   16.8697   -4.4167    3.5696 N   0  0  0  0  0  0  0  0  0  0  0  0
   16.9983   -3.0916    3.4159 C   0  0  0  0  0  0  0  0  0  0  0  0
   18.0742   -2.5799    2.8225 C   0  0  0  0  0  0  0  0  0  0  0  0
   19.0385   -3.3730    2.3616 C   0  0  0  0  0  0  0  0  0  0  0  0
   20.0187   -2.9002    1.7887 O   0  0  0  0  0  0  0  0  0  0  0  0
   17.9743   -1.2545    2.8737 N   0  0  0  0  0  0  0  0  0  0  0  0
   16.8386   -0.9455    3.4915 C   0  0  0  0  0  0  0  0  0  0  0  0
   16.2324   -2.0831    3.8192 N   0  0  0  0  0  0  0  0  0  0  0  0
  1  2  1  0  0  0  0
  1  6  1  0  0  0  0
  2  3  2  0  0  0  0
  3  4  1  0  0  0  0
  4  5  2  0  0  0  0
  4 10  1  0  0  0  0
  5  6  1  0  0  0  0
  5  8  1  0  0  0  0
  6  7  2  0  0  0  0
  8  9  1  0  0  0  0
  9 10  2  0  0  0  0
M  END
>  <CHROM.1>
17.92744957,-3.06627610,2.95473779,0.82167898,-0.49634677,3.09670772

>  <Name>
ligand

>  <RI>
0

>  <Rbt.Current_Directory>
/home/itssahil/PROJECTS/Mol_Feturizer/New_Systems/rnas/4NYD

>  <Rbt.Executable>
rbdock ($Id: //depot/dev/client3/rdock/2013.1/src/exe/rbdock.cxx#4 $)

>  <Rbt.Library>
libRbt.so (2013.1, Build901 2013/11/27)

>  <Rbt.Parameter_File>
/export/apps/rDock/src/rDock_2013.1_src/data/scripts/dock_solv.prm

>  <Rbt.Receptor>
prm/pocket_docking_7.prm

>  <SCORE>
-23.7038

>  <SCORE.INTER>
-23.7038

>  <SCORE.INTER.CONST>
1

>  <SCORE.INTER.POLAR>
0

>  <SCORE.INTER.ROT>
0

>  <SCORE.INTER.SOLV>
3.30264

>  <SCORE.INTER.VDW>
-20.5034

>  <SCORE.INTER.norm>
-2.37038

>  <SCORE.INTRA>
0

>  <SCORE.INTRA.DIHEDRAL>
0

>  <SCORE.INTRA.DIHEDRAL.0>
0

>  <SCORE.INTRA.POLAR>
0

>  <SCORE.INTRA.POLAR.0>
0

>  <SCORE.INTRA.REPUL>
0

>  <SCORE.INTRA.REPUL.0>
0

>  <SCORE.INTRA.SOLV>
0

>  <SCORE.INTRA.SOLV.lig_0>
-4.1818

>  <SCORE.INTRA.VDW>
0

>  <SCORE.INTRA.VDW.0>
0

>  <SCORE.INTRA.norm>
0

>  <SCORE.RESTR>
0

>  <SCORE.RESTR.CAVITY>
0

>  <SCORE.RESTR.norm>
0

>  <SCORE.SYSTEM>
0

>  <SCORE.SYSTEM.CONST>
0

>  <SCORE.SYSTEM.DIHEDRAL>
0

>  <SCORE.SYSTEM.SOLV>
0

>  <SCORE.SYSTEM.norm>
0

>  <SCORE.heavy>
10

>  <SCORE.norm>
-2.37038

>  <RMSD>
1.182

$$$$
ligand
 OpenBabel11021811503D
libRbt.so/2013.1/901 2013/11/27
 10 11  0  0  0  0  0  0  0  0999 V2000
   19.0098   -4.7660    2.5339 N   0  0  0  0  0  0  0  0  0  0  0  0
   17.9839   -5.3332    3.1406 C   0  0  0  0  0  0  0  0  0  0  0  0
   16.9370   -4.5313    3.6071 N   0  0  0  0  0  0  0  0  0  0  0  0
   16.9924   -3.2017    3.4485 C   0  0  0  0  0  0  0  0  0  0  0  0
   18.0324   -2.6349    2.8413 C   0  0  0  0  0  0  0  0  0  0  0  0
   19.0325   -3.3766    2.3712 C   0  0  0  0  0  0  0  0  0  0  0  0
   19.9793   -2.8537    1.7857 O   0  0  0  0  0  0  0  0  0  0  0  0
   17.8622   -1.3166    2.8902 N   0  0  0  0  0  0  0  0  0  0  0  0
   16.7186   -1.0670    3.5203 C   0  0  0  0  0  0  0  0  0  0  0  0
   16.1782   -2.2344    3.8580 N   0  0  0  0  0  0  0  0  0  0  0  0
  1  2  1  0  0  0  0
  1  6  1  0  0  0  0
  2  3  2  0  0  0  0
  3  4  1  0  0  0  0
  4  5  2  0  0  0  0
  4 10  1  0  0  0  0
  5  6  1  0  0  0  0
  5  8  1  0  0  0  0
  6  7  2  0  0  0  0
  8  9  1  0  0  0  0
  9 10  2  0  0  0  0
M  END
>  <CHROM.1>
17.91353704,-3.12802381,2.97646795,0.75977289,-0.50460783,3.06405850

>  <Name>
ligand

>  <RI>
0

>  <Rbt.Current_Directory>
/home/itssahil/PROJECTS/Mol_Feturizer/New_Systems/rnas/4NYD

>  <Rbt.Executable>
rbdock ($Id: //depot/dev/client3/rdock/2013.1/src/exe/rbdock.cxx#4 $)

>  <Rbt.Library>
libRbt.so (2013.1, Build901 2013/11/27)

>  <Rbt.Parameter_File>
/export/apps/rDock/src/rDock_2013.1_src/data/scripts/dock_solv.prm

>  <Rbt.Receptor>
prm/blind_docking_60.prm

>  <SCORE>
-23.6948

>  <SCORE.INTER>
-23.6948

>  <SCORE.INTER.CONST>
1

>  <SCORE.INTER.POLAR>
0

>  <SCORE.INTER.ROT>
0

>  <SCORE.INTER.SOLV>
3.29913

>  <SCORE.INTER.VDW>
-20.4962

>  <SCORE.INTER.norm>
-2.36948

>  <SCORE.INTRA>
0

>  <SCORE.INTRA.DIHEDRAL>
0

>  <SCORE.INTRA.DIHEDRAL.0>
0

>  <SCORE.INTRA.POLAR>
0

>  <SCORE.INTRA.POLAR.0>
0

>  <SCORE.INTRA.REPUL>
0

>  <SCORE.INTRA.REPUL.0>
0

>  <SCORE.INTRA.SOLV>
0

>  <SCORE.INTRA.SOLV.lig_0>
-4.1818

>  <SCORE.INTRA.VDW>
0

>  <SCORE.INTRA.VDW.0>
0

>  <SCORE.INTRA.norm>
0

>  <SCORE.RESTR>
0

>  <SCORE.RESTR.CAVITY>
0

>  <SCORE.RESTR.norm>
0

>  <SCORE.SYSTEM>
0

>  <SCORE.SYSTEM.CONST>
0

>  <SCORE.SYSTEM.DIHEDRAL>
0

>  <SCORE.SYSTEM.SOLV>
0

>  <SCORE.SYSTEM.norm>
0

>  <SCORE.heavy>
10

>  <SCORE.norm>
-2.36948

>  <RMSD>
1.183

$$$$
ligand
 OpenBabel11021811503D
libRbt.so/2013.1/901 2013/11/27
 10 11  0  0  0  0  0  0  0  0999 V2000
   18.9723   -4.8120    2.4736 N   0  0  0  0  0  0  0  0  0  0  0  0
   17.9491   -5.3668    3.0961 C   0  0  0  0  0  0  0  0  0  0  0  0
   16.9278   -4.5507    3.5939 N   0  0  0  0  0  0  0  0  0  0  0  0
   17.0050   -3.2206    3.4486 C   0  0  0  0  0  0  0  0  0  0  0  0
   18.0423   -2.6666    2.8253 C   0  0  0  0  0  0  0  0  0  0  0  0
   19.0179   -3.4215    2.3256 C   0  0  0  0  0  0  0  0  0  0  0  0
   19.9616   -2.9098    1.7255 O   0  0  0  0  0  0  0  0  0  0  0  0
   17.8981   -1.3460    2.8922 N   0  0  0  0  0  0  0  0  0  0  0  0
   16.7733   -1.0822    3.5497 C   0  0  0  0  0  0  0  0  0  0  0  0
   16.2182   -2.2430    3.8862 N   0  0  0  0  0  0  0  0  0  0  0  0
  1  2  1  0  0  0  0
  1  6  1  0  0  0  0
  2  3  2  0  0  0  0
  3  4  1  0  0  0  0
  4  5  2  0  0  0  0
  4 10  1  0  0  0  0
  5  6  1  0  0  0  0
  5  8  1  0  0  0  0
  6  7  2  0  0  0  0
  8  9  1  0  0  0  0
  9 10  2  0  0  0  0
M  END
>  <CHROM.1>
17.91701814,-3.15890654,2.95761937,0.77969906,-0.52736656,3.08500516

>  <Name>
ligand

>  <RI>
0

>  <Rbt.Current_Directory>
/home/itssahil/PROJECTS/Mol_Feturizer/New_Systems/rnas/4NYD

>  <Rbt.Executable>
rbdock ($Id: //depot/dev/client3/rdock/2013.1/src/exe/rbdock.cxx#4 $)

>  <Rbt.Library>
libRbt.so (2013.1, Build901 2013/11/27)

>  <Rbt.Parameter_File>
/export/apps/rDock/src/rDock_2013.1_src/data/scripts/dock_solv.prm

>  <Rbt.Receptor>
prm/pocket_docking_4.prm

>  <SCORE>
-23.7469

>  <SCORE.INTER>
-23.7469

>  <SCORE.INTER.CONST>
1

>  <SCORE.INTER.POLAR>
0

>  <SCORE.INTER.ROT>
0

>  <SCORE.INTER.SOLV>
3.31599

>  <SCORE.INTER.VDW>
-20.5366

>  <SCORE.INTER.norm>
-2.37469

>  <SCORE.INTRA>
0

>  <SCORE.INTRA.DIHEDRAL>
0

>  <SCORE.INTRA.DIHEDRAL.0>
0

>  <SCORE.INTRA.POLAR>
0

>  <SCORE.INTRA.POLAR.0>
0

>  <SCORE.INTRA.REPUL>
0

>  <SCORE.INTRA.REPUL.0>
0

>  <SCORE.INTRA.SOLV>
0

>  <SCORE.INTRA.SOLV.lig_0>
-4.1818

>  <SCORE.INTRA.VDW>
0

>  <SCORE.INTRA.VDW.0>
0

>  <SCORE.INTRA.norm>
0

>  <SCORE.RESTR>
0

>  <SCORE.RESTR.CAVITY>
0

>  <SCORE.RESTR.norm>
0

>  <SCORE.SYSTEM>
0

>  <SCORE.SYSTEM.CONST>
0

>  <SCORE.SYSTEM.DIHEDRAL>
0

>  <SCORE.SYSTEM.SOLV>
0

>  <SCORE.SYSTEM.norm>
0

>  <SCORE.heavy>
10

>  <SCORE.norm>
-2.37469

>  <RMSD>
1.183

$$$$
ligand
 OpenBabel11021811503D
libRbt.so/2013.1/901 2013/11/27
 10 11  0  0  0  0  0  0  0  0999 V2000
   18.9971   -4.7561    2.5232 N   0  0  0  0  0  0  0  0  0  0  0  0
   17.9629   -5.3229    3.1160 C   0  0  0  0  0  0  0  0  0  0  0  0
   16.9261   -4.5175    3.5991 N   0  0  0  0  0  0  0  0  0  0  0  0
   16.9996   -3.1856    3.4702 C   0  0  0  0  0  0  0  0  0  0  0  0
   18.0479   -2.6194    2.8769 C   0  0  0  0  0  0  0  0  0  0  0  0
   19.0387   -3.3638    2.3915 C   0  0  0  0  0  0  0  0  0  0  0  0
   19.9932   -2.8408    1.8188 O   0  0  0  0  0  0  0  0  0  0  0  0
   17.8953   -1.3004    2.9550 N   0  0  0  0  0  0  0  0  0  0  0  0
   16.7543   -1.0495    3.5893 C   0  0  0  0  0  0  0  0  0  0  0  0
   16.1978   -2.2168    3.9002 N   0  0  0  0  0  0  0  0  0  0  0  0
  1  2  1  0  0  0  0
  1  6  1  0  0  0  0
  2  3  2  0  0  0  0
  3  4  1  0  0  0  0
  4  5  2  0  0  0  0
  4 10  1  0  0  0  0
  5  6  1  0  0  0  0
  5  8  1  0  0  0  0
  6  7  2  0  0  0  0
  8  9  1  0  0  0  0
  9 10  2  0  0  0  0
M  END
>  <CHROM.1>
17.92225156,-3.11379600,3.00093775,0.77514830,-0.50420754,3.09377029

>  <Name>
ligand

>  <RI>
0

>  <Rbt.Current_Directory>
/home/itssahil/PROJECTS/Mol_Feturizer/New_Systems/rnas/4NYD

>  <Rbt.Executable>
rbdock ($Id: //depot/dev/client3/rdock/2013.1/src/exe/rbdock.cxx#4 $)

>  <Rbt.Library>
libRbt.so (2013.1, Build901 2013/11/27)

>  <Rbt.Parameter_File>
/export/apps/rDock/src/rDock_2013.1_src/data/scripts/dock_solv.prm

>  <Rbt.Receptor>
prm/pocket_docking_4.prm

>  <SCORE>
-23.7562

>  <SCORE.INTER>
-23.7562

>  <SCORE.INTER.CONST>
1

>  <SCORE.INTER.POLAR>
0

>  <SCORE.INTER.ROT>
0

>  <SCORE.INTER.SOLV>
3.3498

>  <SCORE.INTER.VDW>
-20.5541

>  <SCORE.INTER.norm>
-2.37562

>  <SCORE.INTRA>
0

>  <SCORE.INTRA.DIHEDRAL>
0

>  <SCORE.INTRA.DIHEDRAL.0>
0

>  <SCORE.INTRA.POLAR>
0

>  <SCORE.INTRA.POLAR.0>
0

>  <SCORE.INTRA.REPUL>
0

>  <SCORE.INTRA.REPUL.0>
0

>  <SCORE.INTRA.SOLV>
0

>  <SCORE.INTRA.SOLV.lig_0>
-4.1818

>  <SCORE.INTRA.VDW>
0

>  <SCORE.INTRA.VDW.0>
0

>  <SCORE.INTRA.norm>
0

>  <SCORE.RESTR>
0

>  <SCORE.RESTR.CAVITY>
0

>  <SCORE.RESTR.norm>
0

>  <SCORE.SYSTEM>
0

>  <SCORE.SYSTEM.CONST>
0

>  <SCORE.SYSTEM.DIHEDRAL>
0

>  <SCORE.SYSTEM.SOLV>
0

>  <SCORE.SYSTEM.norm>
0

>  <SCORE.heavy>
10

>  <SCORE.norm>
-2.37562

>  <RMSD>
1.183

$$$$
ligand
 OpenBabel11021811503D
libRbt.so/2013.1/901 2013/11/27
 10 11  0  0  0  0  0  0  0  0999 V2000
   18.9869   -4.7425    2.5231 N   0  0  0  0  0  0  0  0  0  0  0  0
   17.9483   -5.3002    3.1169 C   0  0  0  0  0  0  0  0  0  0  0  0
   16.9136   -4.4866    3.5907 N   0  0  0  0  0  0  0  0  0  0  0  0
   16.9934   -3.1560    3.4519 C   0  0  0  0  0  0  0  0  0  0  0  0
   18.0461   -2.5991    2.8577 C   0  0  0  0  0  0  0  0  0  0  0  0
   19.0350   -3.3515    2.3811 C   0  0  0  0  0  0  0  0  0  0  0  0
   19.9937   -2.8370    1.8075 O   0  0  0  0  0  0  0  0  0  0  0  0
   17.8990   -1.2788    2.9253 N   0  0  0  0  0  0  0  0  0  0  0  0
   16.7572   -1.0181    3.5541 C   0  0  0  0  0  0  0  0  0  0  0  0
   16.1946   -2.1806    3.8721 N   0  0  0  0  0  0  0  0  0  0  0  0
  1  2  1  0  0  0  0
  1  6  1  0  0  0  0
  2  3  2  0  0  0  0
  3  4  1  0  0  0  0
  4  5  2  0  0  0  0
  4 10  1  0  0  0  0
  5  6  1  0  0  0  0
  5  8  1  0  0  0  0
  6  7  2  0  0  0  0
  8  9  1  0  0  0  0
  9 10  2  0  0  0  0
M  END
>  <CHROM.1>
17.91784138,-3.09189285,2.98508782,0.78036311,-0.50128465,3.08871637

>  <Name>
ligand

>  <RI>
0

>  <Rbt.Current_Directory>
/home/itssahil/PROJECTS/Mol_Feturizer/New_Systems/rnas/4NYD

>  <Rbt.Executable>
rbdock ($Id: //depot/dev/client3/rdock/2013.1/src/exe/rbdock.cxx#4 $)

>  <Rbt.Library>
libRbt.so (2013.1, Build901 2013/11/27)

>  <Rbt.Parameter_File>
/export/apps/rDock/src/rDock_2013.1_src/data/scripts/dock_solv.prm

>  <Rbt.Receptor>
prm/pocket_docking_5.prm

>  <SCORE>
-23.7053

>  <SCORE.INTER>
-23.7053

>  <SCORE.INTER.CONST>
1

>  <SCORE.INTER.POLAR>
0

>  <SCORE.INTER.ROT>
0

>  <SCORE.INTER.SOLV>
3.32702

>  <SCORE.INTER.VDW>
-20.5125

>  <SCORE.INTER.norm>
-2.37053

>  <SCORE.INTRA>
0

>  <SCORE.INTRA.DIHEDRAL>
0

>  <SCORE.INTRA.DIHEDRAL.0>
0

>  <SCORE.INTRA.POLAR>
0

>  <SCORE.INTRA.POLAR.0>
0

>  <SCORE.INTRA.REPUL>
0

>  <SCORE.INTRA.REPUL.0>
0

>  <SCORE.INTRA.SOLV>
0

>  <SCORE.INTRA.SOLV.lig_0>
-4.1818

>  <SCORE.INTRA.VDW>
0

>  <SCORE.INTRA.VDW.0>
0

>  <SCORE.INTRA.norm>
0

>  <SCORE.RESTR>
0

>  <SCORE.RESTR.CAVITY>
0

>  <SCORE.RESTR.norm>
0

>  <SCORE.SYSTEM>
0

>  <SCORE.SYSTEM.CONST>
0

>  <SCORE.SYSTEM.DIHEDRAL>
0

>  <SCORE.SYSTEM.SOLV>
0

>  <SCORE.SYSTEM.norm>
0

>  <SCORE.heavy>
10

>  <SCORE.norm>
-2.37053

>  <RMSD>
1.183

$$$$
ligand
 OpenBabel11021811503D
libRbt.so/2013.1/901 2013/11/27
 10 11  0  0  0  0  0  0  0  0999 V2000
   18.9777   -4.8095    2.4785 N   0  0  0  0  0  0  0  0  0  0  0  0
   17.9526   -5.3667    3.0957 C   0  0  0  0  0  0  0  0  0  0  0  0
   16.9248   -4.5533    3.5847 N   0  0  0  0  0  0  0  0  0  0  0  0
   16.9980   -3.2233    3.4366 C   0  0  0  0  0  0  0  0  0  0  0  0
   18.0372   -2.6668    2.8188 C   0  0  0  0  0  0  0  0  0  0  0  0
   19.0190   -3.4192    2.3274 C   0  0  0  0  0  0  0  0  0  0  0  0
   19.9647   -2.9054    1.7323 O   0  0  0  0  0  0  0  0  0  0  0  0
   17.8875   -1.3466    2.8815 N   0  0  0  0  0  0  0  0  0  0  0  0
   16.7574   -1.0855    3.5309 C   0  0  0  0  0  0  0  0  0  0  0  0
   16.2045   -2.2477    3.8666 N   0  0  0  0  0  0  0  0  0  0  0  0
  1  2  1  0  0  0  0
  1  6  1  0  0  0  0
  2  3  2  0  0  0  0
  3  4  1  0  0  0  0
  4  5  2  0  0  0  0
  4 10  1  0  0  0  0
  5  6  1  0  0  0  0
  5  8  1  0  0  0  0
  6  7  2  0  0  0  0
  8  9  1  0  0  0  0
  9 10  2  0  0  0  0
M  END
>  <CHROM.1>
17.91293951,-3.15927976,2.95150178,0.77573920,-0.52055059,3.08057403

>  <Name>
ligand

>  <RI>
0

>  <Rbt.Current_Directory>
/home/itssahil/PROJECTS/Mol_Feturizer/New_Systems/rnas/4NYD

>  <Rbt.Executable>
rbdock ($Id: //depot/dev/client3/rdock/2013.1/src/exe/rbdock.cxx#4 $)

>  <Rbt.Library>
libRbt.so (2013.1, Build901 2013/11/27)

>  <Rbt.Parameter_File>
/export/apps/rDock/src/rDock_2013.1_src/data/scripts/dock_solv.prm

>  <Rbt.Receptor>
prm/pocket_docking_8.prm

>  <SCORE>
-23.6899

>  <SCORE.INTER>
-23.6899

>  <SCORE.INTER.CONST>
1

>  <SCORE.INTER.POLAR>
0

>  <SCORE.INTER.ROT>
0

>  <SCORE.INTER.SOLV>
3.30078

>  <SCORE.INTER.VDW>
-20.4936

>  <SCORE.INTER.norm>
-2.36899

>  <SCORE.INTRA>
0

>  <SCORE.INTRA.DIHEDRAL>
0

>  <SCORE.INTRA.DIHEDRAL.0>
0

>  <SCORE.INTRA.POLAR>
0

>  <SCORE.INTRA.POLAR.0>
0

>  <SCORE.INTRA.REPUL>
0

>  <SCORE.INTRA.REPUL.0>
0

>  <SCORE.INTRA.SOLV>
0

>  <SCORE.INTRA.SOLV.lig_0>
-4.1818

>  <SCORE.INTRA.VDW>
0

>  <SCORE.INTRA.VDW.0>
0

>  <SCORE.INTRA.norm>
0

>  <SCORE.RESTR>
0

>  <SCORE.RESTR.CAVITY>
0

>  <SCORE.RESTR.norm>
0

>  <SCORE.SYSTEM>
0

>  <SCORE.SYSTEM.CONST>
0

>  <SCORE.SYSTEM.DIHEDRAL>
0

>  <SCORE.SYSTEM.SOLV>
0

>  <SCORE.SYSTEM.norm>
0

>  <SCORE.heavy>
10

>  <SCORE.norm>
-2.36899

>  <RMSD>
1.183

$$$$
ligand
 OpenBabel11021811503D
libRbt.so/2013.1/901 2013/11/27
 10 11  0  0  0  0  0  0  0  0999 V2000
   18.9978   -4.7652    2.5103 N   0  0  0  0  0  0  0  0  0  0  0  0
   17.9741   -5.3350    3.1182 C   0  0  0  0  0  0  0  0  0  0  0  0
   16.9371   -4.5334    3.6071 N   0  0  0  0  0  0  0  0  0  0  0  0
   16.9999   -3.2019    3.4683 C   0  0  0  0  0  0  0  0  0  0  0  0
   18.0377   -2.6327    2.8597 C   0  0  0  0  0  0  0  0  0  0  0  0
   19.0283   -3.3737    2.3687 C   0  0  0  0  0  0  0  0  0  0  0  0
   19.9729   -2.8481    1.7820 O   0  0  0  0  0  0  0  0  0  0  0  0
   17.8768   -1.3143    2.9304 N   0  0  0  0  0  0  0  0  0  0  0  0
   16.7411   -1.0669    3.5754 C   0  0  0  0  0  0  0  0  0  0  0  0
   16.1961   -2.2358    3.9004 N   0  0  0  0  0  0  0  0  0  0  0  0
  1  2  1  0  0  0  0
  1  6  1  0  0  0  0
  2  3  2  0  0  0  0
  3  4  1  0  0  0  0
  4  5  2  0  0  0  0
  4 10  1  0  0  0  0
  5  6  1  0  0  0  0
  5  8  1  0  0  0  0
  6  7  2  0  0  0  0
  8  9  1  0  0  0  0
  9 10  2  0  0  0  0
M  END
>  <CHROM.1>
17.91687433,-3.12708010,2.98850289,0.76657875,-0.51472527,3.08268736

>  <Name>
ligand

>  <RI>
0

>  <Rbt.Current_Directory>
/home/itssahil/PROJECTS/Mol_Feturizer/New_Systems/rnas/4NYD

>  <Rbt.Executable>
rbdock ($Id: //depot/dev/client3/rdock/2013.1/src/exe/rbdock.cxx#4 $)

>  <Rbt.Library>
libRbt.so (2013.1, Build901 2013/11/27)

>  <Rbt.Parameter_File>
/export/apps/rDock/src/rDock_2013.1_src/data/scripts/dock_solv.prm

>  <Rbt.Receptor>
prm/blind_docking_100.prm

>  <SCORE>
-23.7216

>  <SCORE.INTER>
-23.7216

>  <SCORE.INTER.CONST>
1

>  <SCORE.INTER.POLAR>
0

>  <SCORE.INTER.ROT>
0

>  <SCORE.INTER.SOLV>
3.33489

>  <SCORE.INTER.VDW>
-20.526

>  <SCORE.INTER.norm>
-2.37216

>  <SCORE.INTRA>
0

>  <SCORE.INTRA.DIHEDRAL>
0

>  <SCORE.INTRA.DIHEDRAL.0>
0

>  <SCORE.INTRA.POLAR>
0

>  <SCORE.INTRA.POLAR.0>
0

>  <SCORE.INTRA.REPUL>
0

>  <SCORE.INTRA.REPUL.0>
0

>  <SCORE.INTRA.SOLV>
0

>  <SCORE.INTRA.SOLV.lig_0>
-4.1818

>  <SCORE.INTRA.VDW>
0

>  <SCORE.INTRA.VDW.0>
0

>  <SCORE.INTRA.norm>
0

>  <SCORE.RESTR>
0

>  <SCORE.RESTR.CAVITY>
0

>  <SCORE.RESTR.norm>
0

>  <SCORE.SYSTEM>
0

>  <SCORE.SYSTEM.CONST>
0

>  <SCORE.SYSTEM.DIHEDRAL>
0

>  <SCORE.SYSTEM.SOLV>
0

>  <SCORE.SYSTEM.norm>
0

>  <SCORE.heavy>
10

>  <SCORE.norm>
-2.37216

>  <RMSD>
1.184

$$$$
ligand
 OpenBabel11021811503D
libRbt.so/2013.1/901 2013/11/27
 10 11  0  0  0  0  0  0  0  0999 V2000
   18.9667   -4.7347    2.4582 N   0  0  0  0  0  0  0  0  0  0  0  0
   17.9248   -5.3088    3.0303 C   0  0  0  0  0  0  0  0  0  0  0  0
   16.8917   -4.5083    3.5292 N   0  0  0  0  0  0  0  0  0  0  0  0
   16.9764   -3.1740    3.4362 C   0  0  0  0  0  0  0  0  0  0  0  0
   18.0323   -2.6007    2.8637 C   0  0  0  0  0  0  0  0  0  0  0  0
   19.0198   -3.3398    2.3639 C   0  0  0  0  0  0  0  0  0  0  0  0
   19.9815   -2.8094    1.8103 O   0  0  0  0  0  0  0  0  0  0  0  0
   17.8895   -1.2830    2.9760 N   0  0  0  0  0  0  0  0  0  0  0  0
   16.7471   -1.0400    3.6108 C   0  0  0  0  0  0  0  0  0  0  0  0
   16.1798   -2.2107    3.8876 N   0  0  0  0  0  0  0  0  0  0  0  0
  1  2  1  0  0  0  0
  1  6  1  0  0  0  0
  2  3  2  0  0  0  0
  3  4  1  0  0  0  0
  4  5  2  0  0  0  0
  4 10  1  0  0  0  0
  5  6  1  0  0  0  0
  5  8  1  0  0  0  0
  6  7  2  0  0  0  0
  8  9  1  0  0  0  0
  9 10  2  0  0  0  0
M  END
>  <CHROM.1>
17.90208309,-3.09717640,2.97385669,0.78433921,-0.49911044,3.12477388

>  <Name>
ligand

>  <RI>
0

>  <Rbt.Current_Directory>
/home/itssahil/PROJECTS/Mol_Feturizer/New_Systems/rnas/4NYD

>  <Rbt.Executable>
rbdock ($Id: //depot/dev/client3/rdock/2013.1/src/exe/rbdock.cxx#4 $)

>  <Rbt.Library>
libRbt.so (2013.1, Build901 2013/11/27)

>  <Rbt.Parameter_File>
/export/apps/rDock/src/rDock_2013.1_src/data/scripts/dock_solv.prm

>  <Rbt.Receptor>
prm/blind_docking_40.prm

>  <SCORE>
-23.7259

>  <SCORE.INTER>
-23.7259

>  <SCORE.INTER.CONST>
1

>  <SCORE.INTER.POLAR>
0

>  <SCORE.INTER.ROT>
0

>  <SCORE.INTER.SOLV>
3.34276

>  <SCORE.INTER.VDW>
-20.5315

>  <SCORE.INTER.norm>
-2.37259

>  <SCORE.INTRA>
0

>  <SCORE.INTRA.DIHEDRAL>
0

>  <SCORE.INTRA.DIHEDRAL.0>
0

>  <SCORE.INTRA.POLAR>
0

>  <SCORE.INTRA.POLAR.0>
0

>  <SCORE.INTRA.REPUL>
0

>  <SCORE.INTRA.REPUL.0>
0

>  <SCORE.INTRA.SOLV>
0

>  <SCORE.INTRA.SOLV.lig_0>
-4.1818

>  <SCORE.INTRA.VDW>
0

>  <SCORE.INTRA.VDW.0>
0

>  <SCORE.INTRA.norm>
0

>  <SCORE.RESTR>
0

>  <SCORE.RESTR.CAVITY>
0

>  <SCORE.RESTR.norm>
0

>  <SCORE.SYSTEM>
0

>  <SCORE.SYSTEM.CONST>
0

>  <SCORE.SYSTEM.DIHEDRAL>
0

>  <SCORE.SYSTEM.SOLV>
0

>  <SCORE.SYSTEM.norm>
0

>  <SCORE.heavy>
10

>  <SCORE.norm>
-2.37259

>  <RMSD>
1.184

$$$$
ligand
 OpenBabel11021811503D
libRbt.so/2013.1/901 2013/11/27
 10 11  0  0  0  0  0  0  0  0999 V2000
   18.9848   -4.7568    2.4976 N   0  0  0  0  0  0  0  0  0  0  0  0
   17.9555   -5.3230    3.0995 C   0  0  0  0  0  0  0  0  0  0  0  0
   16.9247   -4.5168    3.5939 N   0  0  0  0  0  0  0  0  0  0  0  0
   16.9989   -3.1848    3.4663 C   0  0  0  0  0  0  0  0  0  0  0  0
   18.0423   -2.6193    2.8638 C   0  0  0  0  0  0  0  0  0  0  0  0
   19.0272   -3.3644    2.3677 C   0  0  0  0  0  0  0  0  0  0  0  0
   19.9769   -2.8419    1.7866 O   0  0  0  0  0  0  0  0  0  0  0  0
   17.8923   -1.3001    2.9454 N   0  0  0  0  0  0  0  0  0  0  0  0
   16.7579   -1.0486    3.5911 C   0  0  0  0  0  0  0  0  0  0  0  0
   16.2027   -2.2156    3.9056 N   0  0  0  0  0  0  0  0  0  0  0  0
  1  2  1  0  0  0  0
  1  6  1  0  0  0  0
  2  3  2  0  0  0  0
  3  4  1  0  0  0  0
  4  5  2  0  0  0  0
  4 10  1  0  0  0  0
  5  6  1  0  0  0  0
  5  8  1  0  0  0  0
  6  7  2  0  0  0  0
  8  9  1  0  0  0  0
  9 10  2  0  0  0  0
M  END
>  <CHROM.1>
17.91709516,-3.11366834,2.98829323,0.77632190,-0.51393823,3.09588468

>  <Name>
ligand

>  <RI>
0

>  <Rbt.Current_Directory>
/home/itssahil/PROJECTS/Mol_Feturizer/New_Systems/rnas/4NYD

>  <Rbt.Executable>
rbdock ($Id: //depot/dev/client3/rdock/2013.1/src/exe/rbdock.cxx#4 $)

>  <Rbt.Library>
libRbt.so (2013.1, Build901 2013/11/27)

>  <Rbt.Parameter_File>
/export/apps/rDock/src/rDock_2013.1_src/data/scripts/dock_solv.prm

>  <Rbt.Receptor>
prm/blind_docking_80.prm

>  <SCORE>
-23.7607

>  <SCORE.INTER>
-23.7607

>  <SCORE.INTER.CONST>
1

>  <SCORE.INTER.POLAR>
0

>  <SCORE.INTER.ROT>
0

>  <SCORE.INTER.SOLV>
3.34587

>  <SCORE.INTER.VDW>
-20.5558

>  <SCORE.INTER.norm>
-2.37607

>  <SCORE.INTRA>
0

>  <SCORE.INTRA.DIHEDRAL>
0

>  <SCORE.INTRA.DIHEDRAL.0>
0

>  <SCORE.INTRA.POLAR>
0

>  <SCORE.INTRA.POLAR.0>
0

>  <SCORE.INTRA.REPUL>
0

>  <SCORE.INTRA.REPUL.0>
0

>  <SCORE.INTRA.SOLV>
0

>  <SCORE.INTRA.SOLV.lig_0>
-4.1818

>  <SCORE.INTRA.VDW>
0

>  <SCORE.INTRA.VDW.0>
0

>  <SCORE.INTRA.norm>
0

>  <SCORE.RESTR>
0

>  <SCORE.RESTR.CAVITY>
0

>  <SCORE.RESTR.norm>
0

>  <SCORE.SYSTEM>
0

>  <SCORE.SYSTEM.CONST>
0

>  <SCORE.SYSTEM.DIHEDRAL>
0

>  <SCORE.SYSTEM.SOLV>
0

>  <SCORE.SYSTEM.norm>
0

>  <SCORE.heavy>
10

>  <SCORE.norm>
-2.37607

>  <RMSD>
1.184

$$$$
ligand
 OpenBabel11021811503D
libRbt.so/2013.1/901 2013/11/27
 10 11  0  0  0  0  0  0  0  0999 V2000
   18.9858   -4.7788    2.4749 N   0  0  0  0  0  0  0  0  0  0  0  0
   17.9617   -5.3527    3.0783 C   0  0  0  0  0  0  0  0  0  0  0  0
   16.9273   -4.5541    3.5774 N   0  0  0  0  0  0  0  0  0  0  0  0
   16.9930   -3.2214    3.4528 C   0  0  0  0  0  0  0  0  0  0  0  0
   18.0311   -2.6480    2.8488 C   0  0  0  0  0  0  0  0  0  0  0  0
   19.0193   -3.3859    2.3482 C   0  0  0  0  0  0  0  0  0  0  0  0
   19.9641   -2.8562    1.7658 O   0  0  0  0  0  0  0  0  0  0  0  0
   17.8734   -1.3300    2.9339 N   0  0  0  0  0  0  0  0  0  0  0  0
   16.7392   -1.0870    3.5833 C   0  0  0  0  0  0  0  0  0  0  0  0
   16.1921   -2.2581    3.8966 N   0  0  0  0  0  0  0  0  0  0  0  0
  1  2  1  0  0  0  0
  1  6  1  0  0  0  0
  2  3  2  0  0  0  0
  3  4  1  0  0  0  0
  4  5  2  0  0  0  0
  4 10  1  0  0  0  0
  5  6  1  0  0  0  0
  5  8  1  0  0  0  0
  6  7  2  0  0  0  0
  8  9  1  0  0  0  0
  9 10  2  0  0  0  0
M  END
>  <CHROM.1>
17.90935602,-3.14345095,2.97243613,0.76912295,-0.51640317,3.09471641

>  <Name>
ligand

>  <RI>
0

>  <Rbt.Current_Directory>
/home/itssahil/PROJECTS/Mol_Feturizer/New_Systems/rnas/4NYD

>  <Rbt.Executable>
rbdock ($Id: //depot/dev/client3/rdock/2013.1/src/exe/rbdock.cxx#4 $)

>  <Rbt.Library>
libRbt.so (2013.1, Build901 2013/11/27)

>  <Rbt.Parameter_File>
/export/apps/rDock/src/rDock_2013.1_src/data/scripts/dock_solv.prm

>  <Rbt.Receptor>
prm/blind_docking_80.prm

>  <SCORE>
-23.7079

>  <SCORE.INTER>
-23.7079

>  <SCORE.INTER.CONST>
1

>  <SCORE.INTER.POLAR>
0

>  <SCORE.INTER.ROT>
0

>  <SCORE.INTER.SOLV>
3.33223

>  <SCORE.INTER.VDW>
-20.516

>  <SCORE.INTER.norm>
-2.37079

>  <SCORE.INTRA>
0

>  <SCORE.INTRA.DIHEDRAL>
0

>  <SCORE.INTRA.DIHEDRAL.0>
0

>  <SCORE.INTRA.POLAR>
0

>  <SCORE.INTRA.POLAR.0>
0

>  <SCORE.INTRA.REPUL>
0

>  <SCORE.INTRA.REPUL.0>
0

>  <SCORE.INTRA.SOLV>
0

>  <SCORE.INTRA.SOLV.lig_0>
-4.1818

>  <SCORE.INTRA.VDW>
0

>  <SCORE.INTRA.VDW.0>
0

>  <SCORE.INTRA.norm>
0

>  <SCORE.RESTR>
0

>  <SCORE.RESTR.CAVITY>
0

>  <SCORE.RESTR.norm>
0

>  <SCORE.SYSTEM>
0

>  <SCORE.SYSTEM.CONST>
0

>  <SCORE.SYSTEM.DIHEDRAL>
0

>  <SCORE.SYSTEM.SOLV>
0

>  <SCORE.SYSTEM.norm>
0

>  <SCORE.heavy>
10

>  <SCORE.norm>
-2.37079

>  <RMSD>
1.184

$$$$
ligand
 OpenBabel11021811503D
libRbt.so/2013.1/901 2013/11/27
 10 11  0  0  0  0  0  0  0  0999 V2000
   18.9581   -4.7669    2.5304 N   0  0  0  0  0  0  0  0  0  0  0  0
   17.8979   -5.2957    3.1123 C   0  0  0  0  0  0  0  0  0  0  0  0
   16.8747   -4.4549    3.5628 N   0  0  0  0  0  0  0  0  0  0  0  0
   16.9870   -3.1277    3.4142 C   0  0  0  0  0  0  0  0  0  0  0  0
   18.0612   -2.5999    2.8321 C   0  0  0  0  0  0  0  0  0  0  0  0
   19.0401   -3.3786    2.3776 C   0  0  0  0  0  0  0  0  0  0  0  0
   20.0191   -2.8910    1.8149 O   0  0  0  0  0  0  0  0  0  0  0  0
   17.9433   -1.2761    2.8864 N   0  0  0  0  0  0  0  0  0  0  0  0
   16.7980   -0.9841    3.4948 C   0  0  0  0  0  0  0  0  0  0  0  0
   16.2041   -2.1307    3.8136 N   0  0  0  0  0  0  0  0  0  0  0  0
  1  2  1  0  0  0  0
  1  6  1  0  0  0  0
  2  3  2  0  0  0  0
  3  4  1  0  0  0  0
  4  5  2  0  0  0  0
  4 10  1  0  0  0  0
  5  6  1  0  0  0  0
  5  8  1  0  0  0  0
  6  7  2  0  0  0  0
  8  9  1  0  0  0  0
  9 10  2  0  0  0  0
M  END
>  <CHROM.1>
17.91982000,-3.08855519,2.96157733,0.80704638,-0.48671618,3.09285346

>  <Name>
ligand

>  <RI>
0

>  <Rbt.Current_Directory>
/home/itssahil/PROJECTS/Mol_Feturizer/New_Systems/rnas/4NYD

>  <Rbt.Executable>
rbdock ($Id: //depot/dev/client3/rdock/2013.1/src/exe/rbdock.cxx#4 $)

>  <Rbt.Library>
libRbt.so (2013.1, Build901 2013/11/27)

>  <Rbt.Parameter_File>
/export/apps/rDock/src/rDock_2013.1_src/data/scripts/dock_solv.prm

>  <Rbt.Receptor>
prm/blind_docking_80.prm

>  <SCORE>
-23.7139

>  <SCORE.INTER>
-23.7139

>  <SCORE.INTER.CONST>
1

>  <SCORE.INTER.POLAR>
0

>  <SCORE.INTER.ROT>
0

>  <SCORE.INTER.SOLV>
3.29693

>  <SCORE.INTER.VDW>
-20.5082

>  <SCORE.INTER.norm>
-2.37139

>  <SCORE.INTRA>
0

>  <SCORE.INTRA.DIHEDRAL>
0

>  <SCORE.INTRA.DIHEDRAL.0>
0

>  <SCORE.INTRA.POLAR>
0

>  <SCORE.INTRA.POLAR.0>
0

>  <SCORE.INTRA.REPUL>
0

>  <SCORE.INTRA.REPUL.0>
0

>  <SCORE.INTRA.SOLV>
0

>  <SCORE.INTRA.SOLV.lig_0>
-4.1818

>  <SCORE.INTRA.VDW>
0

>  <SCORE.INTRA.VDW.0>
0

>  <SCORE.INTRA.norm>
0

>  <SCORE.RESTR>
0

>  <SCORE.RESTR.CAVITY>
0

>  <SCORE.RESTR.norm>
0

>  <SCORE.SYSTEM>
0

>  <SCORE.SYSTEM.CONST>
0

>  <SCORE.SYSTEM.DIHEDRAL>
0

>  <SCORE.SYSTEM.SOLV>
0

>  <SCORE.SYSTEM.norm>
0

>  <SCORE.heavy>
10

>  <SCORE.norm>
-2.37139

>  <RMSD>
1.184

$$$$
ligand
 OpenBabel11021811503D
libRbt.so/2013.1/901 2013/11/27
 10 11  0  0  0  0  0  0  0  0999 V2000
   18.9849   -4.7548    2.4957 N   0  0  0  0  0  0  0  0  0  0  0  0
   17.9568   -5.3215    3.0991 C   0  0  0  0  0  0  0  0  0  0  0  0
   16.9260   -4.5160    3.5945 N   0  0  0  0  0  0  0  0  0  0  0  0
   16.9990   -3.1839    3.4663 C   0  0  0  0  0  0  0  0  0  0  0  0
   18.0411   -2.6179    2.8622 C   0  0  0  0  0  0  0  0  0  0  0  0
   19.0260   -3.3624    2.3652 C   0  0  0  0  0  0  0  0  0  0  0  0
   19.9746   -2.8394    1.7827 O   0  0  0  0  0  0  0  0  0  0  0  0
   17.8903   -1.2988    2.9435 N   0  0  0  0  0  0  0  0  0  0  0  0
   16.7566   -1.0479    3.5906 C   0  0  0  0  0  0  0  0  0  0  0  0
   16.2027   -2.2151    3.9063 N   0  0  0  0  0  0  0  0  0  0  0  0
  1  2  1  0  0  0  0
  1  6  1  0  0  0  0
  2  3  2  0  0  0  0
  3  4  1  0  0  0  0
  4  5  2  0  0  0  0
  4 10  1  0  0  0  0
  5  6  1  0  0  0  0
  5  8  1  0  0  0  0
  6  7  2  0  0  0  0
  8  9  1  0  0  0  0
  9 10  2  0  0  0  0
M  END
>  <CHROM.1>
17.91650958,-3.11230082,2.98709980,0.77537649,-0.51519634,3.09502751

>  <Name>
ligand

>  <RI>
0

>  <Rbt.Current_Directory>
/home/itssahil/PROJECTS/Mol_Feturizer/New_Systems/rnas/4NYD

>  <Rbt.Executable>
rbdock ($Id: //depot/dev/client3/rdock/2013.1/src/exe/rbdock.cxx#4 $)

>  <Rbt.Library>
libRbt.so (2013.1, Build901 2013/11/27)

>  <Rbt.Parameter_File>
/export/apps/rDock/src/rDock_2013.1_src/data/scripts/dock_solv.prm

>  <Rbt.Receptor>
prm/pocket_docking_4.prm

>  <SCORE>
-23.7631

>  <SCORE.INTER>
-23.7631

>  <SCORE.INTER.CONST>
1

>  <SCORE.INTER.POLAR>
0

>  <SCORE.INTER.ROT>
0

>  <SCORE.INTER.SOLV>
3.34493

>  <SCORE.INTER.VDW>
-20.5571

>  <SCORE.INTER.norm>
-2.37631

>  <SCORE.INTRA>
0

>  <SCORE.INTRA.DIHEDRAL>
0

>  <SCORE.INTRA.DIHEDRAL.0>
0

>  <SCORE.INTRA.POLAR>
0

>  <SCORE.INTRA.POLAR.0>
0

>  <SCORE.INTRA.REPUL>
0

>  <SCORE.INTRA.REPUL.0>
0

>  <SCORE.INTRA.SOLV>
0

>  <SCORE.INTRA.SOLV.lig_0>
-4.1818

>  <SCORE.INTRA.VDW>
0

>  <SCORE.INTRA.VDW.0>
0

>  <SCORE.INTRA.norm>
0

>  <SCORE.RESTR>
0

>  <SCORE.RESTR.CAVITY>
0

>  <SCORE.RESTR.norm>
0

>  <SCORE.SYSTEM>
0

>  <SCORE.SYSTEM.CONST>
0

>  <SCORE.SYSTEM.DIHEDRAL>
0

>  <SCORE.SYSTEM.SOLV>
0

>  <SCORE.SYSTEM.norm>
0

>  <SCORE.heavy>
10

>  <SCORE.norm>
-2.37631

>  <RMSD>
1.184

$$$$
ligand
 OpenBabel11021811503D
libRbt.so/2013.1/901 2013/11/27
 10 11  0  0  0  0  0  0  0  0999 V2000
   18.9880   -4.7437    2.4987 N   0  0  0  0  0  0  0  0  0  0  0  0
   17.9567   -5.3153    3.0921 C   0  0  0  0  0  0  0  0  0  0  0  0
   16.9225   -4.5139    3.5870 N   0  0  0  0  0  0  0  0  0  0  0  0
   16.9954   -3.1809    3.4685 C   0  0  0  0  0  0  0  0  0  0  0  0
   18.0408   -2.6100    2.8746 C   0  0  0  0  0  0  0  0  0  0  0  0
   19.0290   -3.3505    2.3782 C   0  0  0  0  0  0  0  0  0  0  0  0
   19.9807   -2.8228    1.8050 O   0  0  0  0  0  0  0  0  0  0  0  0
   17.8886   -1.2916    2.9642 N   0  0  0  0  0  0  0  0  0  0  0  0
   16.7509   -1.0459    3.6063 C   0  0  0  0  0  0  0  0  0  0  0  0
   16.1959   -2.2157    3.9105 N   0  0  0  0  0  0  0  0  0  0  0  0
  1  2  1  0  0  0  0
  1  6  1  0  0  0  0
  2  3  2  0  0  0  0
  3  4  1  0  0  0  0
  4  5  2  0  0  0  0
  4 10  1  0  0  0  0
  5  6  1  0  0  0  0
  5  8  1  0  0  0  0
  6  7  2  0  0  0  0
  8  9  1  0  0  0  0
  9 10  2  0  0  0  0
M  END
>  <CHROM.1>
17.91571661,-3.10534406,2.99527048,0.77494995,-0.50924289,3.10181334

>  <Name>
ligand

>  <RI>
0

>  <Rbt.Current_Directory>
/home/itssahil/PROJECTS/Mol_Feturizer/New_Systems/rnas/4NYD

>  <Rbt.Executable>
rbdock ($Id: //depot/dev/client3/rdock/2013.1/src/exe/rbdock.cxx#4 $)

>  <Rbt.Library>
libRbt.so (2013.1, Build901 2013/11/27)

>  <Rbt.Parameter_File>
/export/apps/rDock/src/rDock_2013.1_src/data/scripts/dock_solv.prm

>  <Rbt.Receptor>
prm/pocket_docking_6.prm

>  <SCORE>
-23.7546

>  <SCORE.INTER>
-23.7546

>  <SCORE.INTER.CONST>
1

>  <SCORE.INTER.POLAR>
0

>  <SCORE.INTER.ROT>
0

>  <SCORE.INTER.SOLV>
3.35406

>  <SCORE.INTER.VDW>
-20.5544

>  <SCORE.INTER.norm>
-2.37546

>  <SCORE.INTRA>
0

>  <SCORE.INTRA.DIHEDRAL>
0

>  <SCORE.INTRA.DIHEDRAL.0>
0

>  <SCORE.INTRA.POLAR>
0

>  <SCORE.INTRA.POLAR.0>
0

>  <SCORE.INTRA.REPUL>
0

>  <SCORE.INTRA.REPUL.0>
0

>  <SCORE.INTRA.SOLV>
0

>  <SCORE.INTRA.SOLV.lig_0>
-4.1818

>  <SCORE.INTRA.VDW>
0

>  <SCORE.INTRA.VDW.0>
0

>  <SCORE.INTRA.norm>
0

>  <SCORE.RESTR>
0

>  <SCORE.RESTR.CAVITY>
0

>  <SCORE.RESTR.norm>
0

>  <SCORE.SYSTEM>
0

>  <SCORE.SYSTEM.CONST>
0

>  <SCORE.SYSTEM.DIHEDRAL>
0

>  <SCORE.SYSTEM.SOLV>
0

>  <SCORE.SYSTEM.norm>
0

>  <SCORE.heavy>
10

>  <SCORE.norm>
-2.37546

>  <RMSD>
1.184

$$$$
ligand
 OpenBabel11021811503D
libRbt.so/2013.1/901 2013/11/27
 10 11  0  0  0  0  0  0  0  0999 V2000
   18.9491   -4.7653    2.5418 N   0  0  0  0  0  0  0  0  0  0  0  0
   17.8691   -5.2862    3.0936 C   0  0  0  0  0  0  0  0  0  0  0  0
   16.8464   -4.4368    3.5288 N   0  0  0  0  0  0  0  0  0  0  0  0
   16.9787   -3.1098    3.3965 C   0  0  0  0  0  0  0  0  0  0  0  0
   18.0728   -2.5900    2.8448 C   0  0  0  0  0  0  0  0  0  0  0  0
   19.0521   -3.3767    2.4051 C   0  0  0  0  0  0  0  0  0  0  0  0
   20.0499   -2.8961    1.8702 O   0  0  0  0  0  0  0  0  0  0  0  0
   17.9703   -1.2654    2.9099 N   0  0  0  0  0  0  0  0  0  0  0  0
   16.8149   -0.9649    3.4946 C   0  0  0  0  0  0  0  0  0  0  0  0
   16.1994   -2.1069    3.7878 N   0  0  0  0  0  0  0  0  0  0  0  0
  1  2  1  0  0  0  0
  1  6  1  0  0  0  0
  2  3  2  0  0  0  0
  3  4  1  0  0  0  0
  4  5  2  0  0  0  0
  4 10  1  0  0  0  0
  5  6  1  0  0  0  0
  5  8  1  0  0  0  0
  6  7  2  0  0  0  0
  8  9  1  0  0  0  0
  9 10  2  0  0  0  0
M  END
>  <CHROM.1>
17.92227496,-3.07813546,2.96593193,0.82236515,-0.46404649,3.10992717

>  <Name>
ligand

>  <RI>
0

>  <Rbt.Current_Directory>
/home/itssahil/PROJECTS/Mol_Feturizer/New_Systems/rnas/4NYD

>  <Rbt.Executable>
rbdock ($Id: //depot/dev/client3/rdock/2013.1/src/exe/rbdock.cxx#4 $)

>  <Rbt.Library>
libRbt.so (2013.1, Build901 2013/11/27)

>  <Rbt.Parameter_File>
/export/apps/rDock/src/rDock_2013.1_src/data/scripts/dock_solv.prm

>  <Rbt.Receptor>
prm/pocket_docking_6.prm

>  <SCORE>
-23.697

>  <SCORE.INTER>
-23.697

>  <SCORE.INTER.CONST>
1

>  <SCORE.INTER.POLAR>
0

>  <SCORE.INTER.ROT>
0

>  <SCORE.INTER.SOLV>
3.30393

>  <SCORE.INTER.VDW>
-20.4993

>  <SCORE.INTER.norm>
-2.3697

>  <SCORE.INTRA>
0

>  <SCORE.INTRA.DIHEDRAL>
0

>  <SCORE.INTRA.DIHEDRAL.0>
0

>  <SCORE.INTRA.POLAR>
0

>  <SCORE.INTRA.POLAR.0>
0

>  <SCORE.INTRA.REPUL>
0

>  <SCORE.INTRA.REPUL.0>
0

>  <SCORE.INTRA.SOLV>
0

>  <SCORE.INTRA.SOLV.lig_0>
-4.1818

>  <SCORE.INTRA.VDW>
0

>  <SCORE.INTRA.VDW.0>
0

>  <SCORE.INTRA.norm>
0

>  <SCORE.RESTR>
0

>  <SCORE.RESTR.CAVITY>
0

>  <SCORE.RESTR.norm>
0

>  <SCORE.SYSTEM>
0

>  <SCORE.SYSTEM.CONST>
0

>  <SCORE.SYSTEM.DIHEDRAL>
0

>  <SCORE.SYSTEM.SOLV>
0

>  <SCORE.SYSTEM.norm>
0

>  <SCORE.heavy>
10

>  <SCORE.norm>
-2.3697

>  <RMSD>
1.184

$$$$
ligand
 OpenBabel11021811503D
libRbt.so/2013.1/901 2013/11/27
 10 11  0  0  0  0  0  0  0  0999 V2000
   18.9572   -4.7747    2.4641 N   0  0  0  0  0  0  0  0  0  0  0  0
   17.9099   -5.3344    3.0404 C   0  0  0  0  0  0  0  0  0  0  0  0
   16.8853   -4.5203    3.5346 N   0  0  0  0  0  0  0  0  0  0  0  0
   16.9833   -3.1876    3.4328 C   0  0  0  0  0  0  0  0  0  0  0  0
   18.0447   -2.6287    2.8561 C   0  0  0  0  0  0  0  0  0  0  0  0
   19.0244   -3.3811    2.3607 C   0  0  0  0  0  0  0  0  0  0  0  0
   19.9912   -2.8640    1.8032 O   0  0  0  0  0  0  0  0  0  0  0  0
   17.9154   -1.3090    2.9600 N   0  0  0  0  0  0  0  0  0  0  0  0
   16.7758   -1.0503    3.5937 C   0  0  0  0  0  0  0  0  0  0  0  0
   16.1968   -2.2133    3.8784 N   0  0  0  0  0  0  0  0  0  0  0  0
  1  2  1  0  0  0  0
  1  6  1  0  0  0  0
  2  3  2  0  0  0  0
  3  4  1  0  0  0  0
  4  5  2  0  0  0  0
  4 10  1  0  0  0  0
  5  6  1  0  0  0  0
  5  8  1  0  0  0  0
  6  7  2  0  0  0  0
  8  9  1  0  0  0  0
  9 10  2  0  0  0  0
M  END
>  <CHROM.1>
17.90955306,-3.12313174,2.96959976,0.79587953,-0.49979952,3.12379177

>  <Name>
ligand

>  <RI>
0

>  <Rbt.Current_Directory>
/home/itssahil/PROJECTS/Mol_Feturizer/New_Systems/rnas/4NYD

>  <Rbt.Executable>
rbdock ($Id: //depot/dev/client3/rdock/2013.1/src/exe/rbdock.cxx#4 $)

>  <Rbt.Library>
libRbt.so (2013.1, Build901 2013/11/27)

>  <Rbt.Parameter_File>
/export/apps/rDock/src/rDock_2013.1_src/data/scripts/dock_solv.prm

>  <Rbt.Receptor>
prm/pocket_docking_7.prm

>  <SCORE>
-23.7371

>  <SCORE.INTER>
-23.7371

>  <SCORE.INTER.CONST>
1

>  <SCORE.INTER.POLAR>
0

>  <SCORE.INTER.ROT>
0

>  <SCORE.INTER.SOLV>
3.33878

>  <SCORE.INTER.VDW>
-20.5376

>  <SCORE.INTER.norm>
-2.37371

>  <SCORE.INTRA>
0

>  <SCORE.INTRA.DIHEDRAL>
0

>  <SCORE.INTRA.DIHEDRAL.0>
0

>  <SCORE.INTRA.POLAR>
0

>  <SCORE.INTRA.POLAR.0>
0

>  <SCORE.INTRA.REPUL>
0

>  <SCORE.INTRA.REPUL.0>
0

>  <SCORE.INTRA.SOLV>
0

>  <SCORE.INTRA.SOLV.lig_0>
-4.1818

>  <SCORE.INTRA.VDW>
0

>  <SCORE.INTRA.VDW.0>
0

>  <SCORE.INTRA.norm>
0

>  <SCORE.RESTR>
0

>  <SCORE.RESTR.CAVITY>
0

>  <SCORE.RESTR.norm>
0

>  <SCORE.SYSTEM>
0

>  <SCORE.SYSTEM.CONST>
0

>  <SCORE.SYSTEM.DIHEDRAL>
0

>  <SCORE.SYSTEM.SOLV>
0

>  <SCORE.SYSTEM.norm>
0

>  <SCORE.heavy>
10

>  <SCORE.norm>
-2.37371

>  <RMSD>
1.184

$$$$
ligand
 OpenBabel11021811503D
libRbt.so/2013.1/901 2013/11/27
 10 11  0  0  0  0  0  0  0  0999 V2000
   19.0066   -4.7792    2.5163 N   0  0  0  0  0  0  0  0  0  0  0  0
   17.9871   -5.3519    3.1286 C   0  0  0  0  0  0  0  0  0  0  0  0
   16.9445   -4.5542    3.6120 N   0  0  0  0  0  0  0  0  0  0  0  0
   16.9979   -3.2233    3.4635 C   0  0  0  0  0  0  0  0  0  0  0  0
   18.0315   -2.6512    2.8506 C   0  0  0  0  0  0  0  0  0  0  0  0
   19.0272   -3.3886    2.3646 C   0  0  0  0  0  0  0  0  0  0  0  0
   19.9679   -2.8605    1.7739 O   0  0  0  0  0  0  0  0  0  0  0  0
   17.8612   -1.3334    2.9118 N   0  0  0  0  0  0  0  0  0  0  0  0
   16.7239   -1.0894    3.5553 C   0  0  0  0  0  0  0  0  0  0  0  0
   16.1873   -2.2598    3.8889 N   0  0  0  0  0  0  0  0  0  0  0  0
  1  2  1  0  0  0  0
  1  6  1  0  0  0  0
  2  3  2  0  0  0  0
  3  4  1  0  0  0  0
  4  5  2  0  0  0  0
  4 10  1  0  0  0  0
  5  6  1  0  0  0  0
  5  8  1  0  0  0  0
  6  7  2  0  0  0  0
  8  9  1  0  0  0  0
  9 10  2  0  0  0  0
M  END
>  <CHROM.1>
17.91416535,-3.14541591,2.98297443,0.75842523,-0.51452507,3.07147038

>  <Name>
ligand

>  <RI>
0

>  <Rbt.Current_Directory>
/home/itssahil/PROJECTS/Mol_Feturizer/New_Systems/rnas/4NYD

>  <Rbt.Executable>
rbdock ($Id: //depot/dev/client3/rdock/2013.1/src/exe/rbdock.cxx#4 $)

>  <Rbt.Library>
libRbt.so (2013.1, Build901 2013/11/27)

>  <Rbt.Parameter_File>
/export/apps/rDock/src/rDock_2013.1_src/data/scripts/dock_solv.prm

>  <Rbt.Receptor>
prm/blind_docking_100.prm

>  <SCORE>
-23.7257

>  <SCORE.INTER>
-23.7257

>  <SCORE.INTER.CONST>
1

>  <SCORE.INTER.POLAR>
0

>  <SCORE.INTER.ROT>
0

>  <SCORE.INTER.SOLV>
3.322

>  <SCORE.INTER.VDW>
-20.5244

>  <SCORE.INTER.norm>
-2.37257

>  <SCORE.INTRA>
0

>  <SCORE.INTRA.DIHEDRAL>
0

>  <SCORE.INTRA.DIHEDRAL.0>
0

>  <SCORE.INTRA.POLAR>
0

>  <SCORE.INTRA.POLAR.0>
0

>  <SCORE.INTRA.REPUL>
0

>  <SCORE.INTRA.REPUL.0>
0

>  <SCORE.INTRA.SOLV>
0

>  <SCORE.INTRA.SOLV.lig_0>
-4.1818

>  <SCORE.INTRA.VDW>
0

>  <SCORE.INTRA.VDW.0>
0

>  <SCORE.INTRA.norm>
0

>  <SCORE.RESTR>
0

>  <SCORE.RESTR.CAVITY>
0

>  <SCORE.RESTR.norm>
0

>  <SCORE.SYSTEM>
0

>  <SCORE.SYSTEM.CONST>
0

>  <SCORE.SYSTEM.DIHEDRAL>
0

>  <SCORE.SYSTEM.SOLV>
0

>  <SCORE.SYSTEM.norm>
0

>  <SCORE.heavy>
10

>  <SCORE.norm>
-2.37257

>  <RMSD>
1.185

$$$$
ligand
 OpenBabel11021811503D
libRbt.so/2013.1/901 2013/11/27
 10 11  0  0  0  0  0  0  0  0999 V2000
   18.9070   -4.8059    2.5353 N   0  0  0  0  0  0  0  0  0  0  0  0
   17.8315   -5.2735    3.1411 C   0  0  0  0  0  0  0  0  0  0  0  0
   16.8486   -4.3783    3.5763 N   0  0  0  0  0  0  0  0  0  0  0  0
   17.0143   -3.0616    3.3890 C   0  0  0  0  0  0  0  0  0  0  0  0
   18.1038   -2.5957    2.7829 C   0  0  0  0  0  0  0  0  0  0  0  0
   19.0451   -3.4271    2.3424 C   0  0  0  0  0  0  0  0  0  0  0  0
   20.0379   -2.9967    1.7577 O   0  0  0  0  0  0  0  0  0  0  0  0
   18.0414   -1.2671    2.8006 N   0  0  0  0  0  0  0  0  0  0  0  0
   16.9152   -0.9107    3.4102 C   0  0  0  0  0  0  0  0  0  0  0  0
   16.2774   -2.0221    3.7666 N   0  0  0  0  0  0  0  0  0  0  0  0
  1  2  1  0  0  0  0
  1  6  1  0  0  0  0
  2  3  2  0  0  0  0
  3  4  1  0  0  0  0
  4  5  2  0  0  0  0
  4 10  1  0  0  0  0
  5  6  1  0  0  0  0
  5  8  1  0  0  0  0
  6  7  2  0  0  0  0
  8  9  1  0  0  0  0
  9 10  2  0  0  0  0
M  END
>  <CHROM.1>
17.94352341,-3.07422790,2.92745713,0.85368490,-0.49804400,3.08661474

>  <Name>
ligand

>  <RI>
0

>  <Rbt.Current_Directory>
/home/itssahil/PROJECTS/Mol_Feturizer/New_Systems/rnas/4NYD

>  <Rbt.Executable>
rbdock ($Id: //depot/dev/client3/rdock/2013.1/src/exe/rbdock.cxx#4 $)

>  <Rbt.Library>
libRbt.so (2013.1, Build901 2013/11/27)

>  <Rbt.Parameter_File>
/export/apps/rDock/src/rDock_2013.1_src/data/scripts/dock_solv.prm

>  <Rbt.Receptor>
prm/blind_docking_40.prm

>  <SCORE>
-23.6447

>  <SCORE.INTER>
-23.6447

>  <SCORE.INTER.CONST>
1

>  <SCORE.INTER.POLAR>
0

>  <SCORE.INTER.ROT>
0

>  <SCORE.INTER.SOLV>
3.26215

>  <SCORE.INTER.VDW>
-20.4505

>  <SCORE.INTER.norm>
-2.36447

>  <SCORE.INTRA>
0

>  <SCORE.INTRA.DIHEDRAL>
0

>  <SCORE.INTRA.DIHEDRAL.0>
0

>  <SCORE.INTRA.POLAR>
0

>  <SCORE.INTRA.POLAR.0>
0

>  <SCORE.INTRA.REPUL>
0

>  <SCORE.INTRA.REPUL.0>
0

>  <SCORE.INTRA.SOLV>
0

>  <SCORE.INTRA.SOLV.lig_0>
-4.1818

>  <SCORE.INTRA.VDW>
0

>  <SCORE.INTRA.VDW.0>
0

>  <SCORE.INTRA.norm>
0

>  <SCORE.RESTR>
0

>  <SCORE.RESTR.CAVITY>
0

>  <SCORE.RESTR.norm>
0

>  <SCORE.SYSTEM>
0

>  <SCORE.SYSTEM.CONST>
0

>  <SCORE.SYSTEM.DIHEDRAL>
0

>  <SCORE.SYSTEM.SOLV>
0

>  <SCORE.SYSTEM.norm>
0

>  <SCORE.heavy>
10

>  <SCORE.norm>
-2.36447

>  <RMSD>
1.185

$$$$
ligand
 OpenBabel11021811503D
libRbt.so/2013.1/901 2013/11/27
 10 11  0  0  0  0  0  0  0  0999 V2000
   18.9950   -4.7455    2.5175 N   0  0  0  0  0  0  0  0  0  0  0  0
   17.9639   -5.3152    3.1130 C   0  0  0  0  0  0  0  0  0  0  0  0
   16.9270   -4.5127    3.6006 N   0  0  0  0  0  0  0  0  0  0  0  0
   16.9972   -3.1804    3.4730 C   0  0  0  0  0  0  0  0  0  0  0  0
   18.0423   -2.6113    2.8769 C   0  0  0  0  0  0  0  0  0  0  0  0
   19.0331   -3.3530    2.3874 C   0  0  0  0  0  0  0  0  0  0  0  0
   19.9845   -2.8272    1.8121 O   0  0  0  0  0  0  0  0  0  0  0  0
   17.8870   -1.2927    2.9570 N   0  0  0  0  0  0  0  0  0  0  0  0
   16.7476   -1.0451    3.5954 C   0  0  0  0  0  0  0  0  0  0  0  0
   16.1947   -2.2140    3.9068 N   0  0  0  0  0  0  0  0  0  0  0  0
  1  2  1  0  0  0  0
  1  6  1  0  0  0  0
  2  3  2  0  0  0  0
  3  4  1  0  0  0  0
  4  5  2  0  0  0  0
  4 10  1  0  0  0  0
  5  6  1  0  0  0  0
  5  8  1  0  0  0  0
  6  7  2  0  0  0  0
  8  9  1  0  0  0  0
  9 10  2  0  0  0  0
M  END
>  <CHROM.1>
17.91811726,-3.10609591,3.00075326,0.77246116,-0.50742253,3.09363974

>  <Name>
ligand

>  <RI>
0

>  <Rbt.Current_Directory>
/home/itssahil/PROJECTS/Mol_Feturizer/New_Systems/rnas/4NYD

>  <Rbt.Executable>
rbdock ($Id: //depot/dev/client3/rdock/2013.1/src/exe/rbdock.cxx#4 $)

>  <Rbt.Library>
libRbt.so (2013.1, Build901 2013/11/27)

>  <Rbt.Parameter_File>
/export/apps/rDock/src/rDock_2013.1_src/data/scripts/dock_solv.prm

>  <Rbt.Receptor>
prm/blind_docking_60.prm

>  <SCORE>
-23.7636

>  <SCORE.INTER>
-23.7636

>  <SCORE.INTER.CONST>
1

>  <SCORE.INTER.POLAR>
0

>  <SCORE.INTER.ROT>
0

>  <SCORE.INTER.SOLV>
3.35163

>  <SCORE.INTER.VDW>
-20.5596

>  <SCORE.INTER.norm>
-2.37636

>  <SCORE.INTRA>
0

>  <SCORE.INTRA.DIHEDRAL>
0

>  <SCORE.INTRA.DIHEDRAL.0>
0

>  <SCORE.INTRA.POLAR>
0

>  <SCORE.INTRA.POLAR.0>
0

>  <SCORE.INTRA.REPUL>
0

>  <SCORE.INTRA.REPUL.0>
0

>  <SCORE.INTRA.SOLV>
0

>  <SCORE.INTRA.SOLV.lig_0>
-4.1818

>  <SCORE.INTRA.VDW>
0

>  <SCORE.INTRA.VDW.0>
0

>  <SCORE.INTRA.norm>
0

>  <SCORE.RESTR>
0

>  <SCORE.RESTR.CAVITY>
0

>  <SCORE.RESTR.norm>
0

>  <SCORE.SYSTEM>
0

>  <SCORE.SYSTEM.CONST>
0

>  <SCORE.SYSTEM.DIHEDRAL>
0

>  <SCORE.SYSTEM.SOLV>
0

>  <SCORE.SYSTEM.norm>
0

>  <SCORE.heavy>
10

>  <SCORE.norm>
-2.37636

>  <RMSD>
1.185

$$$$
ligand
 OpenBabel11021811503D
libRbt.so/2013.1/901 2013/11/27
 10 11  0  0  0  0  0  0  0  0999 V2000
   18.9933   -4.7838    2.5093 N   0  0  0  0  0  0  0  0  0  0  0  0
   17.9717   -5.3441    3.1296 C   0  0  0  0  0  0  0  0  0  0  0  0
   16.9348   -4.5354    3.6068 N   0  0  0  0  0  0  0  0  0  0  0  0
   16.9956   -3.2065    3.4445 C   0  0  0  0  0  0  0  0  0  0  0  0
   18.0311   -2.6467    2.8235 C   0  0  0  0  0  0  0  0  0  0  0  0
   19.0215   -3.3949    2.3432 C   0  0  0  0  0  0  0  0  0  0  0  0
   19.9640   -2.8784    1.7451 O   0  0  0  0  0  0  0  0  0  0  0  0
   17.8686   -1.3274    2.8714 N   0  0  0  0  0  0  0  0  0  0  0  0
   16.7341   -1.0702    3.5147 C   0  0  0  0  0  0  0  0  0  0  0  0
   16.1915   -2.2339    3.8616 N   0  0  0  0  0  0  0  0  0  0  0  0
  1  2  1  0  0  0  0
  1  6  1  0  0  0  0
  2  3  2  0  0  0  0
  3  4  1  0  0  0  0
  4  5  2  0  0  0  0
  4 10  1  0  0  0  0
  5  6  1  0  0  0  0
  5  8  1  0  0  0  0
  6  7  2  0  0  0  0
  8  9  1  0  0  0  0
  9 10  2  0  0  0  0
M  END
>  <CHROM.1>
17.91126966,-3.13888346,2.96125402,0.76487984,-0.51704217,3.06429128

>  <Name>
ligand

>  <RI>
0

>  <Rbt.Current_Directory>
/home/itssahil/PROJECTS/Mol_Feturizer/New_Systems/rnas/4NYD

>  <Rbt.Executable>
rbdock ($Id: //depot/dev/client3/rdock/2013.1/src/exe/rbdock.cxx#4 $)

>  <Rbt.Library>
libRbt.so (2013.1, Build901 2013/11/27)

>  <Rbt.Parameter_File>
/export/apps/rDock/src/rDock_2013.1_src/data/scripts/dock_solv.prm

>  <Rbt.Receptor>
prm/pocket_docking_4.prm

>  <SCORE>
-23.6945

>  <SCORE.INTER>
-23.6945

>  <SCORE.INTER.CONST>
1

>  <SCORE.INTER.POLAR>
0

>  <SCORE.INTER.ROT>
0

>  <SCORE.INTER.SOLV>
3.29391

>  <SCORE.INTER.VDW>
-20.4943

>  <SCORE.INTER.norm>
-2.36945

>  <SCORE.INTRA>
0

>  <SCORE.INTRA.DIHEDRAL>
0

>  <SCORE.INTRA.DIHEDRAL.0>
0

>  <SCORE.INTRA.POLAR>
0

>  <SCORE.INTRA.POLAR.0>
0

>  <SCORE.INTRA.REPUL>
0

>  <SCORE.INTRA.REPUL.0>
0

>  <SCORE.INTRA.SOLV>
0

>  <SCORE.INTRA.SOLV.lig_0>
-4.1818

>  <SCORE.INTRA.VDW>
0

>  <SCORE.INTRA.VDW.0>
0

>  <SCORE.INTRA.norm>
0

>  <SCORE.RESTR>
0

>  <SCORE.RESTR.CAVITY>
0

>  <SCORE.RESTR.norm>
0

>  <SCORE.SYSTEM>
0

>  <SCORE.SYSTEM.CONST>
0

>  <SCORE.SYSTEM.DIHEDRAL>
0

>  <SCORE.SYSTEM.SOLV>
0

>  <SCORE.SYSTEM.norm>
0

>  <SCORE.heavy>
10

>  <SCORE.norm>
-2.36945

>  <RMSD>
1.185

$$$$
ligand
 OpenBabel11021811503D
libRbt.so/2013.1/901 2013/11/27
 10 11  0  0  0  0  0  0  0  0999 V2000
   18.9904   -4.7448    2.5078 N   0  0  0  0  0  0  0  0  0  0  0  0
   17.9602   -5.3150    3.1043 C   0  0  0  0  0  0  0  0  0  0  0  0
   16.9251   -4.5127    3.5960 N   0  0  0  0  0  0  0  0  0  0  0  0
   16.9962   -3.1802    3.4712 C   0  0  0  0  0  0  0  0  0  0  0  0
   18.0404   -2.6106    2.8741 C   0  0  0  0  0  0  0  0  0  0  0  0
   19.0295   -3.3520    2.3808 C   0  0  0  0  0  0  0  0  0  0  0  0
   19.9801   -2.8258    1.8046 O   0  0  0  0  0  0  0  0  0  0  0  0
   17.8865   -1.2920    2.9577 N   0  0  0  0  0  0  0  0  0  0  0  0
   16.7487   -1.0449    3.5991 C   0  0  0  0  0  0  0  0  0  0  0  0
   16.1955   -2.2140    3.9091 N   0  0  0  0  0  0  0  0  0  0  0  0
  1  2  1  0  0  0  0
  1  6  1  0  0  0  0
  2  3  2  0  0  0  0
  3  4  1  0  0  0  0
  4  5  2  0  0  0  0
  4 10  1  0  0  0  0
  5  6  1  0  0  0  0
  5  8  1  0  0  0  0
  6  7  2  0  0  0  0
  8  9  1  0  0  0  0
  9 10  2  0  0  0  0
M  END
>  <CHROM.1>
17.91611148,-3.10557816,2.99717084,0.77335634,-0.50966912,3.09636487

>  <Name>
ligand

>  <RI>
0

>  <Rbt.Current_Directory>
/home/itssahil/PROJECTS/Mol_Feturizer/New_Systems/rnas/4NYD

>  <Rbt.Executable>
rbdock ($Id: //depot/dev/client3/rdock/2013.1/src/exe/rbdock.cxx#4 $)

>  <Rbt.Library>
libRbt.so (2013.1, Build901 2013/11/27)

>  <Rbt.Parameter_File>
/export/apps/rDock/src/rDock_2013.1_src/data/scripts/dock_solv.prm

>  <Rbt.Receptor>
prm/pocket_docking_4.prm

>  <SCORE>
-23.7622

>  <SCORE.INTER>
-23.7622

>  <SCORE.INTER.CONST>
1

>  <SCORE.INTER.POLAR>
0

>  <SCORE.INTER.ROT>
0

>  <SCORE.INTER.SOLV>
3.35212

>  <SCORE.INTER.VDW>
-20.5588

>  <SCORE.INTER.norm>
-2.37622

>  <SCORE.INTRA>
0

>  <SCORE.INTRA.DIHEDRAL>
0

>  <SCORE.INTRA.DIHEDRAL.0>
0

>  <SCORE.INTRA.POLAR>
0

>  <SCORE.INTRA.POLAR.0>
0

>  <SCORE.INTRA.REPUL>
0

>  <SCORE.INTRA.REPUL.0>
0

>  <SCORE.INTRA.SOLV>
0

>  <SCORE.INTRA.SOLV.lig_0>
-4.1818

>  <SCORE.INTRA.VDW>
0

>  <SCORE.INTRA.VDW.0>
0

>  <SCORE.INTRA.norm>
0

>  <SCORE.RESTR>
0

>  <SCORE.RESTR.CAVITY>
0

>  <SCORE.RESTR.norm>
0

>  <SCORE.SYSTEM>
0

>  <SCORE.SYSTEM.CONST>
0

>  <SCORE.SYSTEM.DIHEDRAL>
0

>  <SCORE.SYSTEM.SOLV>
0

>  <SCORE.SYSTEM.norm>
0

>  <SCORE.heavy>
10

>  <SCORE.norm>
-2.37622

>  <RMSD>
1.185

$$$$
ligand
 OpenBabel11021811503D
libRbt.so/2013.1/901 2013/11/27
 10 11  0  0  0  0  0  0  0  0999 V2000
   18.9432   -4.7574    2.5317 N   0  0  0  0  0  0  0  0  0  0  0  0
   17.8765   -5.2751    3.1119 C   0  0  0  0  0  0  0  0  0  0  0  0
   16.8654   -4.4230    3.5683 N   0  0  0  0  0  0  0  0  0  0  0  0
   16.9955   -3.0966    3.4271 C   0  0  0  0  0  0  0  0  0  0  0  0
   18.0761   -2.5801    2.8466 C   0  0  0  0  0  0  0  0  0  0  0  0
   19.0439   -3.3695    2.3866 C   0  0  0  0  0  0  0  0  0  0  0  0
   20.0287   -2.8921    1.8255 O   0  0  0  0  0  0  0  0  0  0  0  0
   17.9762   -1.2552    2.9085 N   0  0  0  0  0  0  0  0  0  0  0  0
   16.8356   -0.9512    3.5199 C   0  0  0  0  0  0  0  0  0  0  0  0
   16.2266   -2.0914    3.8329 N   0  0  0  0  0  0  0  0  0  0  0  0
  1  2  1  0  0  0  0
  1  6  1  0  0  0  0
  2  3  2  0  0  0  0
  3  4  1  0  0  0  0
  4  5  2  0  0  0  0
  4 10  1  0  0  0  0
  5  6  1  0  0  0  0
  5  8  1  0  0  0  0
  6  7  2  0  0  0  0
  8  9  1  0  0  0  0
  9 10  2  0  0  0  0
M  END
>  <CHROM.1>
17.92823888,-3.06757864,2.97351752,0.82232481,-0.48844230,3.10560966

>  <Name>
ligand

>  <RI>
0

>  <Rbt.Current_Directory>
/home/itssahil/PROJECTS/Mol_Feturizer/New_Systems/rnas/4NYD

>  <Rbt.Executable>
rbdock ($Id: //depot/dev/client3/rdock/2013.1/src/exe/rbdock.cxx#4 $)

>  <Rbt.Library>
libRbt.so (2013.1, Build901 2013/11/27)

>  <Rbt.Parameter_File>
/export/apps/rDock/src/rDock_2013.1_src/data/scripts/dock_solv.prm

>  <Rbt.Receptor>
prm/pocket_docking_5.prm

>  <SCORE>
-23.6869

>  <SCORE.INTER>
-23.6869

>  <SCORE.INTER.CONST>
1

>  <SCORE.INTER.POLAR>
0

>  <SCORE.INTER.ROT>
0

>  <SCORE.INTER.SOLV>
3.32852

>  <SCORE.INTER.VDW>
-20.5008

>  <SCORE.INTER.norm>
-2.36869

>  <SCORE.INTRA>
0

>  <SCORE.INTRA.DIHEDRAL>
0

>  <SCORE.INTRA.DIHEDRAL.0>
0

>  <SCORE.INTRA.POLAR>
0

>  <SCORE.INTRA.POLAR.0>
0

>  <SCORE.INTRA.REPUL>
0

>  <SCORE.INTRA.REPUL.0>
0

>  <SCORE.INTRA.SOLV>
0

>  <SCORE.INTRA.SOLV.lig_0>
-4.1818

>  <SCORE.INTRA.VDW>
0

>  <SCORE.INTRA.VDW.0>
0

>  <SCORE.INTRA.norm>
0

>  <SCORE.RESTR>
0

>  <SCORE.RESTR.CAVITY>
0

>  <SCORE.RESTR.norm>
0

>  <SCORE.SYSTEM>
0

>  <SCORE.SYSTEM.CONST>
0

>  <SCORE.SYSTEM.DIHEDRAL>
0

>  <SCORE.SYSTEM.SOLV>
0

>  <SCORE.SYSTEM.norm>
0

>  <SCORE.heavy>
10

>  <SCORE.norm>
-2.36869

>  <RMSD>
1.185

$$$$
ligand
 OpenBabel11021811503D
libRbt.so/2013.1/901 2013/11/27
 10 11  0  0  0  0  0  0  0  0999 V2000
   18.9869   -4.7511    2.4982 N   0  0  0  0  0  0  0  0  0  0  0  0
   17.9609   -5.3205    3.1027 C   0  0  0  0  0  0  0  0  0  0  0  0
   16.9287   -4.5175    3.5994 N   0  0  0  0  0  0  0  0  0  0  0  0
   16.9983   -3.1853    3.4714 C   0  0  0  0  0  0  0  0  0  0  0  0
   18.0384   -2.6166    2.8662 C   0  0  0  0  0  0  0  0  0  0  0  0
   19.0245   -3.3586    2.3679 C   0  0  0  0  0  0  0  0  0  0  0  0
   19.9711   -2.8332    1.7844 O   0  0  0  0  0  0  0  0  0  0  0  0
   17.8844   -1.2979    2.9479 N   0  0  0  0  0  0  0  0  0  0  0  0
   16.7508   -1.0499    3.5963 C   0  0  0  0  0  0  0  0  0  0  0  0
   16.2001   -2.2185    3.9124 N   0  0  0  0  0  0  0  0  0  0  0  0
  1  2  1  0  0  0  0
  1  6  1  0  0  0  0
  2  3  2  0  0  0  0
  3  4  1  0  0  0  0
  4  5  2  0  0  0  0
  4 10  1  0  0  0  0
  5  6  1  0  0  0  0
  5  8  1  0  0  0  0
  6  7  2  0  0  0  0
  8  9  1  0  0  0  0
  9 10  2  0  0  0  0
M  END
>  <CHROM.1>
17.91509185,-3.11130584,2.99110887,0.77249696,-0.51621983,3.09379650

>  <Name>
ligand

>  <RI>
0

>  <Rbt.Current_Directory>
/home/itssahil/PROJECTS/Mol_Feturizer/New_Systems/rnas/4NYD

>  <Rbt.Executable>
rbdock ($Id: //depot/dev/client3/rdock/2013.1/src/exe/rbdock.cxx#4 $)

>  <Rbt.Library>
libRbt.so (2013.1, Build901 2013/11/27)

>  <Rbt.Parameter_File>
/export/apps/rDock/src/rDock_2013.1_src/data/scripts/dock_solv.prm

>  <Rbt.Receptor>
prm/pocket_docking_6.prm

>  <SCORE>
-23.7649

>  <SCORE.INTER>
-23.7649

>  <SCORE.INTER.CONST>
1

>  <SCORE.INTER.POLAR>
0

>  <SCORE.INTER.ROT>
0

>  <SCORE.INTER.SOLV>
3.34892

>  <SCORE.INTER.VDW>
-20.5596

>  <SCORE.INTER.norm>
-2.37649

>  <SCORE.INTRA>
0

>  <SCORE.INTRA.DIHEDRAL>
0

>  <SCORE.INTRA.DIHEDRAL.0>
0

>  <SCORE.INTRA.POLAR>
0

>  <SCORE.INTRA.POLAR.0>
0

>  <SCORE.INTRA.REPUL>
0

>  <SCORE.INTRA.REPUL.0>
0

>  <SCORE.INTRA.SOLV>
0

>  <SCORE.INTRA.SOLV.lig_0>
-4.1818

>  <SCORE.INTRA.VDW>
0

>  <SCORE.INTRA.VDW.0>
0

>  <SCORE.INTRA.norm>
0

>  <SCORE.RESTR>
0

>  <SCORE.RESTR.CAVITY>
0

>  <SCORE.RESTR.norm>
0

>  <SCORE.SYSTEM>
0

>  <SCORE.SYSTEM.CONST>
0

>  <SCORE.SYSTEM.DIHEDRAL>
0

>  <SCORE.SYSTEM.SOLV>
0

>  <SCORE.SYSTEM.norm>
0

>  <SCORE.heavy>
10

>  <SCORE.norm>
-2.37649

>  <RMSD>
1.185

$$$$
ligand
 OpenBabel11021811503D
libRbt.so/2013.1/901 2013/11/27
 10 11  0  0  0  0  0  0  0  0999 V2000
   19.0068   -4.7606    2.5213 N   0  0  0  0  0  0  0  0  0  0  0  0
   17.9831   -5.3348    3.1254 C   0  0  0  0  0  0  0  0  0  0  0  0
   16.9401   -4.5378    3.6090 N   0  0  0  0  0  0  0  0  0  0  0  0
   16.9971   -3.2062    3.4692 C   0  0  0  0  0  0  0  0  0  0  0  0
   18.0348   -2.6325    2.8646 C   0  0  0  0  0  0  0  0  0  0  0  0
   19.0311   -3.3691    2.3785 C   0  0  0  0  0  0  0  0  0  0  0  0
   19.9756   -2.8394    1.7954 O   0  0  0  0  0  0  0  0  0  0  0  0
   17.8671   -1.3148    2.9333 N   0  0  0  0  0  0  0  0  0  0  0  0
   16.7274   -1.0723    3.5732 C   0  0  0  0  0  0  0  0  0  0  0  0
   16.1868   -2.2436    3.8969 N   0  0  0  0  0  0  0  0  0  0  0  0
  1  2  1  0  0  0  0
  1  6  1  0  0  0  0
  2  3  2  0  0  0  0
  3  4  1  0  0  0  0
  4  5  2  0  0  0  0
  4 10  1  0  0  0  0
  5  6  1  0  0  0  0
  5  8  1  0  0  0  0
  6  7  2  0  0  0  0
  8  9  1  0  0  0  0
  9 10  2  0  0  0  0
M  END
>  <CHROM.1>
17.91578261,-3.12732147,2.99330146,0.76131017,-0.51010563,3.07917717

>  <Name>
ligand

>  <RI>
0

>  <Rbt.Current_Directory>
/home/itssahil/PROJECTS/Mol_Feturizer/New_Systems/rnas/4NYD

>  <Rbt.Executable>
rbdock ($Id: //depot/dev/client3/rdock/2013.1/src/exe/rbdock.cxx#4 $)

>  <Rbt.Library>
libRbt.so (2013.1, Build901 2013/11/27)

>  <Rbt.Parameter_File>
/export/apps/rDock/src/rDock_2013.1_src/data/scripts/dock_solv.prm

>  <Rbt.Receptor>
prm/pocket_docking_8.prm

>  <SCORE>
-23.7131

>  <SCORE.INTER>
-23.7131

>  <SCORE.INTER.CONST>
1

>  <SCORE.INTER.POLAR>
0

>  <SCORE.INTER.ROT>
0

>  <SCORE.INTER.SOLV>
3.33348

>  <SCORE.INTER.VDW>
-20.5199

>  <SCORE.INTER.norm>
-2.37131

>  <SCORE.INTRA>
0

>  <SCORE.INTRA.DIHEDRAL>
0

>  <SCORE.INTRA.DIHEDRAL.0>
0

>  <SCORE.INTRA.POLAR>
0

>  <SCORE.INTRA.POLAR.0>
0

>  <SCORE.INTRA.REPUL>
0

>  <SCORE.INTRA.REPUL.0>
0

>  <SCORE.INTRA.SOLV>
0

>  <SCORE.INTRA.SOLV.lig_0>
-4.1818

>  <SCORE.INTRA.VDW>
0

>  <SCORE.INTRA.VDW.0>
0

>  <SCORE.INTRA.norm>
0

>  <SCORE.RESTR>
0

>  <SCORE.RESTR.CAVITY>
0

>  <SCORE.RESTR.norm>
0

>  <SCORE.SYSTEM>
0

>  <SCORE.SYSTEM.CONST>
0

>  <SCORE.SYSTEM.DIHEDRAL>
0

>  <SCORE.SYSTEM.SOLV>
0

>  <SCORE.SYSTEM.norm>
0

>  <SCORE.heavy>
10

>  <SCORE.norm>
-2.37131

>  <RMSD>
1.185

$$$$
ligand
 OpenBabel11021811503D
libRbt.so/2013.1/901 2013/11/27
 10 11  0  0  0  0  0  0  0  0999 V2000
   18.9881   -4.7502    2.5031 N   0  0  0  0  0  0  0  0  0  0  0  0
   17.9618   -5.3187    3.1079 C   0  0  0  0  0  0  0  0  0  0  0  0
   16.9288   -4.5153    3.6020 N   0  0  0  0  0  0  0  0  0  0  0  0
   16.9979   -3.1833    3.4713 C   0  0  0  0  0  0  0  0  0  0  0  0
   18.0382   -2.6153    2.8659 C   0  0  0  0  0  0  0  0  0  0  0  0
   19.0252   -3.3579    2.3700 C   0  0  0  0  0  0  0  0  0  0  0  0
   19.9720   -2.8332    1.7862 O   0  0  0  0  0  0  0  0  0  0  0  0
   17.8836   -1.2965    2.9447 N   0  0  0  0  0  0  0  0  0  0  0  0
   16.7492   -1.0477    3.5915 C   0  0  0  0  0  0  0  0  0  0  0  0
   16.1988   -2.2160    3.9096 N   0  0  0  0  0  0  0  0  0  0  0  0
  1  2  1  0  0  0  0
  1  6  1  0  0  0  0
  2  3  2  0  0  0  0
  3  4  1  0  0  0  0
  4  5  2  0  0  0  0
  4 10  1  0  0  0  0
  5  6  1  0  0  0  0
  5  8  1  0  0  0  0
  6  7  2  0  0  0  0
  8  9  1  0  0  0  0
  9 10  2  0  0  0  0
M  END
>  <CHROM.1>
17.91508494,-3.10985389,2.99168373,0.77201169,-0.51529391,3.09148540

>  <Name>
ligand

>  <RI>
0

>  <Rbt.Current_Directory>
/home/itssahil/PROJECTS/Mol_Feturizer/New_Systems/rnas/4NYD

>  <Rbt.Executable>
rbdock ($Id: //depot/dev/client3/rdock/2013.1/src/exe/rbdock.cxx#4 $)

>  <Rbt.Library>
libRbt.so (2013.1, Build901 2013/11/27)

>  <Rbt.Parameter_File>
/export/apps/rDock/src/rDock_2013.1_src/data/scripts/dock_solv.prm

>  <Rbt.Receptor>
prm/blind_docking_100.prm

>  <SCORE>
-23.768

>  <SCORE.INTER>
-23.768

>  <SCORE.INTER.CONST>
1

>  <SCORE.INTER.POLAR>
0

>  <SCORE.INTER.ROT>
0

>  <SCORE.INTER.SOLV>
3.34698

>  <SCORE.INTER.VDW>
-20.561

>  <SCORE.INTER.norm>
-2.3768

>  <SCORE.INTRA>
0

>  <SCORE.INTRA.DIHEDRAL>
0

>  <SCORE.INTRA.DIHEDRAL.0>
0

>  <SCORE.INTRA.POLAR>
0

>  <SCORE.INTRA.POLAR.0>
0

>  <SCORE.INTRA.REPUL>
0

>  <SCORE.INTRA.REPUL.0>
0

>  <SCORE.INTRA.SOLV>
0

>  <SCORE.INTRA.SOLV.lig_0>
-4.1818

>  <SCORE.INTRA.VDW>
0

>  <SCORE.INTRA.VDW.0>
0

>  <SCORE.INTRA.norm>
0

>  <SCORE.RESTR>
0

>  <SCORE.RESTR.CAVITY>
0

>  <SCORE.RESTR.norm>
0

>  <SCORE.SYSTEM>
0

>  <SCORE.SYSTEM.CONST>
0

>  <SCORE.SYSTEM.DIHEDRAL>
0

>  <SCORE.SYSTEM.SOLV>
0

>  <SCORE.SYSTEM.norm>
0

>  <SCORE.heavy>
10

>  <SCORE.norm>
-2.3768

>  <RMSD>
1.186

$$$$
ligand
 OpenBabel11021811503D
libRbt.so/2013.1/901 2013/11/27
 10 11  0  0  0  0  0  0  0  0999 V2000
   18.9863   -4.7675    2.4891 N   0  0  0  0  0  0  0  0  0  0  0  0
   17.9684   -5.3360    3.1080 C   0  0  0  0  0  0  0  0  0  0  0  0
   16.9372   -4.5333    3.6071 N   0  0  0  0  0  0  0  0  0  0  0  0
   16.9997   -3.2019    3.4667 C   0  0  0  0  0  0  0  0  0  0  0  0
   18.0316   -2.6340    2.8470 C   0  0  0  0  0  0  0  0  0  0  0  0
   19.0164   -3.3761    2.3462 C   0  0  0  0  0  0  0  0  0  0  0  0
   19.9553   -2.8516    1.7494 O   0  0  0  0  0  0  0  0  0  0  0  0
   17.8724   -1.3153    2.9185 N   0  0  0  0  0  0  0  0  0  0  0  0
   16.7437   -1.0666    3.5751 C   0  0  0  0  0  0  0  0  0  0  0  0
   16.2012   -2.2348    3.9066 N   0  0  0  0  0  0  0  0  0  0  0  0
  1  2  1  0  0  0  0
  1  6  1  0  0  0  0
  2  3  2  0  0  0  0
  3  4  1  0  0  0  0
  4  5  2  0  0  0  0
  4 10  1  0  0  0  0
  5  6  1  0  0  0  0
  5  8  1  0  0  0  0
  6  7  2  0  0  0  0
  8  9  1  0  0  0  0
  9 10  2  0  0  0  0
M  END
>  <CHROM.1>
17.91167669,-3.12814773,2.97740306,0.76680598,-0.52515413,3.08212894

>  <Name>
ligand

>  <RI>
0

>  <Rbt.Current_Directory>
/home/itssahil/PROJECTS/Mol_Feturizer/New_Systems/rnas/4NYD

>  <Rbt.Executable>
rbdock ($Id: //depot/dev/client3/rdock/2013.1/src/exe/rbdock.cxx#4 $)

>  <Rbt.Library>
libRbt.so (2013.1, Build901 2013/11/27)

>  <Rbt.Parameter_File>
/export/apps/rDock/src/rDock_2013.1_src/data/scripts/dock_solv.prm

>  <Rbt.Receptor>
prm/blind_docking_100.prm

>  <SCORE>
-23.723

>  <SCORE.INTER>
-23.723

>  <SCORE.INTER.CONST>
1

>  <SCORE.INTER.POLAR>
0

>  <SCORE.INTER.ROT>
0

>  <SCORE.INTER.SOLV>
3.33225

>  <SCORE.INTER.VDW>
-20.5261

>  <SCORE.INTER.norm>
-2.3723

>  <SCORE.INTRA>
0

>  <SCORE.INTRA.DIHEDRAL>
0

>  <SCORE.INTRA.DIHEDRAL.0>
0

>  <SCORE.INTRA.POLAR>
0

>  <SCORE.INTRA.POLAR.0>
0

>  <SCORE.INTRA.REPUL>
0

>  <SCORE.INTRA.REPUL.0>
0

>  <SCORE.INTRA.SOLV>
0

>  <SCORE.INTRA.SOLV.lig_0>
-4.1818

>  <SCORE.INTRA.VDW>
0

>  <SCORE.INTRA.VDW.0>
0

>  <SCORE.INTRA.norm>
0

>  <SCORE.RESTR>
0

>  <SCORE.RESTR.CAVITY>
0

>  <SCORE.RESTR.norm>
0

>  <SCORE.SYSTEM>
0

>  <SCORE.SYSTEM.CONST>
0

>  <SCORE.SYSTEM.DIHEDRAL>
0

>  <SCORE.SYSTEM.SOLV>
0

>  <SCORE.SYSTEM.norm>
0

>  <SCORE.heavy>
10

>  <SCORE.norm>
-2.3723

>  <RMSD>
1.186

$$$$
ligand
 OpenBabel11021811503D
libRbt.so/2013.1/901 2013/11/27
 10 11  0  0  0  0  0  0  0  0999 V2000
   18.9854   -4.7483    2.4972 N   0  0  0  0  0  0  0  0  0  0  0  0
   17.9588   -5.3173    3.1011 C   0  0  0  0  0  0  0  0  0  0  0  0
   16.9265   -4.5141    3.5970 N   0  0  0  0  0  0  0  0  0  0  0  0
   16.9965   -3.1819    3.4688 C   0  0  0  0  0  0  0  0  0  0  0  0
   18.0371   -2.6135    2.8644 C   0  0  0  0  0  0  0  0  0  0  0  0
   19.0234   -3.3558    2.3668 C   0  0  0  0  0  0  0  0  0  0  0  0
   19.9706   -2.8306    1.7839 O   0  0  0  0  0  0  0  0  0  0  0  0
   17.8834   -1.2947    2.9458 N   0  0  0  0  0  0  0  0  0  0  0  0
   16.7494   -1.0464    3.5934 C   0  0  0  0  0  0  0  0  0  0  0  0
   16.1982   -2.2149    3.9092 N   0  0  0  0  0  0  0  0  0  0  0  0
  1  2  1  0  0  0  0
  1  6  1  0  0  0  0
  2  3  2  0  0  0  0
  3  4  1  0  0  0  0
  4  5  2  0  0  0  0
  4 10  1  0  0  0  0
  5  6  1  0  0  0  0
  5  8  1  0  0  0  0
  6  7  2  0  0  0  0
  8  9  1  0  0  0  0
  9 10  2  0  0  0  0
M  END
>  <CHROM.1>
17.91363211,-3.10816603,2.98922527,0.77280494,-0.51551454,3.09384566

>  <Name>
ligand

>  <RI>
0

>  <Rbt.Current_Directory>
/home/itssahil/PROJECTS/Mol_Feturizer/New_Systems/rnas/4NYD

>  <Rbt.Executable>
rbdock ($Id: //depot/dev/client3/rdock/2013.1/src/exe/rbdock.cxx#4 $)

>  <Rbt.Library>
libRbt.so (2013.1, Build901 2013/11/27)

>  <Rbt.Parameter_File>
/export/apps/rDock/src/rDock_2013.1_src/data/scripts/dock_solv.prm

>  <Rbt.Receptor>
prm/blind_docking_100.prm

>  <SCORE>
-23.7655

>  <SCORE.INTER>
-23.7655

>  <SCORE.INTER.CONST>
1

>  <SCORE.INTER.POLAR>
0

>  <SCORE.INTER.ROT>
0

>  <SCORE.INTER.SOLV>
3.34666

>  <SCORE.INTER.VDW>
-20.5592

>  <SCORE.INTER.norm>
-2.37655

>  <SCORE.INTRA>
0

>  <SCORE.INTRA.DIHEDRAL>
0

>  <SCORE.INTRA.DIHEDRAL.0>
0

>  <SCORE.INTRA.POLAR>
0

>  <SCORE.INTRA.POLAR.0>
0

>  <SCORE.INTRA.REPUL>
0

>  <SCORE.INTRA.REPUL.0>
0

>  <SCORE.INTRA.SOLV>
0

>  <SCORE.INTRA.SOLV.lig_0>
-4.1818

>  <SCORE.INTRA.VDW>
0

>  <SCORE.INTRA.VDW.0>
0

>  <SCORE.INTRA.norm>
0

>  <SCORE.RESTR>
0

>  <SCORE.RESTR.CAVITY>
0

>  <SCORE.RESTR.norm>
0

>  <SCORE.SYSTEM>
0

>  <SCORE.SYSTEM.CONST>
0

>  <SCORE.SYSTEM.DIHEDRAL>
0

>  <SCORE.SYSTEM.SOLV>
0

>  <SCORE.SYSTEM.norm>
0

>  <SCORE.heavy>
10

>  <SCORE.norm>
-2.37655

>  <RMSD>
1.186

$$$$
ligand
 OpenBabel11021811503D
libRbt.so/2013.1/901 2013/11/27
 10 11  0  0  0  0  0  0  0  0999 V2000
   18.9607   -4.7931    2.4422 N   0  0  0  0  0  0  0  0  0  0  0  0
   17.9495   -5.3526    3.0798 C   0  0  0  0  0  0  0  0  0  0  0  0
   16.9341   -4.5409    3.5967 N   0  0  0  0  0  0  0  0  0  0  0  0
   17.0052   -3.2102    3.4540 C   0  0  0  0  0  0  0  0  0  0  0  0
   18.0305   -2.6514    2.8153 C   0  0  0  0  0  0  0  0  0  0  0  0
   18.9999   -3.4020    2.2976 C   0  0  0  0  0  0  0  0  0  0  0  0
   19.9322   -2.8859    1.6835 O   0  0  0  0  0  0  0  0  0  0  0  0
   17.8837   -1.3314    2.8885 N   0  0  0  0  0  0  0  0  0  0  0  0
   16.7690   -1.0727    3.5651 C   0  0  0  0  0  0  0  0  0  0  0  0
   16.2229   -2.2361    3.9073 N   0  0  0  0  0  0  0  0  0  0  0  0
  1  2  1  0  0  0  0
  1  6  1  0  0  0  0
  2  3  2  0  0  0  0
  3  4  1  0  0  0  0
  4  5  2  0  0  0  0
  4 10  1  0  0  0  0
  5  6  1  0  0  0  0
  5  8  1  0  0  0  0
  6  7  2  0  0  0  0
  8  9  1  0  0  0  0
  9 10  2  0  0  0  0
M  END
>  <CHROM.1>
17.90880428,-3.14442595,2.94830018,0.77529654,-0.54360570,3.08564038

>  <Name>
ligand

>  <RI>
0

>  <Rbt.Current_Directory>
/home/itssahil/PROJECTS/Mol_Feturizer/New_Systems/rnas/4NYD

>  <Rbt.Executable>
rbdock ($Id: //depot/dev/client3/rdock/2013.1/src/exe/rbdock.cxx#4 $)

>  <Rbt.Library>
libRbt.so (2013.1, Build901 2013/11/27)

>  <Rbt.Parameter_File>
/export/apps/rDock/src/rDock_2013.1_src/data/scripts/dock_solv.prm

>  <Rbt.Receptor>
prm/blind_docking_40.prm

>  <SCORE>
-23.7532

>  <SCORE.INTER>
-23.7532

>  <SCORE.INTER.CONST>
1

>  <SCORE.INTER.POLAR>
0

>  <SCORE.INTER.ROT>
0

>  <SCORE.INTER.SOLV>
3.32384

>  <SCORE.INTER.VDW>
-20.5434

>  <SCORE.INTER.norm>
-2.37532

>  <SCORE.INTRA>
0

>  <SCORE.INTRA.DIHEDRAL>
0

>  <SCORE.INTRA.DIHEDRAL.0>
0

>  <SCORE.INTRA.POLAR>
0

>  <SCORE.INTRA.POLAR.0>
0

>  <SCORE.INTRA.REPUL>
0

>  <SCORE.INTRA.REPUL.0>
0

>  <SCORE.INTRA.SOLV>
0

>  <SCORE.INTRA.SOLV.lig_0>
-4.1818

>  <SCORE.INTRA.VDW>
0

>  <SCORE.INTRA.VDW.0>
0

>  <SCORE.INTRA.norm>
0

>  <SCORE.RESTR>
0

>  <SCORE.RESTR.CAVITY>
0

>  <SCORE.RESTR.norm>
0

>  <SCORE.SYSTEM>
0

>  <SCORE.SYSTEM.CONST>
0

>  <SCORE.SYSTEM.DIHEDRAL>
0

>  <SCORE.SYSTEM.SOLV>
0

>  <SCORE.SYSTEM.norm>
0

>  <SCORE.heavy>
10

>  <SCORE.norm>
-2.37532

>  <RMSD>
1.186

$$$$
ligand
 OpenBabel11021811503D
libRbt.so/2013.1/901 2013/11/27
 10 11  0  0  0  0  0  0  0  0999 V2000
   18.9973   -4.7404    2.5212 N   0  0  0  0  0  0  0  0  0  0  0  0
   17.9662   -5.3120    3.1147 C   0  0  0  0  0  0  0  0  0  0  0  0
   16.9273   -4.5114    3.6011 N   0  0  0  0  0  0  0  0  0  0  0  0
   16.9957   -3.1789    3.4745 C   0  0  0  0  0  0  0  0  0  0  0  0
   18.0409   -2.6079    2.8805 C   0  0  0  0  0  0  0  0  0  0  0  0
   19.0336   -3.3477    2.3921 C   0  0  0  0  0  0  0  0  0  0  0  0
   19.9852   -2.8202    1.8187 O   0  0  0  0  0  0  0  0  0  0  0  0
   17.8836   -1.2895    2.9614 N   0  0  0  0  0  0  0  0  0  0  0  0
   16.7428   -1.0440    3.5981 C   0  0  0  0  0  0  0  0  0  0  0  0
   16.1911   -2.2139    3.9078 N   0  0  0  0  0  0  0  0  0  0  0  0
  1  2  1  0  0  0  0
  1  6  1  0  0  0  0
  2  3  2  0  0  0  0
  3  4  1  0  0  0  0
  4  5  2  0  0  0  0
  4 10  1  0  0  0  0
  5  6  1  0  0  0  0
  5  8  1  0  0  0  0
  6  7  2  0  0  0  0
  8  9  1  0  0  0  0
  9 10  2  0  0  0  0
M  END
>  <CHROM.1>
17.91730579,-3.10291109,3.00387865,0.77089100,-0.50574452,3.09358416

>  <Name>
ligand

>  <RI>
0

>  <Rbt.Current_Directory>
/home/itssahil/PROJECTS/Mol_Feturizer/New_Systems/rnas/4NYD

>  <Rbt.Executable>
rbdock ($Id: //depot/dev/client3/rdock/2013.1/src/exe/rbdock.cxx#4 $)

>  <Rbt.Library>
libRbt.so (2013.1, Build901 2013/11/27)

>  <Rbt.Parameter_File>
/export/apps/rDock/src/rDock_2013.1_src/data/scripts/dock_solv.prm

>  <Rbt.Receptor>
prm/pocket_docking_3.prm

>  <SCORE>
-23.7627

>  <SCORE.INTER>
-23.7627

>  <SCORE.INTER.CONST>
1

>  <SCORE.INTER.POLAR>
0

>  <SCORE.INTER.ROT>
0

>  <SCORE.INTER.SOLV>
3.35343

>  <SCORE.INTER.VDW>
-20.5596

>  <SCORE.INTER.norm>
-2.37627

>  <SCORE.INTRA>
0

>  <SCORE.INTRA.DIHEDRAL>
0

>  <SCORE.INTRA.DIHEDRAL.0>
0

>  <SCORE.INTRA.POLAR>
0

>  <SCORE.INTRA.POLAR.0>
0

>  <SCORE.INTRA.REPUL>
0

>  <SCORE.INTRA.REPUL.0>
0

>  <SCORE.INTRA.SOLV>
0

>  <SCORE.INTRA.SOLV.lig_0>
-4.1818

>  <SCORE.INTRA.VDW>
0

>  <SCORE.INTRA.VDW.0>
0

>  <SCORE.INTRA.norm>
0

>  <SCORE.RESTR>
0

>  <SCORE.RESTR.CAVITY>
0

>  <SCORE.RESTR.norm>
0

>  <SCORE.SYSTEM>
0

>  <SCORE.SYSTEM.CONST>
0

>  <SCORE.SYSTEM.DIHEDRAL>
0

>  <SCORE.SYSTEM.SOLV>
0

>  <SCORE.SYSTEM.norm>
0

>  <SCORE.heavy>
10

>  <SCORE.norm>
-2.37627

>  <RMSD>
1.186

$$$$
ligand
 OpenBabel11021811503D
libRbt.so/2013.1/901 2013/11/27
 10 11  0  0  0  0  0  0  0  0999 V2000
   18.9921   -4.7453    2.5099 N   0  0  0  0  0  0  0  0  0  0  0  0
   17.9645   -5.3157    3.1107 C   0  0  0  0  0  0  0  0  0  0  0  0
   16.9291   -4.5140    3.6026 N   0  0  0  0  0  0  0  0  0  0  0  0
   16.9973   -3.1817    3.4739 C   0  0  0  0  0  0  0  0  0  0  0  0
   18.0389   -2.6119    2.8725 C   0  0  0  0  0  0  0  0  0  0  0  0
   19.0281   -3.3528    2.3788 C   0  0  0  0  0  0  0  0  0  0  0  0
   19.9763   -2.8264    1.7987 O   0  0  0  0  0  0  0  0  0  0  0  0
   17.8827   -1.2934    2.9527 N   0  0  0  0  0  0  0  0  0  0  0  0
   16.7461   -1.0466    3.5963 C   0  0  0  0  0  0  0  0  0  0  0  0
   16.1959   -2.2158    3.9110 N   0  0  0  0  0  0  0  0  0  0  0  0
  1  2  1  0  0  0  0
  1  6  1  0  0  0  0
  2  3  2  0  0  0  0
  3  4  1  0  0  0  0
  4  5  2  0  0  0  0
  4 10  1  0  0  0  0
  5  6  1  0  0  0  0
  5  8  1  0  0  0  0
  6  7  2  0  0  0  0
  8  9  1  0  0  0  0
  9 10  2  0  0  0  0
M  END
>  <CHROM.1>
17.91588916,-3.10672271,2.99730269,0.77102396,-0.51211765,3.09234895

>  <Name>
ligand

>  <RI>
0

>  <Rbt.Current_Directory>
/home/itssahil/PROJECTS/Mol_Feturizer/New_Systems/rnas/4NYD

>  <Rbt.Executable>
rbdock ($Id: //depot/dev/client3/rdock/2013.1/src/exe/rbdock.cxx#4 $)

>  <Rbt.Library>
libRbt.so (2013.1, Build901 2013/11/27)

>  <Rbt.Parameter_File>
/export/apps/rDock/src/rDock_2013.1_src/data/scripts/dock_solv.prm

>  <Rbt.Receptor>
prm/pocket_docking_3.prm

>  <SCORE>
-23.7673

>  <SCORE.INTER>
-23.7673

>  <SCORE.INTER.CONST>
1

>  <SCORE.INTER.POLAR>
0

>  <SCORE.INTER.ROT>
0

>  <SCORE.INTER.SOLV>
3.35085

>  <SCORE.INTER.VDW>
-20.5618

>  <SCORE.INTER.norm>
-2.37673

>  <SCORE.INTRA>
0

>  <SCORE.INTRA.DIHEDRAL>
0

>  <SCORE.INTRA.DIHEDRAL.0>
0

>  <SCORE.INTRA.POLAR>
0

>  <SCORE.INTRA.POLAR.0>
0

>  <SCORE.INTRA.REPUL>
0

>  <SCORE.INTRA.REPUL.0>
0

>  <SCORE.INTRA.SOLV>
0

>  <SCORE.INTRA.SOLV.lig_0>
-4.1818

>  <SCORE.INTRA.VDW>
0

>  <SCORE.INTRA.VDW.0>
0

>  <SCORE.INTRA.norm>
0

>  <SCORE.RESTR>
0

>  <SCORE.RESTR.CAVITY>
0

>  <SCORE.RESTR.norm>
0

>  <SCORE.SYSTEM>
0

>  <SCORE.SYSTEM.CONST>
0

>  <SCORE.SYSTEM.DIHEDRAL>
0

>  <SCORE.SYSTEM.SOLV>
0

>  <SCORE.SYSTEM.norm>
0

>  <SCORE.heavy>
10

>  <SCORE.norm>
-2.37673

>  <RMSD>
1.186

$$$$
ligand
 OpenBabel11021811503D
libRbt.so/2013.1/901 2013/11/27
 10 11  0  0  0  0  0  0  0  0999 V2000
   18.9746   -4.7582    2.4797 N   0  0  0  0  0  0  0  0  0  0  0  0
   17.9272   -5.3309    3.0431 C   0  0  0  0  0  0  0  0  0  0  0  0
   16.8887   -4.5293    3.5286 N   0  0  0  0  0  0  0  0  0  0  0  0
   16.9734   -3.1953    3.4317 C   0  0  0  0  0  0  0  0  0  0  0  0
   18.0348   -2.6234    2.8680 C   0  0  0  0  0  0  0  0  0  0  0  0
   19.0279   -3.3636    2.3810 C   0  0  0  0  0  0  0  0  0  0  0  0
   19.9949   -2.8345    1.8355 O   0  0  0  0  0  0  0  0  0  0  0  0
   17.8902   -1.3054    2.9742 N   0  0  0  0  0  0  0  0  0  0  0  0
   16.7411   -1.0608    3.5964 C   0  0  0  0  0  0  0  0  0  0  0  0
   16.1717   -2.2309    3.8716 N   0  0  0  0  0  0  0  0  0  0  0  0
  1  2  1  0  0  0  0
  1  6  1  0  0  0  0
  2  3  2  0  0  0  0
  3  4  1  0  0  0  0
  4  5  2  0  0  0  0
  4 10  1  0  0  0  0
  5  6  1  0  0  0  0
  5  8  1  0  0  0  0
  6  7  2  0  0  0  0
  8  9  1  0  0  0  0
  9 10  2  0  0  0  0
M  END
>  <CHROM.1>
17.90381957,-3.11949742,2.97862142,0.78386865,-0.48884209,3.12101399

>  <Name>
ligand

>  <RI>
0

>  <Rbt.Current_Directory>
/home/itssahil/PROJECTS/Mol_Feturizer/New_Systems/rnas/4NYD

>  <Rbt.Executable>
rbdock ($Id: //depot/dev/client3/rdock/2013.1/src/exe/rbdock.cxx#4 $)

>  <Rbt.Library>
libRbt.so (2013.1, Build901 2013/11/27)

>  <Rbt.Parameter_File>
/export/apps/rDock/src/rDock_2013.1_src/data/scripts/dock_solv.prm

>  <Rbt.Receptor>
prm/pocket_docking_3.prm

>  <SCORE>
-23.725

>  <SCORE.INTER>
-23.725

>  <SCORE.INTER.CONST>
1

>  <SCORE.INTER.POLAR>
0

>  <SCORE.INTER.ROT>
0

>  <SCORE.INTER.SOLV>
3.3392

>  <SCORE.INTER.VDW>
-20.5297

>  <SCORE.INTER.norm>
-2.3725

>  <SCORE.INTRA>
0

>  <SCORE.INTRA.DIHEDRAL>
0

>  <SCORE.INTRA.DIHEDRAL.0>
0

>  <SCORE.INTRA.POLAR>
0

>  <SCORE.INTRA.POLAR.0>
0

>  <SCORE.INTRA.REPUL>
0

>  <SCORE.INTRA.REPUL.0>
0

>  <SCORE.INTRA.SOLV>
0

>  <SCORE.INTRA.SOLV.lig_0>
-4.1818

>  <SCORE.INTRA.VDW>
0

>  <SCORE.INTRA.VDW.0>
0

>  <SCORE.INTRA.norm>
0

>  <SCORE.RESTR>
0

>  <SCORE.RESTR.CAVITY>
0

>  <SCORE.RESTR.norm>
0

>  <SCORE.SYSTEM>
0

>  <SCORE.SYSTEM.CONST>
0

>  <SCORE.SYSTEM.DIHEDRAL>
0

>  <SCORE.SYSTEM.SOLV>
0

>  <SCORE.SYSTEM.norm>
0

>  <SCORE.heavy>
10

>  <SCORE.norm>
-2.3725

>  <RMSD>
1.186

$$$$
ligand
 OpenBabel11021811503D
libRbt.so/2013.1/901 2013/11/27
 10 11  0  0  0  0  0  0  0  0999 V2000
   18.9976   -4.7716    2.5209 N   0  0  0  0  0  0  0  0  0  0  0  0
   17.9724   -5.3353    3.1320 C   0  0  0  0  0  0  0  0  0  0  0  0
   16.9312   -4.5296    3.6047 N   0  0  0  0  0  0  0  0  0  0  0  0
   16.9914   -3.2000    3.4475 C   0  0  0  0  0  0  0  0  0  0  0  0
   18.0307   -2.6368    2.8358 C   0  0  0  0  0  0  0  0  0  0  0  0
   19.0254   -3.3821    2.3599 C   0  0  0  0  0  0  0  0  0  0  0  0
   19.9714   -2.8624    1.7703 O   0  0  0  0  0  0  0  0  0  0  0  0
   17.8662   -1.3179    2.8872 N   0  0  0  0  0  0  0  0  0  0  0  0
   16.7269   -1.0643    3.5234 C   0  0  0  0  0  0  0  0  0  0  0  0
   16.1833   -2.2299    3.8623 N   0  0  0  0  0  0  0  0  0  0  0  0
  1  2  1  0  0  0  0
  1  6  1  0  0  0  0
  2  3  2  0  0  0  0
  3  4  1  0  0  0  0
  4  5  2  0  0  0  0
  4 10  1  0  0  0  0
  5  6  1  0  0  0  0
  5  8  1  0  0  0  0
  6  7  2  0  0  0  0
  8  9  1  0  0  0  0
  9 10  2  0  0  0  0
M  END
>  <CHROM.1>
17.91046945,-3.12960836,2.97098958,0.76411739,-0.50989943,3.06743632

>  <Name>
ligand

>  <RI>
0

>  <Rbt.Current_Directory>
/home/itssahil/PROJECTS/Mol_Feturizer/New_Systems/rnas/4NYD

>  <Rbt.Executable>
rbdock ($Id: //depot/dev/client3/rdock/2013.1/src/exe/rbdock.cxx#4 $)

>  <Rbt.Library>
libRbt.so (2013.1, Build901 2013/11/27)

>  <Rbt.Parameter_File>
/export/apps/rDock/src/rDock_2013.1_src/data/scripts/dock_solv.prm

>  <Rbt.Receptor>
prm/pocket_docking_4.prm

>  <SCORE>
-23.6994

>  <SCORE.INTER>
-23.6994

>  <SCORE.INTER.CONST>
1

>  <SCORE.INTER.POLAR>
0

>  <SCORE.INTER.ROT>
0

>  <SCORE.INTER.SOLV>
3.30134

>  <SCORE.INTER.VDW>
-20.5001

>  <SCORE.INTER.norm>
-2.36994

>  <SCORE.INTRA>
0

>  <SCORE.INTRA.DIHEDRAL>
0

>  <SCORE.INTRA.DIHEDRAL.0>
0

>  <SCORE.INTRA.POLAR>
0

>  <SCORE.INTRA.POLAR.0>
0

>  <SCORE.INTRA.REPUL>
0

>  <SCORE.INTRA.REPUL.0>
0

>  <SCORE.INTRA.SOLV>
0

>  <SCORE.INTRA.SOLV.lig_0>
-4.1818

>  <SCORE.INTRA.VDW>
0

>  <SCORE.INTRA.VDW.0>
0

>  <SCORE.INTRA.norm>
0

>  <SCORE.RESTR>
0

>  <SCORE.RESTR.CAVITY>
0

>  <SCORE.RESTR.norm>
0

>  <SCORE.SYSTEM>
0

>  <SCORE.SYSTEM.CONST>
0

>  <SCORE.SYSTEM.DIHEDRAL>
0

>  <SCORE.SYSTEM.SOLV>
0

>  <SCORE.SYSTEM.norm>
0

>  <SCORE.heavy>
10

>  <SCORE.norm>
-2.36994

>  <RMSD>
1.186

$$$$
ligand
 OpenBabel11021811503D
libRbt.so/2013.1/901 2013/11/27
 10 11  0  0  0  0  0  0  0  0999 V2000
   18.9529   -4.7685    2.5180 N   0  0  0  0  0  0  0  0  0  0  0  0
   17.8960   -5.3003    3.1034 C   0  0  0  0  0  0  0  0  0  0  0  0
   16.8742   -4.4619    3.5615 N   0  0  0  0  0  0  0  0  0  0  0  0
   16.9844   -3.1342    3.4166 C   0  0  0  0  0  0  0  0  0  0  0  0
   18.0552   -2.6034    2.8309 C   0  0  0  0  0  0  0  0  0  0  0  0
   19.0327   -3.3797    2.3692 C   0  0  0  0  0  0  0  0  0  0  0  0
   20.0084   -2.8893    1.8034 O   0  0  0  0  0  0  0  0  0  0  0  0
   17.9362   -1.2799    2.8900 N   0  0  0  0  0  0  0  0  0  0  0  0
   16.7935   -0.9911    3.5049 C   0  0  0  0  0  0  0  0  0  0  0  0
   16.2024   -2.1393    3.8229 N   0  0  0  0  0  0  0  0  0  0  0  0
  1  2  1  0  0  0  0
  1  6  1  0  0  0  0
  2  3  2  0  0  0  0
  3  4  1  0  0  0  0
  4  5  2  0  0  0  0
  4 10  1  0  0  0  0
  5  6  1  0  0  0  0
  5  8  1  0  0  0  0
  6  7  2  0  0  0  0
  8  9  1  0  0  0  0
  9 10  2  0  0  0  0
M  END
>  <CHROM.1>
17.91495942,-3.09263090,2.95952841,0.80560787,-0.49150420,3.09533048

>  <Name>
ligand

>  <RI>
0

>  <Rbt.Current_Directory>
/home/itssahil/PROJECTS/Mol_Feturizer/New_Systems/rnas/4NYD

>  <Rbt.Executable>
rbdock ($Id: //depot/dev/client3/rdock/2013.1/src/exe/rbdock.cxx#4 $)

>  <Rbt.Library>
libRbt.so (2013.1, Build901 2013/11/27)

>  <Rbt.Parameter_File>
/export/apps/rDock/src/rDock_2013.1_src/data/scripts/dock_solv.prm

>  <Rbt.Receptor>
prm/pocket_docking_4.prm

>  <SCORE>
-23.7081

>  <SCORE.INTER>
-23.7081

>  <SCORE.INTER.CONST>
1

>  <SCORE.INTER.POLAR>
0

>  <SCORE.INTER.ROT>
0

>  <SCORE.INTER.SOLV>
3.30008

>  <SCORE.INTER.VDW>
-20.5054

>  <SCORE.INTER.norm>
-2.37081

>  <SCORE.INTRA>
0

>  <SCORE.INTRA.DIHEDRAL>
0

>  <SCORE.INTRA.DIHEDRAL.0>
0

>  <SCORE.INTRA.POLAR>
0

>  <SCORE.INTRA.POLAR.0>
0

>  <SCORE.INTRA.REPUL>
0

>  <SCORE.INTRA.REPUL.0>
0

>  <SCORE.INTRA.SOLV>
0

>  <SCORE.INTRA.SOLV.lig_0>
-4.1818

>  <SCORE.INTRA.VDW>
0

>  <SCORE.INTRA.VDW.0>
0

>  <SCORE.INTRA.norm>
0

>  <SCORE.RESTR>
0

>  <SCORE.RESTR.CAVITY>
0

>  <SCORE.RESTR.norm>
0

>  <SCORE.SYSTEM>
0

>  <SCORE.SYSTEM.CONST>
0

>  <SCORE.SYSTEM.DIHEDRAL>
0

>  <SCORE.SYSTEM.SOLV>
0

>  <SCORE.SYSTEM.norm>
0

>  <SCORE.heavy>
10

>  <SCORE.norm>
-2.37081

>  <RMSD>
1.186

$$$$
ligand
 OpenBabel11021811503D
libRbt.so/2013.1/901 2013/11/27
 10 11  0  0  0  0  0  0  0  0999 V2000
   18.9837   -4.7530    2.4942 N   0  0  0  0  0  0  0  0  0  0  0  0
   17.9589   -5.3206    3.1025 C   0  0  0  0  0  0  0  0  0  0  0  0
   16.9284   -4.5161    3.6004 N   0  0  0  0  0  0  0  0  0  0  0  0
   16.9985   -3.1841    3.4695 C   0  0  0  0  0  0  0  0  0  0  0  0
   18.0373   -2.6172    2.8605 C   0  0  0  0  0  0  0  0  0  0  0  0
   19.0217   -3.3608    2.3611 C   0  0  0  0  0  0  0  0  0  0  0  0
   19.9670   -2.8370    1.7741 O   0  0  0  0  0  0  0  0  0  0  0  0
   17.8843   -1.2982    2.9400 N   0  0  0  0  0  0  0  0  0  0  0  0
   16.7525   -1.0483    3.5909 C   0  0  0  0  0  0  0  0  0  0  0  0
   16.2020   -2.2160    3.9107 N   0  0  0  0  0  0  0  0  0  0  0  0
  1  2  1  0  0  0  0
  1  6  1  0  0  0  0
  2  3  2  0  0  0  0
  3  4  1  0  0  0  0
  4  5  2  0  0  0  0
  4 10  1  0  0  0  0
  5  6  1  0  0  0  0
  5  8  1  0  0  0  0
  6  7  2  0  0  0  0
  8  9  1  0  0  0  0
  9 10  2  0  0  0  0
M  END
>  <CHROM.1>
17.91405364,-3.11160565,2.98671900,0.77300080,-0.51885261,3.09207606

>  <Name>
ligand

>  <RI>
0

>  <Rbt.Current_Directory>
/home/itssahil/PROJECTS/Mol_Feturizer/New_Systems/rnas/4NYD

>  <Rbt.Executable>
rbdock ($Id: //depot/dev/client3/rdock/2013.1/src/exe/rbdock.cxx#4 $)

>  <Rbt.Library>
libRbt.so (2013.1, Build901 2013/11/27)

>  <Rbt.Parameter_File>
/export/apps/rDock/src/rDock_2013.1_src/data/scripts/dock_solv.prm

>  <Rbt.Receptor>
prm/pocket_docking_6.prm

>  <SCORE>
-23.7674

>  <SCORE.INTER>
-23.7674

>  <SCORE.INTER.CONST>
1

>  <SCORE.INTER.POLAR>
0

>  <SCORE.INTER.ROT>
0

>  <SCORE.INTER.SOLV>
3.3452

>  <SCORE.INTER.VDW>
-20.56

>  <SCORE.INTER.norm>
-2.37674

>  <SCORE.INTRA>
0

>  <SCORE.INTRA.DIHEDRAL>
0

>  <SCORE.INTRA.DIHEDRAL.0>
0

>  <SCORE.INTRA.POLAR>
0

>  <SCORE.INTRA.POLAR.0>
0

>  <SCORE.INTRA.REPUL>
0

>  <SCORE.INTRA.REPUL.0>
0

>  <SCORE.INTRA.SOLV>
0

>  <SCORE.INTRA.SOLV.lig_0>
-4.1818

>  <SCORE.INTRA.VDW>
0

>  <SCORE.INTRA.VDW.0>
0

>  <SCORE.INTRA.norm>
0

>  <SCORE.RESTR>
0

>  <SCORE.RESTR.CAVITY>
0

>  <SCORE.RESTR.norm>
0

>  <SCORE.SYSTEM>
0

>  <SCORE.SYSTEM.CONST>
0

>  <SCORE.SYSTEM.DIHEDRAL>
0

>  <SCORE.SYSTEM.SOLV>
0

>  <SCORE.SYSTEM.norm>
0

>  <SCORE.heavy>
10

>  <SCORE.norm>
-2.37674

>  <RMSD>
1.186

$$$$
ligand
 OpenBabel11021811503D
libRbt.so/2013.1/901 2013/11/27
 10 11  0  0  0  0  0  0  0  0999 V2000
   18.9930   -4.7435    2.5116 N   0  0  0  0  0  0  0  0  0  0  0  0
   17.9651   -5.3148    3.1110 C   0  0  0  0  0  0  0  0  0  0  0  0
   16.9289   -4.5138    3.6026 N   0  0  0  0  0  0  0  0  0  0  0  0
   16.9966   -3.1814    3.4749 C   0  0  0  0  0  0  0  0  0  0  0  0
   18.0386   -2.6108    2.8749 C   0  0  0  0  0  0  0  0  0  0  0  0
   19.0285   -3.3509    2.3815 C   0  0  0  0  0  0  0  0  0  0  0  0
   19.9770   -2.8237    1.8026 O   0  0  0  0  0  0  0  0  0  0  0  0
   17.8817   -1.2924    2.9558 N   0  0  0  0  0  0  0  0  0  0  0  0
   16.7444   -1.0465    3.5986 C   0  0  0  0  0  0  0  0  0  0  0  0
   16.1944   -2.2162    3.9120 N   0  0  0  0  0  0  0  0  0  0  0  0
  1  2  1  0  0  0  0
  1  6  1  0  0  0  0
  2  3  2  0  0  0  0
  3  4  1  0  0  0  0
  4  5  2  0  0  0  0
  4 10  1  0  0  0  0
  5  6  1  0  0  0  0
  5  8  1  0  0  0  0
  6  7  2  0  0  0  0
  8  9  1  0  0  0  0
  9 10  2  0  0  0  0
M  END
>  <CHROM.1>
17.91562385,-3.10572271,2.99918308,0.77059684,-0.51119125,3.09284321

>  <Name>
ligand

>  <RI>
0

>  <Rbt.Current_Directory>
/home/itssahil/PROJECTS/Mol_Feturizer/New_Systems/rnas/4NYD

>  <Rbt.Executable>
rbdock ($Id: //depot/dev/client3/rdock/2013.1/src/exe/rbdock.cxx#4 $)

>  <Rbt.Library>
libRbt.so (2013.1, Build901 2013/11/27)

>  <Rbt.Parameter_File>
/export/apps/rDock/src/rDock_2013.1_src/data/scripts/dock_solv.prm

>  <Rbt.Receptor>
prm/pocket_docking_7.prm

>  <SCORE>
-23.7662

>  <SCORE.INTER>
-23.7662

>  <SCORE.INTER.CONST>
1

>  <SCORE.INTER.POLAR>
0

>  <SCORE.INTER.ROT>
0

>  <SCORE.INTER.SOLV>
3.35245

>  <SCORE.INTER.VDW>
-20.5616

>  <SCORE.INTER.norm>
-2.37662

>  <SCORE.INTRA>
0

>  <SCORE.INTRA.DIHEDRAL>
0

>  <SCORE.INTRA.DIHEDRAL.0>
0

>  <SCORE.INTRA.POLAR>
0

>  <SCORE.INTRA.POLAR.0>
0

>  <SCORE.INTRA.REPUL>
0

>  <SCORE.INTRA.REPUL.0>
0

>  <SCORE.INTRA.SOLV>
0

>  <SCORE.INTRA.SOLV.lig_0>
-4.1818

>  <SCORE.INTRA.VDW>
0

>  <SCORE.INTRA.VDW.0>
0

>  <SCORE.INTRA.norm>
0

>  <SCORE.RESTR>
0

>  <SCORE.RESTR.CAVITY>
0

>  <SCORE.RESTR.norm>
0

>  <SCORE.SYSTEM>
0

>  <SCORE.SYSTEM.CONST>
0

>  <SCORE.SYSTEM.DIHEDRAL>
0

>  <SCORE.SYSTEM.SOLV>
0

>  <SCORE.SYSTEM.norm>
0

>  <SCORE.heavy>
10

>  <SCORE.norm>
-2.37662

>  <RMSD>
1.186

$$$$
ligand
 OpenBabel11021811503D
libRbt.so/2013.1/901 2013/11/27
 10 11  0  0  0  0  0  0  0  0999 V2000
   18.9286   -4.7410    2.4845 N   0  0  0  0  0  0  0  0  0  0  0  0
   17.8815   -5.2614    3.0968 C   0  0  0  0  0  0  0  0  0  0  0  0
   16.8751   -4.4129    3.5703 N   0  0  0  0  0  0  0  0  0  0  0  0
   16.9905   -3.0870    3.4125 C   0  0  0  0  0  0  0  0  0  0  0  0
   18.0516   -2.5678    2.7996 C   0  0  0  0  0  0  0  0  0  0  0  0
   19.0140   -3.3539    2.3229 C   0  0  0  0  0  0  0  0  0  0  0  0
   19.9802   -2.8742    1.7322 O   0  0  0  0  0  0  0  0  0  0  0  0
   17.9421   -1.2431    2.8507 N   0  0  0  0  0  0  0  0  0  0  0  0
   16.8150   -0.9422    3.4879 C   0  0  0  0  0  0  0  0  0  0  0  0
   16.2237   -2.0840    3.8278 N   0  0  0  0  0  0  0  0  0  0  0  0
  1  2  1  0  0  0  0
  1  6  1  0  0  0  0
  2  3  2  0  0  0  0
  3  4  1  0  0  0  0
  4  5  2  0  0  0  0
  4 10  1  0  0  0  0
  5  6  1  0  0  0  0
  5  8  1  0  0  0  0
  6  7  2  0  0  0  0
  8  9  1  0  0  0  0
  9 10  2  0  0  0  0
M  END
>  <CHROM.1>
17.91111882,-3.05506796,2.93507866,0.81163388,-0.51353329,3.09036594

>  <Name>
ligand

>  <RI>
0

>  <Rbt.Current_Directory>
/home/itssahil/PROJECTS/Mol_Feturizer/New_Systems/rnas/4NYD

>  <Rbt.Executable>
rbdock ($Id: //depot/dev/client3/rdock/2013.1/src/exe/rbdock.cxx#4 $)

>  <Rbt.Library>
libRbt.so (2013.1, Build901 2013/11/27)

>  <Rbt.Parameter_File>
/export/apps/rDock/src/rDock_2013.1_src/data/scripts/dock_solv.prm

>  <Rbt.Receptor>
prm/blind_docking_100.prm

>  <SCORE>
-23.6424

>  <SCORE.INTER>
-23.6424

>  <SCORE.INTER.CONST>
1

>  <SCORE.INTER.POLAR>
0

>  <SCORE.INTER.ROT>
0

>  <SCORE.INTER.SOLV>
3.29136

>  <SCORE.INTER.VDW>
-20.4587

>  <SCORE.INTER.norm>
-2.36424

>  <SCORE.INTRA>
0

>  <SCORE.INTRA.DIHEDRAL>
0

>  <SCORE.INTRA.DIHEDRAL.0>
0

>  <SCORE.INTRA.POLAR>
0

>  <SCORE.INTRA.POLAR.0>
0

>  <SCORE.INTRA.REPUL>
0

>  <SCORE.INTRA.REPUL.0>
0

>  <SCORE.INTRA.SOLV>
0

>  <SCORE.INTRA.SOLV.lig_0>
-4.1818

>  <SCORE.INTRA.VDW>
0

>  <SCORE.INTRA.VDW.0>
0

>  <SCORE.INTRA.norm>
0

>  <SCORE.RESTR>
0

>  <SCORE.RESTR.CAVITY>
0

>  <SCORE.RESTR.norm>
0

>  <SCORE.SYSTEM>
0

>  <SCORE.SYSTEM.CONST>
0

>  <SCORE.SYSTEM.DIHEDRAL>
0

>  <SCORE.SYSTEM.SOLV>
0

>  <SCORE.SYSTEM.norm>
0

>  <SCORE.heavy>
10

>  <SCORE.norm>
-2.36424

>  <RMSD>
1.187

$$$$
ligand
 OpenBabel11021811503D
libRbt.so/2013.1/901 2013/11/27
 10 11  0  0  0  0  0  0  0  0999 V2000
   18.9875   -4.7456    2.5007 N   0  0  0  0  0  0  0  0  0  0  0  0
   17.9612   -5.3162    3.1037 C   0  0  0  0  0  0  0  0  0  0  0  0
   16.9273   -4.5144    3.5988 N   0  0  0  0  0  0  0  0  0  0  0  0
   16.9955   -3.1821    3.4707 C   0  0  0  0  0  0  0  0  0  0  0  0
   18.0358   -2.6122    2.8671 C   0  0  0  0  0  0  0  0  0  0  0  0
   19.0236   -3.3531    2.3703 C   0  0  0  0  0  0  0  0  0  0  0  0
   19.9705   -2.8266    1.7882 O   0  0  0  0  0  0  0  0  0  0  0  0
   17.8802   -1.2937    2.9484 N   0  0  0  0  0  0  0  0  0  0  0  0
   16.7453   -1.0470    3.5950 C   0  0  0  0  0  0  0  0  0  0  0  0
   16.1955   -2.2163    3.9104 N   0  0  0  0  0  0  0  0  0  0  0  0
  1  2  1  0  0  0  0
  1  6  1  0  0  0  0
  2  3  2  0  0  0  0
  3  4  1  0  0  0  0
  4  5  2  0  0  0  0
  4 10  1  0  0  0  0
  5  6  1  0  0  0  0
  5  8  1  0  0  0  0
  6  7  2  0  0  0  0
  8  9  1  0  0  0  0
  9 10  2  0  0  0  0
M  END
>  <CHROM.1>
17.91296340,-3.10707414,2.99181905,0.77121403,-0.51464394,3.09306444

>  <Name>
ligand

>  <RI>
0

>  <Rbt.Current_Directory>
/home/itssahil/PROJECTS/Mol_Feturizer/New_Systems/rnas/4NYD

>  <Rbt.Executable>
rbdock ($Id: //depot/dev/client3/rdock/2013.1/src/exe/rbdock.cxx#4 $)

>  <Rbt.Library>
libRbt.so (2013.1, Build901 2013/11/27)

>  <Rbt.Parameter_File>
/export/apps/rDock/src/rDock_2013.1_src/data/scripts/dock_solv.prm

>  <Rbt.Receptor>
prm/blind_docking_40.prm

>  <SCORE>
-23.7658

>  <SCORE.INTER>
-23.7658

>  <SCORE.INTER.CONST>
1

>  <SCORE.INTER.POLAR>
0

>  <SCORE.INTER.ROT>
0

>  <SCORE.INTER.SOLV>
3.34801

>  <SCORE.INTER.VDW>
-20.5599

>  <SCORE.INTER.norm>
-2.37658

>  <SCORE.INTRA>
0

>  <SCORE.INTRA.DIHEDRAL>
0

>  <SCORE.INTRA.DIHEDRAL.0>
0

>  <SCORE.INTRA.POLAR>
0

>  <SCORE.INTRA.POLAR.0>
0

>  <SCORE.INTRA.REPUL>
0

>  <SCORE.INTRA.REPUL.0>
0

>  <SCORE.INTRA.SOLV>
0

>  <SCORE.INTRA.SOLV.lig_0>
-4.1818

>  <SCORE.INTRA.VDW>
0

>  <SCORE.INTRA.VDW.0>
0

>  <SCORE.INTRA.norm>
0

>  <SCORE.RESTR>
0

>  <SCORE.RESTR.CAVITY>
0

>  <SCORE.RESTR.norm>
0

>  <SCORE.SYSTEM>
0

>  <SCORE.SYSTEM.CONST>
0

>  <SCORE.SYSTEM.DIHEDRAL>
0

>  <SCORE.SYSTEM.SOLV>
0

>  <SCORE.SYSTEM.norm>
0

>  <SCORE.heavy>
10

>  <SCORE.norm>
-2.37658

>  <RMSD>
1.187

$$$$
ligand
 OpenBabel11021811503D
libRbt.so/2013.1/901 2013/11/27
 10 11  0  0  0  0  0  0  0  0999 V2000
   19.0089   -4.7626    2.5240 N   0  0  0  0  0  0  0  0  0  0  0  0
   17.9884   -5.3370    3.1331 C   0  0  0  0  0  0  0  0  0  0  0  0
   16.9410   -4.5415    3.6096 N   0  0  0  0  0  0  0  0  0  0  0  0
   16.9908   -3.2108    3.4580 C   0  0  0  0  0  0  0  0  0  0  0  0
   18.0254   -2.6369    2.8485 C   0  0  0  0  0  0  0  0  0  0  0  0
   19.0257   -3.3723    2.3690 C   0  0  0  0  0  0  0  0  0  0  0  0
   19.9674   -2.8426    1.7813 O   0  0  0  0  0  0  0  0  0  0  0  0
   17.8505   -1.3195    2.9056 N   0  0  0  0  0  0  0  0  0  0  0  0
   16.7095   -1.0776    3.5432 C   0  0  0  0  0  0  0  0  0  0  0  0
   16.1751   -2.2489    3.8773 N   0  0  0  0  0  0  0  0  0  0  0  0
  1  2  1  0  0  0  0
  1  6  1  0  0  0  0
  2  3  2  0  0  0  0
  3  4  1  0  0  0  0
  4  5  2  0  0  0  0
  4 10  1  0  0  0  0
  5  6  1  0  0  0  0
  5  8  1  0  0  0  0
  6  7  2  0  0  0  0
  8  9  1  0  0  0  0
  9 10  2  0  0  0  0
M  END
>  <CHROM.1>
17.90903402,-3.13116534,2.98155312,0.75509835,-0.50966860,3.06732535

>  <Name>
ligand

>  <RI>
0

>  <Rbt.Current_Directory>
/home/itssahil/PROJECTS/Mol_Feturizer/New_Systems/rnas/4NYD

>  <Rbt.Executable>
rbdock ($Id: //depot/dev/client3/rdock/2013.1/src/exe/rbdock.cxx#4 $)

>  <Rbt.Library>
libRbt.so (2013.1, Build901 2013/11/27)

>  <Rbt.Parameter_File>
/export/apps/rDock/src/rDock_2013.1_src/data/scripts/dock_solv.prm

>  <Rbt.Receptor>
prm/blind_docking_40.prm

>  <SCORE>
-23.6927

>  <SCORE.INTER>
-23.6927

>  <SCORE.INTER.CONST>
1

>  <SCORE.INTER.POLAR>
0

>  <SCORE.INTER.ROT>
0

>  <SCORE.INTER.SOLV>
3.3131

>  <SCORE.INTER.VDW>
-20.4995

>  <SCORE.INTER.norm>
-2.36927

>  <SCORE.INTRA>
0

>  <SCORE.INTRA.DIHEDRAL>
0

>  <SCORE.INTRA.DIHEDRAL.0>
0

>  <SCORE.INTRA.POLAR>
0

>  <SCORE.INTRA.POLAR.0>
0

>  <SCORE.INTRA.REPUL>
0

>  <SCORE.INTRA.REPUL.0>
0

>  <SCORE.INTRA.SOLV>
0

>  <SCORE.INTRA.SOLV.lig_0>
-4.1818

>  <SCORE.INTRA.VDW>
0

>  <SCORE.INTRA.VDW.0>
0

>  <SCORE.INTRA.norm>
0

>  <SCORE.RESTR>
0

>  <SCORE.RESTR.CAVITY>
0

>  <SCORE.RESTR.norm>
0

>  <SCORE.SYSTEM>
0

>  <SCORE.SYSTEM.CONST>
0

>  <SCORE.SYSTEM.DIHEDRAL>
0

>  <SCORE.SYSTEM.SOLV>
0

>  <SCORE.SYSTEM.norm>
0

>  <SCORE.heavy>
10

>  <SCORE.norm>
-2.36927

>  <RMSD>
1.187

$$$$
ligand
 OpenBabel11021811503D
libRbt.so/2013.1/901 2013/11/27
 10 11  0  0  0  0  0  0  0  0999 V2000
   18.9924   -4.7411    2.5103 N   0  0  0  0  0  0  0  0  0  0  0  0
   17.9653   -5.3132    3.1104 C   0  0  0  0  0  0  0  0  0  0  0  0
   16.9287   -4.5130    3.6026 N   0  0  0  0  0  0  0  0  0  0  0  0
   16.9953   -3.1806    3.4748 C   0  0  0  0  0  0  0  0  0  0  0  0
   18.0365   -2.6091    2.8741 C   0  0  0  0  0  0  0  0  0  0  0  0
   19.0268   -3.3485    2.3802 C   0  0  0  0  0  0  0  0  0  0  0  0
   19.9745   -2.8205    1.8008 O   0  0  0  0  0  0  0  0  0  0  0  0
   17.8786   -1.2908    2.9551 N   0  0  0  0  0  0  0  0  0  0  0  0
   16.7415   -1.0459    3.5986 C   0  0  0  0  0  0  0  0  0  0  0  0
   16.1926   -2.2160    3.9123 N   0  0  0  0  0  0  0  0  0  0  0  0
  1  2  1  0  0  0  0
  1  6  1  0  0  0  0
  2  3  2  0  0  0  0
  3  4  1  0  0  0  0
  4  5  2  0  0  0  0
  4 10  1  0  0  0  0
  5  6  1  0  0  0  0
  5  8  1  0  0  0  0
  6  7  2  0  0  0  0
  8  9  1  0  0  0  0
  9 10  2  0  0  0  0
M  END
>  <CHROM.1>
17.91399980,-3.10417665,2.99851966,0.76965405,-0.51173806,3.09237557

>  <Name>
ligand

>  <RI>
0

>  <Rbt.Current_Directory>
/home/itssahil/PROJECTS/Mol_Feturizer/New_Systems/rnas/4NYD

>  <Rbt.Executable>
rbdock ($Id: //depot/dev/client3/rdock/2013.1/src/exe/rbdock.cxx#4 $)

>  <Rbt.Library>
libRbt.so (2013.1, Build901 2013/11/27)

>  <Rbt.Parameter_File>
/export/apps/rDock/src/rDock_2013.1_src/data/scripts/dock_solv.prm

>  <Rbt.Receptor>
prm/blind_docking_40.prm

>  <SCORE>
-23.7669

>  <SCORE.INTER>
-23.7669

>  <SCORE.INTER.CONST>
1

>  <SCORE.INTER.POLAR>
0

>  <SCORE.INTER.ROT>
0

>  <SCORE.INTER.SOLV>
3.35191

>  <SCORE.INTER.VDW>
-20.5619

>  <SCORE.INTER.norm>
-2.37669

>  <SCORE.INTRA>
0

>  <SCORE.INTRA.DIHEDRAL>
0

>  <SCORE.INTRA.DIHEDRAL.0>
0

>  <SCORE.INTRA.POLAR>
0

>  <SCORE.INTRA.POLAR.0>
0

>  <SCORE.INTRA.REPUL>
0

>  <SCORE.INTRA.REPUL.0>
0

>  <SCORE.INTRA.SOLV>
0

>  <SCORE.INTRA.SOLV.lig_0>
-4.1818

>  <SCORE.INTRA.VDW>
0

>  <SCORE.INTRA.VDW.0>
0

>  <SCORE.INTRA.norm>
0

>  <SCORE.RESTR>
0

>  <SCORE.RESTR.CAVITY>
0

>  <SCORE.RESTR.norm>
0

>  <SCORE.SYSTEM>
0

>  <SCORE.SYSTEM.CONST>
0

>  <SCORE.SYSTEM.DIHEDRAL>
0

>  <SCORE.SYSTEM.SOLV>
0

>  <SCORE.SYSTEM.norm>
0

>  <SCORE.heavy>
10

>  <SCORE.norm>
-2.37669

>  <RMSD>
1.187

$$$$
ligand
 OpenBabel11021811503D
libRbt.so/2013.1/901 2013/11/27
 10 11  0  0  0  0  0  0  0  0999 V2000
   18.9923   -4.7329    2.5099 N   0  0  0  0  0  0  0  0  0  0  0  0
   17.9609   -5.3070    3.1007 C   0  0  0  0  0  0  0  0  0  0  0  0
   16.9221   -4.5083    3.5903 N   0  0  0  0  0  0  0  0  0  0  0  0
   16.9908   -3.1753    3.4697 C   0  0  0  0  0  0  0  0  0  0  0  0
   18.0362   -2.6019    2.8784 C   0  0  0  0  0  0  0  0  0  0  0  0
   19.0288   -3.3397    2.3870 C   0  0  0  0  0  0  0  0  0  0  0  0
   19.9807   -2.8098    1.8162 O   0  0  0  0  0  0  0  0  0  0  0  0
   17.8791   -1.2838    2.9650 N   0  0  0  0  0  0  0  0  0  0  0  0
   16.7382   -1.0410    3.6025 C   0  0  0  0  0  0  0  0  0  0  0  0
   16.1862   -2.2121    3.9070 N   0  0  0  0  0  0  0  0  0  0  0  0
  1  2  1  0  0  0  0
  1  6  1  0  0  0  0
  2  3  2  0  0  0  0
  3  4  1  0  0  0  0
  4  5  2  0  0  0  0
  4 10  1  0  0  0  0
  5  6  1  0  0  0  0
  5  8  1  0  0  0  0
  6  7  2  0  0  0  0
  8  9  1  0  0  0  0
  9 10  2  0  0  0  0
M  END
>  <CHROM.1>
17.91246769,-3.09741510,2.99954944,0.77109790,-0.50551821,3.09807905

>  <Name>
ligand

>  <RI>
0

>  <Rbt.Current_Directory>
/home/itssahil/PROJECTS/Mol_Feturizer/New_Systems/rnas/4NYD

>  <Rbt.Executable>
rbdock ($Id: //depot/dev/client3/rdock/2013.1/src/exe/rbdock.cxx#4 $)

>  <Rbt.Library>
libRbt.so (2013.1, Build901 2013/11/27)

>  <Rbt.Parameter_File>
/export/apps/rDock/src/rDock_2013.1_src/data/scripts/dock_solv.prm

>  <Rbt.Receptor>
prm/blind_docking_60.prm

>  <SCORE>
-23.7584

>  <SCORE.INTER>
-23.7584

>  <SCORE.INTER.CONST>
1

>  <SCORE.INTER.POLAR>
0

>  <SCORE.INTER.ROT>
0

>  <SCORE.INTER.SOLV>
3.35268

>  <SCORE.INTER.VDW>
-20.5565

>  <SCORE.INTER.norm>
-2.37584

>  <SCORE.INTRA>
0

>  <SCORE.INTRA.DIHEDRAL>
0

>  <SCORE.INTRA.DIHEDRAL.0>
0

>  <SCORE.INTRA.POLAR>
0

>  <SCORE.INTRA.POLAR.0>
0

>  <SCORE.INTRA.REPUL>
0

>  <SCORE.INTRA.REPUL.0>
0

>  <SCORE.INTRA.SOLV>
0

>  <SCORE.INTRA.SOLV.lig_0>
-4.1818

>  <SCORE.INTRA.VDW>
0

>  <SCORE.INTRA.VDW.0>
0

>  <SCORE.INTRA.norm>
0

>  <SCORE.RESTR>
0

>  <SCORE.RESTR.CAVITY>
0

>  <SCORE.RESTR.norm>
0

>  <SCORE.SYSTEM>
0

>  <SCORE.SYSTEM.CONST>
0

>  <SCORE.SYSTEM.DIHEDRAL>
0

>  <SCORE.SYSTEM.SOLV>
0

>  <SCORE.SYSTEM.norm>
0

>  <SCORE.heavy>
10

>  <SCORE.norm>
-2.37584

>  <RMSD>
1.187

$$$$
ligand
 OpenBabel11021811503D
libRbt.so/2013.1/901 2013/11/27
 10 11  0  0  0  0  0  0  0  0999 V2000
   18.9809   -4.7832    2.4746 N   0  0  0  0  0  0  0  0  0  0  0  0
   17.9694   -5.3492    3.1061 C   0  0  0  0  0  0  0  0  0  0  0  0
   16.9419   -4.5447    3.6100 N   0  0  0  0  0  0  0  0  0  0  0  0
   17.0016   -3.2141    3.4614 C   0  0  0  0  0  0  0  0  0  0  0  0
   18.0272   -2.6487    2.8290 C   0  0  0  0  0  0  0  0  0  0  0  0
   19.0082   -3.3926    2.3235 C   0  0  0  0  0  0  0  0  0  0  0  0
   19.9410   -2.8706    1.7152 O   0  0  0  0  0  0  0  0  0  0  0  0
   17.8672   -1.3298    2.8944 N   0  0  0  0  0  0  0  0  0  0  0  0
   16.7442   -1.0785    3.5599 C   0  0  0  0  0  0  0  0  0  0  0  0
   16.2061   -2.2454    3.9029 N   0  0  0  0  0  0  0  0  0  0  0  0
  1  2  1  0  0  0  0
  1  6  1  0  0  0  0
  2  3  2  0  0  0  0
  3  4  1  0  0  0  0
  4  5  2  0  0  0  0
  4 10  1  0  0  0  0
  5  6  1  0  0  0  0
  5  8  1  0  0  0  0
  6  7  2  0  0  0  0
  8  9  1  0  0  0  0
  9 10  2  0  0  0  0
M  END
>  <CHROM.1>
17.90900038,-3.14221701,2.96334826,0.76489011,-0.53418233,3.07543372

>  <Name>
ligand

>  <RI>
0

>  <Rbt.Current_Directory>
/home/itssahil/PROJECTS/Mol_Feturizer/New_Systems/rnas/4NYD

>  <Rbt.Executable>
rbdock ($Id: //depot/dev/client3/rdock/2013.1/src/exe/rbdock.cxx#4 $)

>  <Rbt.Library>
libRbt.so (2013.1, Build901 2013/11/27)

>  <Rbt.Parameter_File>
/export/apps/rDock/src/rDock_2013.1_src/data/scripts/dock_solv.prm

>  <Rbt.Receptor>
prm/blind_docking_80.prm

>  <SCORE>
-23.7396

>  <SCORE.INTER>
-23.7396

>  <SCORE.INTER.CONST>
1

>  <SCORE.INTER.POLAR>
0

>  <SCORE.INTER.ROT>
0

>  <SCORE.INTER.SOLV>
3.32061

>  <SCORE.INTER.VDW>
-20.5332

>  <SCORE.INTER.norm>
-2.37396

>  <SCORE.INTRA>
0

>  <SCORE.INTRA.DIHEDRAL>
0

>  <SCORE.INTRA.DIHEDRAL.0>
0

>  <SCORE.INTRA.POLAR>
0

>  <SCORE.INTRA.POLAR.0>
0

>  <SCORE.INTRA.REPUL>
0

>  <SCORE.INTRA.REPUL.0>
0

>  <SCORE.INTRA.SOLV>
0

>  <SCORE.INTRA.SOLV.lig_0>
-4.1818

>  <SCORE.INTRA.VDW>
0

>  <SCORE.INTRA.VDW.0>
0

>  <SCORE.INTRA.norm>
0

>  <SCORE.RESTR>
0

>  <SCORE.RESTR.CAVITY>
0

>  <SCORE.RESTR.norm>
0

>  <SCORE.SYSTEM>
0

>  <SCORE.SYSTEM.CONST>
0

>  <SCORE.SYSTEM.DIHEDRAL>
0

>  <SCORE.SYSTEM.SOLV>
0

>  <SCORE.SYSTEM.norm>
0

>  <SCORE.heavy>
10

>  <SCORE.norm>
-2.37396

>  <RMSD>
1.187

$$$$
ligand
 OpenBabel11021811503D
libRbt.so/2013.1/901 2013/11/27
 10 11  0  0  0  0  0  0  0  0999 V2000
   18.9947   -4.7477    2.5125 N   0  0  0  0  0  0  0  0  0  0  0  0
   17.9672   -5.3201    3.1115 C   0  0  0  0  0  0  0  0  0  0  0  0
   16.9305   -4.5203    3.6037 N   0  0  0  0  0  0  0  0  0  0  0  0
   16.9974   -3.1877    3.4771 C   0  0  0  0  0  0  0  0  0  0  0  0
   18.0390   -2.6159    2.8776 C   0  0  0  0  0  0  0  0  0  0  0  0
   19.0294   -3.3550    2.3836 C   0  0  0  0  0  0  0  0  0  0  0  0
   19.9775   -2.8267    1.8052 O   0  0  0  0  0  0  0  0  0  0  0  0
   17.8812   -1.2976    2.9596 N   0  0  0  0  0  0  0  0  0  0  0  0
   16.7438   -1.0530    3.6026 C   0  0  0  0  0  0  0  0  0  0  0  0
   16.1945   -2.2234    3.9150 N   0  0  0  0  0  0  0  0  0  0  0  0
  1  2  1  0  0  0  0
  1  6  1  0  0  0  0
  2  3  2  0  0  0  0
  3  4  1  0  0  0  0
  4  5  2  0  0  0  0
  4 10  1  0  0  0  0
  5  6  1  0  0  0  0
  5  8  1  0  0  0  0
  6  7  2  0  0  0  0
  8  9  1  0  0  0  0
  9 10  2  0  0  0  0
M  END
>  <CHROM.1>
17.91630869,-3.11102397,3.00146423,0.76986624,-0.51114466,3.09333222

>  <Name>
ligand

>  <RI>
0

>  <Rbt.Current_Directory>
/home/itssahil/PROJECTS/Mol_Feturizer/New_Systems/rnas/4NYD

>  <Rbt.Executable>
rbdock ($Id: //depot/dev/client3/rdock/2013.1/src/exe/rbdock.cxx#4 $)

>  <Rbt.Library>
libRbt.so (2013.1, Build901 2013/11/27)

>  <Rbt.Parameter_File>
/export/apps/rDock/src/rDock_2013.1_src/data/scripts/dock_solv.prm

>  <Rbt.Receptor>
prm/pocket_docking_3.prm

>  <SCORE>
-23.761

>  <SCORE.INTER>
-23.761

>  <SCORE.INTER.CONST>
1

>  <SCORE.INTER.POLAR>
0

>  <SCORE.INTER.ROT>
0

>  <SCORE.INTER.SOLV>
3.35494

>  <SCORE.INTER.VDW>
-20.559

>  <SCORE.INTER.norm>
-2.3761

>  <SCORE.INTRA>
0

>  <SCORE.INTRA.DIHEDRAL>
0

>  <SCORE.INTRA.DIHEDRAL.0>
0

>  <SCORE.INTRA.POLAR>
0

>  <SCORE.INTRA.POLAR.0>
0

>  <SCORE.INTRA.REPUL>
0

>  <SCORE.INTRA.REPUL.0>
0

>  <SCORE.INTRA.SOLV>
0

>  <SCORE.INTRA.SOLV.lig_0>
-4.1818

>  <SCORE.INTRA.VDW>
0

>  <SCORE.INTRA.VDW.0>
0

>  <SCORE.INTRA.norm>
0

>  <SCORE.RESTR>
0

>  <SCORE.RESTR.CAVITY>
0

>  <SCORE.RESTR.norm>
0

>  <SCORE.SYSTEM>
0

>  <SCORE.SYSTEM.CONST>
0

>  <SCORE.SYSTEM.DIHEDRAL>
0

>  <SCORE.SYSTEM.SOLV>
0

>  <SCORE.SYSTEM.norm>
0

>  <SCORE.heavy>
10

>  <SCORE.norm>
-2.3761

>  <RMSD>
1.187

$$$$
ligand
 OpenBabel11021811503D
libRbt.so/2013.1/901 2013/11/27
 10 11  0  0  0  0  0  0  0  0999 V2000
   18.9833   -4.7473    2.4910 N   0  0  0  0  0  0  0  0  0  0  0  0
   17.9599   -5.3179    3.0988 C   0  0  0  0  0  0  0  0  0  0  0  0
   16.9281   -4.5162    3.5985 N   0  0  0  0  0  0  0  0  0  0  0  0
   16.9956   -3.1839    3.4699 C   0  0  0  0  0  0  0  0  0  0  0  0
   18.0330   -2.6139    2.8614 C   0  0  0  0  0  0  0  0  0  0  0  0
   19.0186   -3.3548    2.3603 C   0  0  0  0  0  0  0  0  0  0  0  0
   19.9627   -2.8282    1.7737 O   0  0  0  0  0  0  0  0  0  0  0  0
   17.8775   -1.2954    2.9432 N   0  0  0  0  0  0  0  0  0  0  0  0
   16.7455   -1.0488    3.5950 C   0  0  0  0  0  0  0  0  0  0  0  0
   16.1974   -2.2182    3.9131 N   0  0  0  0  0  0  0  0  0  0  0  0
  1  2  1  0  0  0  0
  1  6  1  0  0  0  0
  2  3  2  0  0  0  0
  3  4  1  0  0  0  0
  4  5  2  0  0  0  0
  4 10  1  0  0  0  0
  5  6  1  0  0  0  0
  5  8  1  0  0  0  0
  6  7  2  0  0  0  0
  8  9  1  0  0  0  0
  9 10  2  0  0  0  0
M  END
>  <CHROM.1>
17.91076510,-3.10881460,2.98678614,0.77075023,-0.51919359,3.09267104

>  <Name>
ligand

>  <RI>
0

>  <Rbt.Current_Directory>
/home/itssahil/PROJECTS/Mol_Feturizer/New_Systems/rnas/4NYD

>  <Rbt.Executable>
rbdock ($Id: //depot/dev/client3/rdock/2013.1/src/exe/rbdock.cxx#4 $)

>  <Rbt.Library>
libRbt.so (2013.1, Build901 2013/11/27)

>  <Rbt.Parameter_File>
/export/apps/rDock/src/rDock_2013.1_src/data/scripts/dock_solv.prm

>  <Rbt.Receptor>
prm/pocket_docking_3.prm

>  <SCORE>
-23.7654

>  <SCORE.INTER>
-23.7654

>  <SCORE.INTER.CONST>
1

>  <SCORE.INTER.POLAR>
0

>  <SCORE.INTER.ROT>
0

>  <SCORE.INTER.SOLV>
3.34617

>  <SCORE.INTER.VDW>
-20.559

>  <SCORE.INTER.norm>
-2.37654

>  <SCORE.INTRA>
0

>  <SCORE.INTRA.DIHEDRAL>
0

>  <SCORE.INTRA.DIHEDRAL.0>
0

>  <SCORE.INTRA.POLAR>
0

>  <SCORE.INTRA.POLAR.0>
0

>  <SCORE.INTRA.REPUL>
0

>  <SCORE.INTRA.REPUL.0>
0

>  <SCORE.INTRA.SOLV>
0

>  <SCORE.INTRA.SOLV.lig_0>
-4.1818

>  <SCORE.INTRA.VDW>
0

>  <SCORE.INTRA.VDW.0>
0

>  <SCORE.INTRA.norm>
0

>  <SCORE.RESTR>
0

>  <SCORE.RESTR.CAVITY>
0

>  <SCORE.RESTR.norm>
0

>  <SCORE.SYSTEM>
0

>  <SCORE.SYSTEM.CONST>
0

>  <SCORE.SYSTEM.DIHEDRAL>
0

>  <SCORE.SYSTEM.SOLV>
0

>  <SCORE.SYSTEM.norm>
0

>  <SCORE.heavy>
10

>  <SCORE.norm>
-2.37654

>  <RMSD>
1.187

$$$$
ligand
 OpenBabel11021811503D
libRbt.so/2013.1/901 2013/11/27
 10 11  0  0  0  0  0  0  0  0999 V2000
   18.9883   -4.7785    2.4861 N   0  0  0  0  0  0  0  0  0  0  0  0
   17.9748   -5.3478    3.1114 C   0  0  0  0  0  0  0  0  0  0  0  0
   16.9425   -4.5465    3.6106 N   0  0  0  0  0  0  0  0  0  0  0  0
   16.9996   -3.2156    3.4638 C   0  0  0  0  0  0  0  0  0  0  0  0
   18.0272   -2.6468    2.8376 C   0  0  0  0  0  0  0  0  0  0  0  0
   19.0128   -3.3877    2.3366 C   0  0  0  0  0  0  0  0  0  0  0  0
   19.9476   -2.8626    1.7339 O   0  0  0  0  0  0  0  0  0  0  0  0
   17.8635   -1.3284    2.9035 N   0  0  0  0  0  0  0  0  0  0  0  0
   16.7363   -1.0807    3.5631 C   0  0  0  0  0  0  0  0  0  0  0  0
   16.1993   -2.2493    3.9020 N   0  0  0  0  0  0  0  0  0  0  0  0
  1  2  1  0  0  0  0
  1  6  1  0  0  0  0
  2  3  2  0  0  0  0
  3  4  1  0  0  0  0
  4  5  2  0  0  0  0
  4 10  1  0  0  0  0
  5  6  1  0  0  0  0
  5  8  1  0  0  0  0
  6  7  2  0  0  0  0
  8  9  1  0  0  0  0
  9 10  2  0  0  0  0
M  END
>  <CHROM.1>
17.90952999,-3.14079895,2.97073612,0.76235767,-0.52860249,3.07522615

>  <Name>
ligand

>  <RI>
0

>  <Rbt.Current_Directory>
/home/itssahil/PROJECTS/Mol_Feturizer/New_Systems/rnas/4NYD

>  <Rbt.Executable>
rbdock ($Id: //depot/dev/client3/rdock/2013.1/src/exe/rbdock.cxx#4 $)

>  <Rbt.Library>
libRbt.so (2013.1, Build901 2013/11/27)

>  <Rbt.Parameter_File>
/export/apps/rDock/src/rDock_2013.1_src/data/scripts/dock_solv.prm

>  <Rbt.Receptor>
prm/pocket_docking_5.prm

>  <SCORE>
-23.7411

>  <SCORE.INTER>
-23.7411

>  <SCORE.INTER.CONST>
1

>  <SCORE.INTER.POLAR>
0

>  <SCORE.INTER.ROT>
0

>  <SCORE.INTER.SOLV>
3.32401

>  <SCORE.INTER.VDW>
-20.5354

>  <SCORE.INTER.norm>
-2.37411

>  <SCORE.INTRA>
0

>  <SCORE.INTRA.DIHEDRAL>
0

>  <SCORE.INTRA.DIHEDRAL.0>
0

>  <SCORE.INTRA.POLAR>
0

>  <SCORE.INTRA.POLAR.0>
0

>  <SCORE.INTRA.REPUL>
0

>  <SCORE.INTRA.REPUL.0>
0

>  <SCORE.INTRA.SOLV>
0

>  <SCORE.INTRA.SOLV.lig_0>
-4.1818

>  <SCORE.INTRA.VDW>
0

>  <SCORE.INTRA.VDW.0>
0

>  <SCORE.INTRA.norm>
0

>  <SCORE.RESTR>
0

>  <SCORE.RESTR.CAVITY>
0

>  <SCORE.RESTR.norm>
0

>  <SCORE.SYSTEM>
0

>  <SCORE.SYSTEM.CONST>
0

>  <SCORE.SYSTEM.DIHEDRAL>
0

>  <SCORE.SYSTEM.SOLV>
0

>  <SCORE.SYSTEM.norm>
0

>  <SCORE.heavy>
10

>  <SCORE.norm>
-2.37411

>  <RMSD>
1.187

$$$$
ligand
 OpenBabel11021811503D
libRbt.so/2013.1/901 2013/11/27
 10 11  0  0  0  0  0  0  0  0999 V2000
   18.9794   -4.7515    2.4863 N   0  0  0  0  0  0  0  0  0  0  0  0
   17.9557   -5.3197    3.0958 C   0  0  0  0  0  0  0  0  0  0  0  0
   16.9262   -4.5157    3.5964 N   0  0  0  0  0  0  0  0  0  0  0  0
   16.9962   -3.1836    3.4670 C   0  0  0  0  0  0  0  0  0  0  0  0
   18.0340   -2.6161    2.8568 C   0  0  0  0  0  0  0  0  0  0  0  0
   19.0174   -3.3592    2.3548 C   0  0  0  0  0  0  0  0  0  0  0  0
   19.9618   -2.8348    1.7668 O   0  0  0  0  0  0  0  0  0  0  0  0
   17.8813   -1.2972    2.9382 N   0  0  0  0  0  0  0  0  0  0  0  0
   16.7506   -1.0479    3.5913 C   0  0  0  0  0  0  0  0  0  0  0  0
   16.2005   -2.2159    3.9107 N   0  0  0  0  0  0  0  0  0  0  0  0
  1  2  1  0  0  0  0
  1  6  1  0  0  0  0
  2  3  2  0  0  0  0
  3  4  1  0  0  0  0
  4  5  2  0  0  0  0
  4 10  1  0  0  0  0
  5  6  1  0  0  0  0
  5  8  1  0  0  0  0
  6  7  2  0  0  0  0
  8  9  1  0  0  0  0
  9 10  2  0  0  0  0
M  END
>  <CHROM.1>
17.91088247,-3.11062005,2.98266447,0.77304638,-0.52060479,3.09328470

>  <Name>
ligand

>  <RI>
0

>  <Rbt.Current_Directory>
/home/itssahil/PROJECTS/Mol_Feturizer/New_Systems/rnas/4NYD

>  <Rbt.Executable>
rbdock ($Id: //depot/dev/client3/rdock/2013.1/src/exe/rbdock.cxx#4 $)

>  <Rbt.Library>
libRbt.so (2013.1, Build901 2013/11/27)

>  <Rbt.Parameter_File>
/export/apps/rDock/src/rDock_2013.1_src/data/scripts/dock_solv.prm

>  <Rbt.Receptor>
prm/pocket_docking_5.prm

>  <SCORE>
-23.7637

>  <SCORE.INTER>
-23.7637

>  <SCORE.INTER.CONST>
1

>  <SCORE.INTER.POLAR>
0

>  <SCORE.INTER.ROT>
0

>  <SCORE.INTER.SOLV>
3.34361

>  <SCORE.INTER.VDW>
-20.557

>  <SCORE.INTER.norm>
-2.37637

>  <SCORE.INTRA>
0

>  <SCORE.INTRA.DIHEDRAL>
0

>  <SCORE.INTRA.DIHEDRAL.0>
0

>  <SCORE.INTRA.POLAR>
0

>  <SCORE.INTRA.POLAR.0>
0

>  <SCORE.INTRA.REPUL>
0

>  <SCORE.INTRA.REPUL.0>
0

>  <SCORE.INTRA.SOLV>
0

>  <SCORE.INTRA.SOLV.lig_0>
-4.1818

>  <SCORE.INTRA.VDW>
0

>  <SCORE.INTRA.VDW.0>
0

>  <SCORE.INTRA.norm>
0

>  <SCORE.RESTR>
0

>  <SCORE.RESTR.CAVITY>
0

>  <SCORE.RESTR.norm>
0

>  <SCORE.SYSTEM>
0

>  <SCORE.SYSTEM.CONST>
0

>  <SCORE.SYSTEM.DIHEDRAL>
0

>  <SCORE.SYSTEM.SOLV>
0

>  <SCORE.SYSTEM.norm>
0

>  <SCORE.heavy>
10

>  <SCORE.norm>
-2.37637

>  <RMSD>
1.187

$$$$
ligand
 OpenBabel11021811503D
libRbt.so/2013.1/901 2013/11/27
 10 11  0  0  0  0  0  0  0  0999 V2000
   18.9890   -4.7530    2.5069 N   0  0  0  0  0  0  0  0  0  0  0  0
   17.9603   -5.3223    3.1070 C   0  0  0  0  0  0  0  0  0  0  0  0
   16.9249   -4.5196    3.5972 N   0  0  0  0  0  0  0  0  0  0  0  0
   16.9941   -3.1874    3.4677 C   0  0  0  0  0  0  0  0  0  0  0  0
   18.0368   -2.6187    2.8670 C   0  0  0  0  0  0  0  0  0  0  0  0
   19.0261   -3.3607    2.3749 C   0  0  0  0  0  0  0  0  0  0  0  0
   19.9753   -2.8353    1.7955 O   0  0  0  0  0  0  0  0  0  0  0  0
   17.8814   -1.3001    2.9461 N   0  0  0  0  0  0  0  0  0  0  0  0
   16.7442   -1.0520    3.5883 C   0  0  0  0  0  0  0  0  0  0  0  0
   16.1929   -2.2207    3.9032 N   0  0  0  0  0  0  0  0  0  0  0  0
  1  2  1  0  0  0  0
  1  6  1  0  0  0  0
  2  3  2  0  0  0  0
  3  4  1  0  0  0  0
  4  5  2  0  0  0  0
  4 10  1  0  0  0  0
  5  6  1  0  0  0  0
  5  8  1  0  0  0  0
  6  7  2  0  0  0  0
  8  9  1  0  0  0  0
  9 10  2  0  0  0  0
M  END
>  <CHROM.1>
17.91330017,-3.11340343,2.99201842,0.77185697,-0.51103569,3.09205701

>  <Name>
ligand

>  <RI>
0

>  <Rbt.Current_Directory>
/home/itssahil/PROJECTS/Mol_Feturizer/New_Systems/rnas/4NYD

>  <Rbt.Executable>
rbdock ($Id: //depot/dev/client3/rdock/2013.1/src/exe/rbdock.cxx#4 $)

>  <Rbt.Library>
libRbt.so (2013.1, Build901 2013/11/27)

>  <Rbt.Parameter_File>
/export/apps/rDock/src/rDock_2013.1_src/data/scripts/dock_solv.prm

>  <Rbt.Receptor>
prm/pocket_docking_5.prm

>  <SCORE>
-23.7579

>  <SCORE.INTER>
-23.7579

>  <SCORE.INTER.CONST>
1

>  <SCORE.INTER.POLAR>
0

>  <SCORE.INTER.ROT>
0

>  <SCORE.INTER.SOLV>
3.34455

>  <SCORE.INTER.VDW>
-20.5534

>  <SCORE.INTER.norm>
-2.37579

>  <SCORE.INTRA>
0

>  <SCORE.INTRA.DIHEDRAL>
0

>  <SCORE.INTRA.DIHEDRAL.0>
0

>  <SCORE.INTRA.POLAR>
0

>  <SCORE.INTRA.POLAR.0>
0

>  <SCORE.INTRA.REPUL>
0

>  <SCORE.INTRA.REPUL.0>
0

>  <SCORE.INTRA.SOLV>
0

>  <SCORE.INTRA.SOLV.lig_0>
-4.1818

>  <SCORE.INTRA.VDW>
0

>  <SCORE.INTRA.VDW.0>
0

>  <SCORE.INTRA.norm>
0

>  <SCORE.RESTR>
0

>  <SCORE.RESTR.CAVITY>
0

>  <SCORE.RESTR.norm>
0

>  <SCORE.SYSTEM>
0

>  <SCORE.SYSTEM.CONST>
0

>  <SCORE.SYSTEM.DIHEDRAL>
0

>  <SCORE.SYSTEM.SOLV>
0

>  <SCORE.SYSTEM.norm>
0

>  <SCORE.heavy>
10

>  <SCORE.norm>
-2.37579

>  <RMSD>
1.187

$$$$
ligand
 OpenBabel11021811503D
libRbt.so/2013.1/901 2013/11/27
 10 11  0  0  0  0  0  0  0  0999 V2000
   18.9878   -4.7479    2.4999 N   0  0  0  0  0  0  0  0  0  0  0  0
   17.9635   -5.3182    3.1065 C   0  0  0  0  0  0  0  0  0  0  0  0
   16.9299   -4.5166    3.6022 N   0  0  0  0  0  0  0  0  0  0  0  0
   16.9964   -3.1844    3.4712 C   0  0  0  0  0  0  0  0  0  0  0  0
   18.0347   -2.6147    2.8640 C   0  0  0  0  0  0  0  0  0  0  0  0
   19.0221   -3.3556    2.3666 C   0  0  0  0  0  0  0  0  0  0  0  0
   19.9671   -2.8293    1.7812 O   0  0  0  0  0  0  0  0  0  0  0  0
   17.8778   -1.2962    2.9430 N   0  0  0  0  0  0  0  0  0  0  0  0
   16.7441   -1.0493    3.5917 C   0  0  0  0  0  0  0  0  0  0  0  0
   16.1963   -2.2185    3.9108 N   0  0  0  0  0  0  0  0  0  0  0  0
  1  2  1  0  0  0  0
  1  6  1  0  0  0  0
  2  3  2  0  0  0  0
  3  4  1  0  0  0  0
  4  5  2  0  0  0  0
  4 10  1  0  0  0  0
  5  6  1  0  0  0  0
  5  8  1  0  0  0  0
  6  7  2  0  0  0  0
  8  9  1  0  0  0  0
  9 10  2  0  0  0  0
M  END
>  <CHROM.1>
17.91261386,-3.10942632,2.99009082,0.76985201,-0.51687104,3.09031053

>  <Name>
ligand

>  <RI>
0

>  <Rbt.Current_Directory>
/home/itssahil/PROJECTS/Mol_Feturizer/New_Systems/rnas/4NYD

>  <Rbt.Executable>
rbdock ($Id: //depot/dev/client3/rdock/2013.1/src/exe/rbdock.cxx#4 $)

>  <Rbt.Library>
libRbt.so (2013.1, Build901 2013/11/27)

>  <Rbt.Parameter_File>
/export/apps/rDock/src/rDock_2013.1_src/data/scripts/dock_solv.prm

>  <Rbt.Receptor>
prm/pocket_docking_6.prm

>  <SCORE>
-23.7678

>  <SCORE.INTER>
-23.7678

>  <SCORE.INTER.CONST>
1

>  <SCORE.INTER.POLAR>
0

>  <SCORE.INTER.ROT>
0

>  <SCORE.INTER.SOLV>
3.34568

>  <SCORE.INTER.VDW>
-20.5605

>  <SCORE.INTER.norm>
-2.37678

>  <SCORE.INTRA>
0

>  <SCORE.INTRA.DIHEDRAL>
0

>  <SCORE.INTRA.DIHEDRAL.0>
0

>  <SCORE.INTRA.POLAR>
0

>  <SCORE.INTRA.POLAR.0>
0

>  <SCORE.INTRA.REPUL>
0

>  <SCORE.INTRA.REPUL.0>
0

>  <SCORE.INTRA.SOLV>
0

>  <SCORE.INTRA.SOLV.lig_0>
-4.1818

>  <SCORE.INTRA.VDW>
0

>  <SCORE.INTRA.VDW.0>
0

>  <SCORE.INTRA.norm>
0

>  <SCORE.RESTR>
0

>  <SCORE.RESTR.CAVITY>
0

>  <SCORE.RESTR.norm>
0

>  <SCORE.SYSTEM>
0

>  <SCORE.SYSTEM.CONST>
0

>  <SCORE.SYSTEM.DIHEDRAL>
0

>  <SCORE.SYSTEM.SOLV>
0

>  <SCORE.SYSTEM.norm>
0

>  <SCORE.heavy>
10

>  <SCORE.norm>
-2.37678

>  <RMSD>
1.187

$$$$
ligand
 OpenBabel11021811503D
libRbt.so/2013.1/901 2013/11/27
 10 11  0  0  0  0  0  0  0  0999 V2000
   18.9933   -4.7470    2.5153 N   0  0  0  0  0  0  0  0  0  0  0  0
   17.9632   -5.3173    3.1120 C   0  0  0  0  0  0  0  0  0  0  0  0
   16.9262   -4.5153    3.6003 N   0  0  0  0  0  0  0  0  0  0  0  0
   16.9954   -3.1830    3.4724 C   0  0  0  0  0  0  0  0  0  0  0  0
   18.0395   -2.6134    2.8752 C   0  0  0  0  0  0  0  0  0  0  0  0
   19.0303   -3.3545    2.3849 C   0  0  0  0  0  0  0  0  0  0  0  0
   19.9809   -2.8282    1.8087 O   0  0  0  0  0  0  0  0  0  0  0  0
   17.8835   -1.2948    2.9553 N   0  0  0  0  0  0  0  0  0  0  0  0
   16.7445   -1.0479    3.5947 C   0  0  0  0  0  0  0  0  0  0  0  0
   16.1927   -2.2170    3.9069 N   0  0  0  0  0  0  0  0  0  0  0  0
  1  2  1  0  0  0  0
  1  6  1  0  0  0  0
  2  3  2  0  0  0  0
  3  4  1  0  0  0  0
  4  5  2  0  0  0  0
  4 10  1  0  0  0  0
  5  6  1  0  0  0  0
  5  8  1  0  0  0  0
  6  7  2  0  0  0  0
  8  9  1  0  0  0  0
  9 10  2  0  0  0  0
M  END
>  <CHROM.1>
17.91581360,-3.10821095,2.99932000,0.77166645,-0.50832568,3.09306549

>  <Name>
ligand

>  <RI>
0

>  <Rbt.Current_Directory>
/home/itssahil/PROJECTS/Mol_Feturizer/New_Systems/rnas/4NYD

>  <Rbt.Executable>
rbdock ($Id: //depot/dev/client3/rdock/2013.1/src/exe/rbdock.cxx#4 $)

>  <Rbt.Library>
libRbt.so (2013.1, Build901 2013/11/27)

>  <Rbt.Parameter_File>
/export/apps/rDock/src/rDock_2013.1_src/data/scripts/dock_solv.prm

>  <Rbt.Receptor>
prm/pocket_docking_6.prm

>  <SCORE>
-23.7614

>  <SCORE.INTER>
-23.7614

>  <SCORE.INTER.CONST>
1

>  <SCORE.INTER.POLAR>
0

>  <SCORE.INTER.ROT>
0

>  <SCORE.INTER.SOLV>
3.35058

>  <SCORE.INTER.VDW>
-20.5578

>  <SCORE.INTER.norm>
-2.37614

>  <SCORE.INTRA>
0

>  <SCORE.INTRA.DIHEDRAL>
0

>  <SCORE.INTRA.DIHEDRAL.0>
0

>  <SCORE.INTRA.POLAR>
0

>  <SCORE.INTRA.POLAR.0>
0

>  <SCORE.INTRA.REPUL>
0

>  <SCORE.INTRA.REPUL.0>
0

>  <SCORE.INTRA.SOLV>
0

>  <SCORE.INTRA.SOLV.lig_0>
-4.1818

>  <SCORE.INTRA.VDW>
0

>  <SCORE.INTRA.VDW.0>
0

>  <SCORE.INTRA.norm>
0

>  <SCORE.RESTR>
0

>  <SCORE.RESTR.CAVITY>
0

>  <SCORE.RESTR.norm>
0

>  <SCORE.SYSTEM>
0

>  <SCORE.SYSTEM.CONST>
0

>  <SCORE.SYSTEM.DIHEDRAL>
0

>  <SCORE.SYSTEM.SOLV>
0

>  <SCORE.SYSTEM.norm>
0

>  <SCORE.heavy>
10

>  <SCORE.norm>
-2.37614

>  <RMSD>
1.187

$$$$
ligand
 OpenBabel11021811503D
libRbt.so/2013.1/901 2013/11/27
 10 11  0  0  0  0  0  0  0  0999 V2000
   18.9782   -4.7651    2.4799 N   0  0  0  0  0  0  0  0  0  0  0  0
   17.9610   -5.3316    3.1017 C   0  0  0  0  0  0  0  0  0  0  0  0
   16.9337   -4.5268    3.6055 N   0  0  0  0  0  0  0  0  0  0  0  0
   16.9994   -3.1954    3.4667 C   0  0  0  0  0  0  0  0  0  0  0  0
   18.0307   -2.6295    2.8442 C   0  0  0  0  0  0  0  0  0  0  0  0
   19.0117   -3.3735    2.3389 C   0  0  0  0  0  0  0  0  0  0  0  0
   19.9499   -2.8508    1.7395 O   0  0  0  0  0  0  0  0  0  0  0  0
   17.8754   -1.3104    2.9180 N   0  0  0  0  0  0  0  0  0  0  0  0
   16.7496   -1.0595    3.5789 C   0  0  0  0  0  0  0  0  0  0  0  0
   16.2051   -2.2267    3.9107 N   0  0  0  0  0  0  0  0  0  0  0  0
  1  2  1  0  0  0  0
  1  6  1  0  0  0  0
  2  3  2  0  0  0  0
  3  4  1  0  0  0  0
  4  5  2  0  0  0  0
  4 10  1  0  0  0  0
  5  6  1  0  0  0  0
  5  8  1  0  0  0  0
  6  7  2  0  0  0  0
  8  9  1  0  0  0  0
  9 10  2  0  0  0  0
M  END
>  <CHROM.1>
17.90984467,-3.12344897,2.97428929,0.76974895,-0.52881046,3.08500168

>  <Name>
ligand

>  <RI>
0

>  <Rbt.Current_Directory>
/home/itssahil/PROJECTS/Mol_Feturizer/New_Systems/rnas/4NYD

>  <Rbt.Executable>
rbdock ($Id: //depot/dev/client3/rdock/2013.1/src/exe/rbdock.cxx#4 $)

>  <Rbt.Library>
libRbt.so (2013.1, Build901 2013/11/27)

>  <Rbt.Parameter_File>
/export/apps/rDock/src/rDock_2013.1_src/data/scripts/dock_solv.prm

>  <Rbt.Receptor>
prm/pocket_docking_7.prm

>  <SCORE>
-23.7258

>  <SCORE.INTER>
-23.7258

>  <SCORE.INTER.CONST>
1

>  <SCORE.INTER.POLAR>
0

>  <SCORE.INTER.ROT>
0

>  <SCORE.INTER.SOLV>
3.33477

>  <SCORE.INTER.VDW>
-20.5288

>  <SCORE.INTER.norm>
-2.37258

>  <SCORE.INTRA>
0

>  <SCORE.INTRA.DIHEDRAL>
0

>  <SCORE.INTRA.DIHEDRAL.0>
0

>  <SCORE.INTRA.POLAR>
0

>  <SCORE.INTRA.POLAR.0>
0

>  <SCORE.INTRA.REPUL>
0

>  <SCORE.INTRA.REPUL.0>
0

>  <SCORE.INTRA.SOLV>
0

>  <SCORE.INTRA.SOLV.lig_0>
-4.1818

>  <SCORE.INTRA.VDW>
0

>  <SCORE.INTRA.VDW.0>
0

>  <SCORE.INTRA.norm>
0

>  <SCORE.RESTR>
0

>  <SCORE.RESTR.CAVITY>
0

>  <SCORE.RESTR.norm>
0

>  <SCORE.SYSTEM>
0

>  <SCORE.SYSTEM.CONST>
0

>  <SCORE.SYSTEM.DIHEDRAL>
0

>  <SCORE.SYSTEM.SOLV>
0

>  <SCORE.SYSTEM.norm>
0

>  <SCORE.heavy>
10

>  <SCORE.norm>
-2.37258

>  <RMSD>
1.187

$$$$
ligand
 OpenBabel11021811503D
libRbt.so/2013.1/901 2013/11/27
 10 11  0  0  0  0  0  0  0  0999 V2000
   18.9625   -4.7957    2.4433 N   0  0  0  0  0  0  0  0  0  0  0  0
   17.9553   -5.3578    3.0852 C   0  0  0  0  0  0  0  0  0  0  0  0
   16.9395   -4.5489    3.6053 N   0  0  0  0  0  0  0  0  0  0  0  0
   17.0060   -3.2181    3.4615 C   0  0  0  0  0  0  0  0  0  0  0  0
   18.0272   -2.6566    2.8186 C   0  0  0  0  0  0  0  0  0  0  0  0
   18.9969   -3.4047    2.2976 C   0  0  0  0  0  0  0  0  0  0  0  0
   19.9253   -2.8862    1.6797 O   0  0  0  0  0  0  0  0  0  0  0  0
   17.8767   -1.3370    2.8914 N   0  0  0  0  0  0  0  0  0  0  0  0
   16.7638   -1.0813    3.5720 C   0  0  0  0  0  0  0  0  0  0  0  0
   16.2225   -2.2461    3.9171 N   0  0  0  0  0  0  0  0  0  0  0  0
  1  2  1  0  0  0  0
  1  6  1  0  0  0  0
  2  3  2  0  0  0  0
  3  4  1  0  0  0  0
  4  5  2  0  0  0  0
  4 10  1  0  0  0  0
  5  6  1  0  0  0  0
  5  8  1  0  0  0  0
  6  7  2  0  0  0  0
  8  9  1  0  0  0  0
  9 10  2  0  0  0  0
M  END
>  <CHROM.1>
17.90750762,-3.14992494,2.95230479,0.77151155,-0.54720764,3.08300622

>  <Name>
ligand

>  <RI>
0

>  <Rbt.Current_Directory>
/home/itssahil/PROJECTS/Mol_Feturizer/New_Systems/rnas/4NYD

>  <Rbt.Executable>
rbdock ($Id: //depot/dev/client3/rdock/2013.1/src/exe/rbdock.cxx#4 $)

>  <Rbt.Library>
libRbt.so (2013.1, Build901 2013/11/27)

>  <Rbt.Parameter_File>
/export/apps/rDock/src/rDock_2013.1_src/data/scripts/dock_solv.prm

>  <Rbt.Receptor>
prm/blind_docking_100.prm

>  <SCORE>
-23.7504

>  <SCORE.INTER>
-23.7504

>  <SCORE.INTER.CONST>
1

>  <SCORE.INTER.POLAR>
0

>  <SCORE.INTER.ROT>
0

>  <SCORE.INTER.SOLV>
3.32989

>  <SCORE.INTER.VDW>
-20.5436

>  <SCORE.INTER.norm>
-2.37504

>  <SCORE.INTRA>
0

>  <SCORE.INTRA.DIHEDRAL>
0

>  <SCORE.INTRA.DIHEDRAL.0>
0

>  <SCORE.INTRA.POLAR>
0

>  <SCORE.INTRA.POLAR.0>
0

>  <SCORE.INTRA.REPUL>
0

>  <SCORE.INTRA.REPUL.0>
0

>  <SCORE.INTRA.SOLV>
0

>  <SCORE.INTRA.SOLV.lig_0>
-4.1818

>  <SCORE.INTRA.VDW>
0

>  <SCORE.INTRA.VDW.0>
0

>  <SCORE.INTRA.norm>
0

>  <SCORE.RESTR>
0

>  <SCORE.RESTR.CAVITY>
0

>  <SCORE.RESTR.norm>
0

>  <SCORE.SYSTEM>
0

>  <SCORE.SYSTEM.CONST>
0

>  <SCORE.SYSTEM.DIHEDRAL>
0

>  <SCORE.SYSTEM.SOLV>
0

>  <SCORE.SYSTEM.norm>
0

>  <SCORE.heavy>
10

>  <SCORE.norm>
-2.37504

>  <RMSD>
1.188

$$$$
ligand
 OpenBabel11021811503D
libRbt.so/2013.1/901 2013/11/27
 10 11  0  0  0  0  0  0  0  0999 V2000
   18.9875   -4.7398    2.5024 N   0  0  0  0  0  0  0  0  0  0  0  0
   17.9603   -5.3120    3.1021 C   0  0  0  0  0  0  0  0  0  0  0  0
   16.9249   -4.5118    3.5966 N   0  0  0  0  0  0  0  0  0  0  0  0
   16.9927   -3.1792    3.4713 C   0  0  0  0  0  0  0  0  0  0  0  0
   18.0340   -2.6076    2.8710 C   0  0  0  0  0  0  0  0  0  0  0  0
   19.0232   -3.3470    2.3749 C   0  0  0  0  0  0  0  0  0  0  0  0
   19.9710   -2.8188    1.7958 O   0  0  0  0  0  0  0  0  0  0  0  0
   17.8775   -1.2893    2.9547 N   0  0  0  0  0  0  0  0  0  0  0  0
   16.7411   -1.0445    3.5994 C   0  0  0  0  0  0  0  0  0  0  0  0
   16.1913   -2.2147    3.9113 N   0  0  0  0  0  0  0  0  0  0  0  0
  1  2  1  0  0  0  0
  1  6  1  0  0  0  0
  2  3  2  0  0  0  0
  3  4  1  0  0  0  0
  4  5  2  0  0  0  0
  4 10  1  0  0  0  0
  5  6  1  0  0  0  0
  5  8  1  0  0  0  0
  6  7  2  0  0  0  0
  8  9  1  0  0  0  0
  9 10  2  0  0  0  0
M  END
>  <CHROM.1>
17.91110609,-3.10276038,2.99453031,0.77073542,-0.51251843,3.09483983

>  <Name>
ligand

>  <RI>
0

>  <Rbt.Current_Directory>
/home/itssahil/PROJECTS/Mol_Feturizer/New_Systems/rnas/4NYD

>  <Rbt.Executable>
rbdock ($Id: //depot/dev/client3/rdock/2013.1/src/exe/rbdock.cxx#4 $)

>  <Rbt.Library>
libRbt.so (2013.1, Build901 2013/11/27)

>  <Rbt.Parameter_File>
/export/apps/rDock/src/rDock_2013.1_src/data/scripts/dock_solv.prm

>  <Rbt.Receptor>
prm/blind_docking_60.prm

>  <SCORE>
-23.7638

>  <SCORE.INTER>
-23.7638

>  <SCORE.INTER.CONST>
1

>  <SCORE.INTER.POLAR>
0

>  <SCORE.INTER.ROT>
0

>  <SCORE.INTER.SOLV>
3.35072

>  <SCORE.INTER.VDW>
-20.5594

>  <SCORE.INTER.norm>
-2.37638

>  <SCORE.INTRA>
0

>  <SCORE.INTRA.DIHEDRAL>
0

>  <SCORE.INTRA.DIHEDRAL.0>
0

>  <SCORE.INTRA.POLAR>
0

>  <SCORE.INTRA.POLAR.0>
0

>  <SCORE.INTRA.REPUL>
0

>  <SCORE.INTRA.REPUL.0>
0

>  <SCORE.INTRA.SOLV>
0

>  <SCORE.INTRA.SOLV.lig_0>
-4.1818

>  <SCORE.INTRA.VDW>
0

>  <SCORE.INTRA.VDW.0>
0

>  <SCORE.INTRA.norm>
0

>  <SCORE.RESTR>
0

>  <SCORE.RESTR.CAVITY>
0

>  <SCORE.RESTR.norm>
0

>  <SCORE.SYSTEM>
0

>  <SCORE.SYSTEM.CONST>
0

>  <SCORE.SYSTEM.DIHEDRAL>
0

>  <SCORE.SYSTEM.SOLV>
0

>  <SCORE.SYSTEM.norm>
0

>  <SCORE.heavy>
10

>  <SCORE.norm>
-2.37638

>  <RMSD>
1.188

$$$$
ligand
 OpenBabel11021811503D
libRbt.so/2013.1/901 2013/11/27
 10 11  0  0  0  0  0  0  0  0999 V2000
   18.9917   -4.7431    2.5137 N   0  0  0  0  0  0  0  0  0  0  0  0
   17.9623   -5.3144    3.1106 C   0  0  0  0  0  0  0  0  0  0  0  0
   16.9251   -4.5134    3.5999 N   0  0  0  0  0  0  0  0  0  0  0  0
   16.9933   -3.1810    3.4727 C   0  0  0  0  0  0  0  0  0  0  0  0
   18.0368   -2.6103    2.8752 C   0  0  0  0  0  0  0  0  0  0  0  0
   19.0278   -3.3505    2.3840 C   0  0  0  0  0  0  0  0  0  0  0  0
   19.9777   -2.8233    1.8075 O   0  0  0  0  0  0  0  0  0  0  0  0
   17.8799   -1.2919    2.9561 N   0  0  0  0  0  0  0  0  0  0  0  0
   16.7411   -1.0460    3.5962 C   0  0  0  0  0  0  0  0  0  0  0  0
   16.1902   -2.2157    3.9081 N   0  0  0  0  0  0  0  0  0  0  0  0
  1  2  1  0  0  0  0
  1  6  1  0  0  0  0
  2  3  2  0  0  0  0
  3  4  1  0  0  0  0
  4  5  2  0  0  0  0
  4 10  1  0  0  0  0
  5  6  1  0  0  0  0
  5  8  1  0  0  0  0
  6  7  2  0  0  0  0
  8  9  1  0  0  0  0
  9 10  2  0  0  0  0
M  END
>  <CHROM.1>
17.91343147,-3.10528726,2.99912955,0.77089600,-0.50883939,3.09322299

>  <Name>
ligand

>  <RI>
0

>  <Rbt.Current_Directory>
/home/itssahil/PROJECTS/Mol_Feturizer/New_Systems/rnas/4NYD

>  <Rbt.Executable>
rbdock ($Id: //depot/dev/client3/rdock/2013.1/src/exe/rbdock.cxx#4 $)

>  <Rbt.Library>
libRbt.so (2013.1, Build901 2013/11/27)

>  <Rbt.Parameter_File>
/export/apps/rDock/src/rDock_2013.1_src/data/scripts/dock_solv.prm

>  <Rbt.Receptor>
prm/pocket_docking_3.prm

>  <SCORE>
-23.7621

>  <SCORE.INTER>
-23.7621

>  <SCORE.INTER.CONST>
1

>  <SCORE.INTER.POLAR>
0

>  <SCORE.INTER.ROT>
0

>  <SCORE.INTER.SOLV>
3.35114

>  <SCORE.INTER.VDW>
-20.5585

>  <SCORE.INTER.norm>
-2.37621

>  <SCORE.INTRA>
0

>  <SCORE.INTRA.DIHEDRAL>
0

>  <SCORE.INTRA.DIHEDRAL.0>
0

>  <SCORE.INTRA.POLAR>
0

>  <SCORE.INTRA.POLAR.0>
0

>  <SCORE.INTRA.REPUL>
0

>  <SCORE.INTRA.REPUL.0>
0

>  <SCORE.INTRA.SOLV>
0

>  <SCORE.INTRA.SOLV.lig_0>
-4.1818

>  <SCORE.INTRA.VDW>
0

>  <SCORE.INTRA.VDW.0>
0

>  <SCORE.INTRA.norm>
0

>  <SCORE.RESTR>
0

>  <SCORE.RESTR.CAVITY>
0

>  <SCORE.RESTR.norm>
0

>  <SCORE.SYSTEM>
0

>  <SCORE.SYSTEM.CONST>
0

>  <SCORE.SYSTEM.DIHEDRAL>
0

>  <SCORE.SYSTEM.SOLV>
0

>  <SCORE.SYSTEM.norm>
0

>  <SCORE.heavy>
10

>  <SCORE.norm>
-2.37621

>  <RMSD>
1.188

$$$$
ligand
 OpenBabel11021811503D
libRbt.so/2013.1/901 2013/11/27
 10 11  0  0  0  0  0  0  0  0999 V2000
   18.9839   -4.7476    2.4930 N   0  0  0  0  0  0  0  0  0  0  0  0
   17.9619   -5.3184    3.1030 C   0  0  0  0  0  0  0  0  0  0  0  0
   16.9298   -4.5172    3.6027 N   0  0  0  0  0  0  0  0  0  0  0  0
   16.9956   -3.1850    3.4719 C   0  0  0  0  0  0  0  0  0  0  0  0
   18.0315   -2.6148    2.8612 C   0  0  0  0  0  0  0  0  0  0  0  0
   19.0174   -3.3553    2.3600 C   0  0  0  0  0  0  0  0  0  0  0  0
   19.9601   -2.8285    1.7714 O   0  0  0  0  0  0  0  0  0  0  0  0
   17.8746   -1.2963    2.9411 N   0  0  0  0  0  0  0  0  0  0  0  0
   16.7432   -1.0500    3.5940 C   0  0  0  0  0  0  0  0  0  0  0  0
   16.1968   -2.2194    3.9147 N   0  0  0  0  0  0  0  0  0  0  0  0
  1  2  1  0  0  0  0
  1  6  1  0  0  0  0
  2  3  2  0  0  0  0
  3  4  1  0  0  0  0
  4  5  2  0  0  0  0
  4 10  1  0  0  0  0
  5  6  1  0  0  0  0
  5  8  1  0  0  0  0
  6  7  2  0  0  0  0
  8  9  1  0  0  0  0
  9 10  2  0  0  0  0
M  END
>  <CHROM.1>
17.91005814,-3.10961114,2.98755869,0.76935487,-0.52042754,3.09037957

>  <Name>
ligand

>  <RI>
0

>  <Rbt.Current_Directory>
/home/itssahil/PROJECTS/Mol_Feturizer/New_Systems/rnas/4NYD

>  <Rbt.Executable>
rbdock ($Id: //depot/dev/client3/rdock/2013.1/src/exe/rbdock.cxx#4 $)

>  <Rbt.Library>
libRbt.so (2013.1, Build901 2013/11/27)

>  <Rbt.Parameter_File>
/export/apps/rDock/src/rDock_2013.1_src/data/scripts/dock_solv.prm

>  <Rbt.Receptor>
prm/pocket_docking_3.prm

>  <SCORE>
-23.7674

>  <SCORE.INTER>
-23.7674

>  <SCORE.INTER.CONST>
1

>  <SCORE.INTER.POLAR>
0

>  <SCORE.INTER.ROT>
0

>  <SCORE.INTER.SOLV>
3.34612

>  <SCORE.INTER.VDW>
-20.5603

>  <SCORE.INTER.norm>
-2.37674

>  <SCORE.INTRA>
0

>  <SCORE.INTRA.DIHEDRAL>
0

>  <SCORE.INTRA.DIHEDRAL.0>
0

>  <SCORE.INTRA.POLAR>
0

>  <SCORE.INTRA.POLAR.0>
0

>  <SCORE.INTRA.REPUL>
0

>  <SCORE.INTRA.REPUL.0>
0

>  <SCORE.INTRA.SOLV>
0

>  <SCORE.INTRA.SOLV.lig_0>
-4.1818

>  <SCORE.INTRA.VDW>
0

>  <SCORE.INTRA.VDW.0>
0

>  <SCORE.INTRA.norm>
0

>  <SCORE.RESTR>
0

>  <SCORE.RESTR.CAVITY>
0

>  <SCORE.RESTR.norm>
0

>  <SCORE.SYSTEM>
0

>  <SCORE.SYSTEM.CONST>
0

>  <SCORE.SYSTEM.DIHEDRAL>
0

>  <SCORE.SYSTEM.SOLV>
0

>  <SCORE.SYSTEM.norm>
0

>  <SCORE.heavy>
10

>  <SCORE.norm>
-2.37674

>  <RMSD>
1.188

$$$$
ligand
 OpenBabel11021811503D
libRbt.so/2013.1/901 2013/11/27
 10 11  0  0  0  0  0  0  0  0999 V2000
   18.9341   -4.7637    2.5106 N   0  0  0  0  0  0  0  0  0  0  0  0
   17.8734   -5.2837    3.0997 C   0  0  0  0  0  0  0  0  0  0  0  0
   16.8663   -4.4334    3.5685 N   0  0  0  0  0  0  0  0  0  0  0  0
   16.9945   -3.1065    3.4300 C   0  0  0  0  0  0  0  0  0  0  0  0
   18.0692   -2.5878    2.8406 C   0  0  0  0  0  0  0  0  0  0  0  0
   19.0327   -3.3754    2.3687 C   0  0  0  0  0  0  0  0  0  0  0  0
   20.0118   -2.8958    1.7995 O   0  0  0  0  0  0  0  0  0  0  0  0
   17.9693   -1.2631    2.9074 N   0  0  0  0  0  0  0  0  0  0  0  0
   16.8346   -0.9615    3.5309 C   0  0  0  0  0  0  0  0  0  0  0  0
   16.2292   -2.1029    3.8464 N   0  0  0  0  0  0  0  0  0  0  0  0
  1  2  1  0  0  0  0
  1  6  1  0  0  0  0
  2  3  2  0  0  0  0
  3  4  1  0  0  0  0
  4  5  2  0  0  0  0
  4 10  1  0  0  0  0
  5  6  1  0  0  0  0
  5  8  1  0  0  0  0
  6  7  2  0  0  0  0
  8  9  1  0  0  0  0
  9 10  2  0  0  0  0
M  END
>  <CHROM.1>
17.92277258,-3.07573202,2.96744881,0.82143894,-0.49818938,3.10821735

>  <Name>
ligand

>  <RI>
0

>  <Rbt.Current_Directory>
/home/itssahil/PROJECTS/Mol_Feturizer/New_Systems/rnas/4NYD

>  <Rbt.Executable>
rbdock ($Id: //depot/dev/client3/rdock/2013.1/src/exe/rbdock.cxx#4 $)

>  <Rbt.Library>
libRbt.so (2013.1, Build901 2013/11/27)

>  <Rbt.Parameter_File>
/export/apps/rDock/src/rDock_2013.1_src/data/scripts/dock_solv.prm

>  <Rbt.Receptor>
prm/pocket_docking_3.prm

>  <SCORE>
-23.7202

>  <SCORE.INTER>
-23.7202

>  <SCORE.INTER.CONST>
1

>  <SCORE.INTER.POLAR>
0

>  <SCORE.INTER.ROT>
0

>  <SCORE.INTER.SOLV>
3.33008

>  <SCORE.INTER.VDW>
-20.5235

>  <SCORE.INTER.norm>
-2.37202

>  <SCORE.INTRA>
0

>  <SCORE.INTRA.DIHEDRAL>
0

>  <SCORE.INTRA.DIHEDRAL.0>
0

>  <SCORE.INTRA.POLAR>
0

>  <SCORE.INTRA.POLAR.0>
0

>  <SCORE.INTRA.REPUL>
0

>  <SCORE.INTRA.REPUL.0>
0

>  <SCORE.INTRA.SOLV>
0

>  <SCORE.INTRA.SOLV.lig_0>
-4.1818

>  <SCORE.INTRA.VDW>
0

>  <SCORE.INTRA.VDW.0>
0

>  <SCORE.INTRA.norm>
0

>  <SCORE.RESTR>
0

>  <SCORE.RESTR.CAVITY>
0

>  <SCORE.RESTR.norm>
0

>  <SCORE.SYSTEM>
0

>  <SCORE.SYSTEM.CONST>
0

>  <SCORE.SYSTEM.DIHEDRAL>
0

>  <SCORE.SYSTEM.SOLV>
0

>  <SCORE.SYSTEM.norm>
0

>  <SCORE.heavy>
10

>  <SCORE.norm>
-2.37202

>  <RMSD>
1.188

$$$$
ligand
 OpenBabel11021811503D
libRbt.so/2013.1/901 2013/11/27
 10 11  0  0  0  0  0  0  0  0999 V2000
   18.9908   -4.7429    2.5088 N   0  0  0  0  0  0  0  0  0  0  0  0
   17.9636   -5.3150    3.1086 C   0  0  0  0  0  0  0  0  0  0  0  0
   16.9274   -4.5147    3.6013 N   0  0  0  0  0  0  0  0  0  0  0  0
   16.9944   -3.1823    3.4742 C   0  0  0  0  0  0  0  0  0  0  0  0
   18.0357   -2.6108    2.8737 C   0  0  0  0  0  0  0  0  0  0  0  0
   19.0257   -3.3503    2.3793 C   0  0  0  0  0  0  0  0  0  0  0  0
   19.9735   -2.8223    1.8001 O   0  0  0  0  0  0  0  0  0  0  0  0
   17.8783   -1.2925    2.9554 N   0  0  0  0  0  0  0  0  0  0  0  0
   16.7413   -1.0475    3.5990 C   0  0  0  0  0  0  0  0  0  0  0  0
   16.1920   -2.2176    3.9122 N   0  0  0  0  0  0  0  0  0  0  0  0
  1  2  1  0  0  0  0
  1  6  1  0  0  0  0
  2  3  2  0  0  0  0
  3  4  1  0  0  0  0
  4  5  2  0  0  0  0
  4 10  1  0  0  0  0
  5  6  1  0  0  0  0
  5  8  1  0  0  0  0
  6  7  2  0  0  0  0
  8  9  1  0  0  0  0
  9 10  2  0  0  0  0
M  END
>  <CHROM.1>
17.91305630,-3.10589514,2.99787639,0.77003340,-0.51182228,3.09305998

>  <Name>
ligand

>  <RI>
0

>  <Rbt.Current_Directory>
/home/itssahil/PROJECTS/Mol_Feturizer/New_Systems/rnas/4NYD

>  <Rbt.Executable>
rbdock ($Id: //depot/dev/client3/rdock/2013.1/src/exe/rbdock.cxx#4 $)

>  <Rbt.Library>
libRbt.so (2013.1, Build901 2013/11/27)

>  <Rbt.Parameter_File>
/export/apps/rDock/src/rDock_2013.1_src/data/scripts/dock_solv.prm

>  <Rbt.Receptor>
prm/pocket_docking_8.prm

>  <SCORE>
-23.7642

>  <SCORE.INTER>
-23.7642

>  <SCORE.INTER.CONST>
1

>  <SCORE.INTER.POLAR>
0

>  <SCORE.INTER.ROT>
0

>  <SCORE.INTER.SOLV>
3.352

>  <SCORE.INTER.VDW>
-20.5601

>  <SCORE.INTER.norm>
-2.37642

>  <SCORE.INTRA>
0

>  <SCORE.INTRA.DIHEDRAL>
0

>  <SCORE.INTRA.DIHEDRAL.0>
0

>  <SCORE.INTRA.POLAR>
0

>  <SCORE.INTRA.POLAR.0>
0

>  <SCORE.INTRA.REPUL>
0

>  <SCORE.INTRA.REPUL.0>
0

>  <SCORE.INTRA.SOLV>
0

>  <SCORE.INTRA.SOLV.lig_0>
-4.1818

>  <SCORE.INTRA.VDW>
0

>  <SCORE.INTRA.VDW.0>
0

>  <SCORE.INTRA.norm>
0

>  <SCORE.RESTR>
0

>  <SCORE.RESTR.CAVITY>
0

>  <SCORE.RESTR.norm>
0

>  <SCORE.SYSTEM>
0

>  <SCORE.SYSTEM.CONST>
0

>  <SCORE.SYSTEM.DIHEDRAL>
0

>  <SCORE.SYSTEM.SOLV>
0

>  <SCORE.SYSTEM.norm>
0

>  <SCORE.heavy>
10

>  <SCORE.norm>
-2.37642

>  <RMSD>
1.188

$$$$
ligand
 OpenBabel11021811503D
libRbt.so/2013.1/901 2013/11/27
 10 11  0  0  0  0  0  0  0  0999 V2000
   18.9644   -4.7519    2.5476 N   0  0  0  0  0  0  0  0  0  0  0  0
   17.9023   -5.2868    3.1205 C   0  0  0  0  0  0  0  0  0  0  0  0
   16.8722   -4.4515    3.5656 N   0  0  0  0  0  0  0  0  0  0  0  0
   16.9797   -3.1234    3.4210 C   0  0  0  0  0  0  0  0  0  0  0  0
   18.0558   -2.5896    2.8480 C   0  0  0  0  0  0  0  0  0  0  0  0
   19.0414   -3.3629    2.3987 C   0  0  0  0  0  0  0  0  0  0  0  0
   20.0223   -2.8697    1.8443 O   0  0  0  0  0  0  0  0  0  0  0  0
   17.9317   -1.2664    2.9046 N   0  0  0  0  0  0  0  0  0  0  0  0
   16.7808   -0.9810    3.5054 C   0  0  0  0  0  0  0  0  0  0  0  0
   16.1896   -2.1309    3.8171 N   0  0  0  0  0  0  0  0  0  0  0  0
  1  2  1  0  0  0  0
  1  6  1  0  0  0  0
  2  3  2  0  0  0  0
  3  4  1  0  0  0  0
  4  5  2  0  0  0  0
  4 10  1  0  0  0  0
  5  6  1  0  0  0  0
  5  8  1  0  0  0  0
  6  7  2  0  0  0  0
  8  9  1  0  0  0  0
  9 10  2  0  0  0  0
M  END
>  <CHROM.1>
17.91565681,-3.07916308,2.97522832,0.80250979,-0.47926701,3.09314383

>  <Name>
ligand

>  <RI>
0

>  <Rbt.Current_Directory>
/home/itssahil/PROJECTS/Mol_Feturizer/New_Systems/rnas/4NYD

>  <Rbt.Executable>
rbdock ($Id: //depot/dev/client3/rdock/2013.1/src/exe/rbdock.cxx#4 $)

>  <Rbt.Library>
libRbt.so (2013.1, Build901 2013/11/27)

>  <Rbt.Parameter_File>
/export/apps/rDock/src/rDock_2013.1_src/data/scripts/dock_solv.prm

>  <Rbt.Receptor>
prm/pocket_docking_8.prm

>  <SCORE>
-23.7118

>  <SCORE.INTER>
-23.7118

>  <SCORE.INTER.CONST>
1

>  <SCORE.INTER.POLAR>
0

>  <SCORE.INTER.ROT>
0

>  <SCORE.INTER.SOLV>
3.30832

>  <SCORE.INTER.VDW>
-20.5106

>  <SCORE.INTER.norm>
-2.37118

>  <SCORE.INTRA>
0

>  <SCORE.INTRA.DIHEDRAL>
0

>  <SCORE.INTRA.DIHEDRAL.0>
0

>  <SCORE.INTRA.POLAR>
0

>  <SCORE.INTRA.POLAR.0>
0

>  <SCORE.INTRA.REPUL>
0

>  <SCORE.INTRA.REPUL.0>
0

>  <SCORE.INTRA.SOLV>
0

>  <SCORE.INTRA.SOLV.lig_0>
-4.1818

>  <SCORE.INTRA.VDW>
0

>  <SCORE.INTRA.VDW.0>
0

>  <SCORE.INTRA.norm>
0

>  <SCORE.RESTR>
0

>  <SCORE.RESTR.CAVITY>
0

>  <SCORE.RESTR.norm>
0

>  <SCORE.SYSTEM>
0

>  <SCORE.SYSTEM.CONST>
0

>  <SCORE.SYSTEM.DIHEDRAL>
0

>  <SCORE.SYSTEM.SOLV>
0

>  <SCORE.SYSTEM.norm>
0

>  <SCORE.heavy>
10

>  <SCORE.norm>
-2.37118

>  <RMSD>
1.188

$$$$
ligand
 OpenBabel11021811503D
libRbt.so/2013.1/901 2013/11/27
 10 11  0  0  0  0  0  0  0  0999 V2000
   18.9886   -4.7420    2.5038 N   0  0  0  0  0  0  0  0  0  0  0  0
   17.9639   -5.3145    3.1075 C   0  0  0  0  0  0  0  0  0  0  0  0
   16.9282   -4.5148    3.6024 N   0  0  0  0  0  0  0  0  0  0  0  0
   16.9933   -3.1824    3.4733 C   0  0  0  0  0  0  0  0  0  0  0  0
   18.0321   -2.6106    2.8689 C   0  0  0  0  0  0  0  0  0  0  0  0
   19.0214   -3.3495    2.3724 C   0  0  0  0  0  0  0  0  0  0  0  0
   19.9669   -2.8213    1.7895 O   0  0  0  0  0  0  0  0  0  0  0  0
   17.8734   -1.2923    2.9493 N   0  0  0  0  0  0  0  0  0  0  0  0
   16.7381   -1.0478    3.5961 C   0  0  0  0  0  0  0  0  0  0  0  0
   16.1912   -2.2181    3.9126 N   0  0  0  0  0  0  0  0  0  0  0  0
  1  2  1  0  0  0  0
  1  6  1  0  0  0  0
  2  3  2  0  0  0  0
  3  4  1  0  0  0  0
  4  5  2  0  0  0  0
  4 10  1  0  0  0  0
  5  6  1  0  0  0  0
  5  8  1  0  0  0  0
  6  7  2  0  0  0  0
  8  9  1  0  0  0  0
  9 10  2  0  0  0  0
M  END
>  <CHROM.1>
17.91042849,-3.10560725,2.99404218,0.76853128,-0.51486048,3.09099681

>  <Name>
ligand

>  <RI>
0

>  <Rbt.Current_Directory>
/home/itssahil/PROJECTS/Mol_Feturizer/New_Systems/rnas/4NYD

>  <Rbt.Executable>
rbdock ($Id: //depot/dev/client3/rdock/2013.1/src/exe/rbdock.cxx#4 $)

>  <Rbt.Library>
libRbt.so (2013.1, Build901 2013/11/27)

>  <Rbt.Parameter_File>
/export/apps/rDock/src/rDock_2013.1_src/data/scripts/dock_solv.prm

>  <Rbt.Receptor>
prm/blind_docking_100.prm

>  <SCORE>
-23.7666

>  <SCORE.INTER>
-23.7666

>  <SCORE.INTER.CONST>
1

>  <SCORE.INTER.POLAR>
0

>  <SCORE.INTER.ROT>
0

>  <SCORE.INTER.SOLV>
3.34892

>  <SCORE.INTER.VDW>
-20.5607

>  <SCORE.INTER.norm>
-2.37666

>  <SCORE.INTRA>
0

>  <SCORE.INTRA.DIHEDRAL>
0

>  <SCORE.INTRA.DIHEDRAL.0>
0

>  <SCORE.INTRA.POLAR>
0

>  <SCORE.INTRA.POLAR.0>
0

>  <SCORE.INTRA.REPUL>
0

>  <SCORE.INTRA.REPUL.0>
0

>  <SCORE.INTRA.SOLV>
0

>  <SCORE.INTRA.SOLV.lig_0>
-4.1818

>  <SCORE.INTRA.VDW>
0

>  <SCORE.INTRA.VDW.0>
0

>  <SCORE.INTRA.norm>
0

>  <SCORE.RESTR>
0

>  <SCORE.RESTR.CAVITY>
0

>  <SCORE.RESTR.norm>
0

>  <SCORE.SYSTEM>
0

>  <SCORE.SYSTEM.CONST>
0

>  <SCORE.SYSTEM.DIHEDRAL>
0

>  <SCORE.SYSTEM.SOLV>
0

>  <SCORE.SYSTEM.norm>
0

>  <SCORE.heavy>
10

>  <SCORE.norm>
-2.37666

>  <RMSD>
1.189

$$$$
ligand
 OpenBabel11021811503D
libRbt.so/2013.1/901 2013/11/27
 10 11  0  0  0  0  0  0  0  0999 V2000
   18.9854   -4.7450    2.4960 N   0  0  0  0  0  0  0  0  0  0  0  0
   17.9627   -5.3167    3.1038 C   0  0  0  0  0  0  0  0  0  0  0  0
   16.9295   -4.5163    3.6025 N   0  0  0  0  0  0  0  0  0  0  0  0
   16.9949   -3.1840    3.4731 C   0  0  0  0  0  0  0  0  0  0  0  0
   18.0317   -2.6129    2.8646 C   0  0  0  0  0  0  0  0  0  0  0  0
   19.0186   -3.3525    2.3643 C   0  0  0  0  0  0  0  0  0  0  0  0
   19.9621   -2.8248    1.7777 O   0  0  0  0  0  0  0  0  0  0  0  0
   17.8741   -1.2945    2.9454 N   0  0  0  0  0  0  0  0  0  0  0  0
   16.7415   -1.0492    3.5967 C   0  0  0  0  0  0  0  0  0  0  0  0
   16.1951   -2.2192    3.9154 N   0  0  0  0  0  0  0  0  0  0  0  0
  1  2  1  0  0  0  0
  1  6  1  0  0  0  0
  2  3  2  0  0  0  0
  3  4  1  0  0  0  0
  4  5  2  0  0  0  0
  4 10  1  0  0  0  0
  5  6  1  0  0  0  0
  5  8  1  0  0  0  0
  6  7  2  0  0  0  0
  8  9  1  0  0  0  0
  9 10  2  0  0  0  0
M  END
>  <CHROM.1>
17.91017217,-3.10783083,2.99025901,0.76900122,-0.51877189,3.09112817

>  <Name>
ligand

>  <RI>
0

>  <Rbt.Current_Directory>
/home/itssahil/PROJECTS/Mol_Feturizer/New_Systems/rnas/4NYD

>  <Rbt.Executable>
rbdock ($Id: //depot/dev/client3/rdock/2013.1/src/exe/rbdock.cxx#4 $)

>  <Rbt.Library>
libRbt.so (2013.1, Build901 2013/11/27)

>  <Rbt.Parameter_File>
/export/apps/rDock/src/rDock_2013.1_src/data/scripts/dock_solv.prm

>  <Rbt.Receptor>
prm/blind_docking_80.prm

>  <SCORE>
-23.7673

>  <SCORE.INTER>
-23.7673

>  <SCORE.INTER.CONST>
1

>  <SCORE.INTER.POLAR>
0

>  <SCORE.INTER.ROT>
0

>  <SCORE.INTER.SOLV>
3.3482

>  <SCORE.INTER.VDW>
-20.5609

>  <SCORE.INTER.norm>
-2.37673

>  <SCORE.INTRA>
0

>  <SCORE.INTRA.DIHEDRAL>
0

>  <SCORE.INTRA.DIHEDRAL.0>
0

>  <SCORE.INTRA.POLAR>
0

>  <SCORE.INTRA.POLAR.0>
0

>  <SCORE.INTRA.REPUL>
0

>  <SCORE.INTRA.REPUL.0>
0

>  <SCORE.INTRA.SOLV>
0

>  <SCORE.INTRA.SOLV.lig_0>
-4.1818

>  <SCORE.INTRA.VDW>
0

>  <SCORE.INTRA.VDW.0>
0

>  <SCORE.INTRA.norm>
0

>  <SCORE.RESTR>
0

>  <SCORE.RESTR.CAVITY>
0

>  <SCORE.RESTR.norm>
0

>  <SCORE.SYSTEM>
0

>  <SCORE.SYSTEM.CONST>
0

>  <SCORE.SYSTEM.DIHEDRAL>
0

>  <SCORE.SYSTEM.SOLV>
0

>  <SCORE.SYSTEM.norm>
0

>  <SCORE.heavy>
10

>  <SCORE.norm>
-2.37673

>  <RMSD>
1.189

$$$$
ligand
 OpenBabel11021811503D
libRbt.so/2013.1/901 2013/11/27
 10 11  0  0  0  0  0  0  0  0999 V2000
   18.9852   -4.7430    2.4958 N   0  0  0  0  0  0  0  0  0  0  0  0
   17.9628   -5.3149    3.1040 C   0  0  0  0  0  0  0  0  0  0  0  0
   16.9293   -4.5148    3.6024 N   0  0  0  0  0  0  0  0  0  0  0  0
   16.9940   -3.1825    3.4721 C   0  0  0  0  0  0  0  0  0  0  0  0
   18.0304   -2.6112    2.8632 C   0  0  0  0  0  0  0  0  0  0  0  0
   19.0177   -3.3506    2.3633 C   0  0  0  0  0  0  0  0  0  0  0  0
   19.9608   -2.8228    1.7763 O   0  0  0  0  0  0  0  0  0  0  0  0
   17.8722   -1.2929    2.9433 N   0  0  0  0  0  0  0  0  0  0  0  0
   16.7395   -1.0477    3.5945 C   0  0  0  0  0  0  0  0  0  0  0  0
   16.1937   -2.2178    3.9139 N   0  0  0  0  0  0  0  0  0  0  0  0
  1  2  1  0  0  0  0
  1  6  1  0  0  0  0
  2  3  2  0  0  0  0
  3  4  1  0  0  0  0
  4  5  2  0  0  0  0
  4 10  1  0  0  0  0
  5  6  1  0  0  0  0
  5  8  1  0  0  0  0
  6  7  2  0  0  0  0
  8  9  1  0  0  0  0
  9 10  2  0  0  0  0
M  END
>  <CHROM.1>
17.90917359,-3.10613063,2.98918562,0.76842095,-0.51884000,3.09024818

>  <Name>
ligand

>  <RI>
0

>  <Rbt.Current_Directory>
/home/itssahil/PROJECTS/Mol_Feturizer/New_Systems/rnas/4NYD

>  <Rbt.Executable>
rbdock ($Id: //depot/dev/client3/rdock/2013.1/src/exe/rbdock.cxx#4 $)

>  <Rbt.Library>
libRbt.so (2013.1, Build901 2013/11/27)

>  <Rbt.Parameter_File>
/export/apps/rDock/src/rDock_2013.1_src/data/scripts/dock_solv.prm

>  <Rbt.Receptor>
prm/pocket_docking_4.prm

>  <SCORE>
-23.7685

>  <SCORE.INTER>
-23.7685

>  <SCORE.INTER.CONST>
1

>  <SCORE.INTER.POLAR>
0

>  <SCORE.INTER.ROT>
0

>  <SCORE.INTER.SOLV>
3.3465

>  <SCORE.INTER.VDW>
-20.5612

>  <SCORE.INTER.norm>
-2.37685

>  <SCORE.INTRA>
0

>  <SCORE.INTRA.DIHEDRAL>
0

>  <SCORE.INTRA.DIHEDRAL.0>
0

>  <SCORE.INTRA.POLAR>
0

>  <SCORE.INTRA.POLAR.0>
0

>  <SCORE.INTRA.REPUL>
0

>  <SCORE.INTRA.REPUL.0>
0

>  <SCORE.INTRA.SOLV>
0

>  <SCORE.INTRA.SOLV.lig_0>
-4.1818

>  <SCORE.INTRA.VDW>
0

>  <SCORE.INTRA.VDW.0>
0

>  <SCORE.INTRA.norm>
0

>  <SCORE.RESTR>
0

>  <SCORE.RESTR.CAVITY>
0

>  <SCORE.RESTR.norm>
0

>  <SCORE.SYSTEM>
0

>  <SCORE.SYSTEM.CONST>
0

>  <SCORE.SYSTEM.DIHEDRAL>
0

>  <SCORE.SYSTEM.SOLV>
0

>  <SCORE.SYSTEM.norm>
0

>  <SCORE.heavy>
10

>  <SCORE.norm>
-2.37685

>  <RMSD>
1.189

$$$$
ligand
 OpenBabel11021811503D
libRbt.so/2013.1/901 2013/11/27
 10 11  0  0  0  0  0  0  0  0999 V2000
   18.9857   -4.7388    2.5025 N   0  0  0  0  0  0  0  0  0  0  0  0
   17.9558   -5.3111    3.0975 C   0  0  0  0  0  0  0  0  0  0  0  0
   16.9201   -4.5106    3.5909 N   0  0  0  0  0  0  0  0  0  0  0  0
   16.9902   -3.1778    3.4693 C   0  0  0  0  0  0  0  0  0  0  0  0
   18.0342   -2.6061    2.8738 C   0  0  0  0  0  0  0  0  0  0  0  0
   19.0238   -3.3457    2.3788 C   0  0  0  0  0  0  0  0  0  0  0  0
   19.9742   -2.8174    1.8040 O   0  0  0  0  0  0  0  0  0  0  0  0
   17.8793   -1.2879    2.9603 N   0  0  0  0  0  0  0  0  0  0  0  0
   16.7412   -1.0430    3.6022 C   0  0  0  0  0  0  0  0  0  0  0  0
   16.1888   -2.2132    3.9094 N   0  0  0  0  0  0  0  0  0  0  0  0
  1  2  1  0  0  0  0
  1  6  1  0  0  0  0
  2  3  2  0  0  0  0
  3  4  1  0  0  0  0
  4  5  2  0  0  0  0
  4 10  1  0  0  0  0
  5  6  1  0  0  0  0
  5  8  1  0  0  0  0
  6  7  2  0  0  0  0
  8  9  1  0  0  0  0
  9 10  2  0  0  0  0
M  END
>  <CHROM.1>
17.91016828,-3.10145440,2.99559425,0.77256355,-0.50948361,3.09833413

>  <Name>
ligand

>  <RI>
0

>  <Rbt.Current_Directory>
/home/itssahil/PROJECTS/Mol_Feturizer/New_Systems/rnas/4NYD

>  <Rbt.Executable>
rbdock ($Id: //depot/dev/client3/rdock/2013.1/src/exe/rbdock.cxx#4 $)

>  <Rbt.Library>
libRbt.so (2013.1, Build901 2013/11/27)

>  <Rbt.Parameter_File>
/export/apps/rDock/src/rDock_2013.1_src/data/scripts/dock_solv.prm

>  <Rbt.Receptor>
prm/pocket_docking_4.prm

>  <SCORE>
-23.7573

>  <SCORE.INTER>
-23.7573

>  <SCORE.INTER.CONST>
1

>  <SCORE.INTER.POLAR>
0

>  <SCORE.INTER.ROT>
0

>  <SCORE.INTER.SOLV>
3.35245

>  <SCORE.INTER.VDW>
-20.5557

>  <SCORE.INTER.norm>
-2.37573

>  <SCORE.INTRA>
0

>  <SCORE.INTRA.DIHEDRAL>
0

>  <SCORE.INTRA.DIHEDRAL.0>
0

>  <SCORE.INTRA.POLAR>
0

>  <SCORE.INTRA.POLAR.0>
0

>  <SCORE.INTRA.REPUL>
0

>  <SCORE.INTRA.REPUL.0>
0

>  <SCORE.INTRA.SOLV>
0

>  <SCORE.INTRA.SOLV.lig_0>
-4.1818

>  <SCORE.INTRA.VDW>
0

>  <SCORE.INTRA.VDW.0>
0

>  <SCORE.INTRA.norm>
0

>  <SCORE.RESTR>
0

>  <SCORE.RESTR.CAVITY>
0

>  <SCORE.RESTR.norm>
0

>  <SCORE.SYSTEM>
0

>  <SCORE.SYSTEM.CONST>
0

>  <SCORE.SYSTEM.DIHEDRAL>
0

>  <SCORE.SYSTEM.SOLV>
0

>  <SCORE.SYSTEM.norm>
0

>  <SCORE.heavy>
10

>  <SCORE.norm>
-2.37573

>  <RMSD>
1.189

$$$$
ligand
 OpenBabel11021811503D
libRbt.so/2013.1/901 2013/11/27
 10 11  0  0  0  0  0  0  0  0999 V2000
   18.9898   -4.7413    2.5041 N   0  0  0  0  0  0  0  0  0  0  0  0
   17.9656   -5.3148    3.1078 C   0  0  0  0  0  0  0  0  0  0  0  0
   16.9293   -4.5162    3.6028 N   0  0  0  0  0  0  0  0  0  0  0  0
   16.9932   -3.1837    3.4741 C   0  0  0  0  0  0  0  0  0  0  0  0
   18.0314   -2.6108    2.8697 C   0  0  0  0  0  0  0  0  0  0  0  0
   19.0213   -3.3488    2.3730 C   0  0  0  0  0  0  0  0  0  0  0  0
   19.9663   -2.8195    1.7902 O   0  0  0  0  0  0  0  0  0  0  0  0
   17.8715   -1.2927    2.9505 N   0  0  0  0  0  0  0  0  0  0  0  0
   16.7361   -1.0493    3.5974 C   0  0  0  0  0  0  0  0  0  0  0  0
   16.1902   -2.2203    3.9136 N   0  0  0  0  0  0  0  0  0  0  0  0
  1  2  1  0  0  0  0
  1  6  1  0  0  0  0
  2  3  2  0  0  0  0
  3  4  1  0  0  0  0
  4  5  2  0  0  0  0
  4 10  1  0  0  0  0
  5  6  1  0  0  0  0
  5  8  1  0  0  0  0
  6  7  2  0  0  0  0
  8  9  1  0  0  0  0
  9 10  2  0  0  0  0
M  END
>  <CHROM.1>
17.91016637,-3.10599257,2.99480292,0.76748740,-0.51486502,3.09072314

>  <Name>
ligand

>  <RI>
0

>  <Rbt.Current_Directory>
/home/itssahil/PROJECTS/Mol_Feturizer/New_Systems/rnas/4NYD

>  <Rbt.Executable>
rbdock ($Id: //depot/dev/client3/rdock/2013.1/src/exe/rbdock.cxx#4 $)

>  <Rbt.Library>
libRbt.so (2013.1, Build901 2013/11/27)

>  <Rbt.Parameter_File>
/export/apps/rDock/src/rDock_2013.1_src/data/scripts/dock_solv.prm

>  <Rbt.Receptor>
prm/pocket_docking_7.prm

>  <SCORE>
-23.7659

>  <SCORE.INTER>
-23.7659

>  <SCORE.INTER.CONST>
1

>  <SCORE.INTER.POLAR>
0

>  <SCORE.INTER.ROT>
0

>  <SCORE.INTER.SOLV>
3.34938

>  <SCORE.INTER.VDW>
-20.5604

>  <SCORE.INTER.norm>
-2.37659

>  <SCORE.INTRA>
0

>  <SCORE.INTRA.DIHEDRAL>
0

>  <SCORE.INTRA.DIHEDRAL.0>
0

>  <SCORE.INTRA.POLAR>
0

>  <SCORE.INTRA.POLAR.0>
0

>  <SCORE.INTRA.REPUL>
0

>  <SCORE.INTRA.REPUL.0>
0

>  <SCORE.INTRA.SOLV>
0

>  <SCORE.INTRA.SOLV.lig_0>
-4.1818

>  <SCORE.INTRA.VDW>
0

>  <SCORE.INTRA.VDW.0>
0

>  <SCORE.INTRA.norm>
0

>  <SCORE.RESTR>
0

>  <SCORE.RESTR.CAVITY>
0

>  <SCORE.RESTR.norm>
0

>  <SCORE.SYSTEM>
0

>  <SCORE.SYSTEM.CONST>
0

>  <SCORE.SYSTEM.DIHEDRAL>
0

>  <SCORE.SYSTEM.SOLV>
0

>  <SCORE.SYSTEM.norm>
0

>  <SCORE.heavy>
10

>  <SCORE.norm>
-2.37659

>  <RMSD>
1.189

$$$$
ligand
 OpenBabel11021811503D
libRbt.so/2013.1/901 2013/11/27
 10 11  0  0  0  0  0  0  0  0999 V2000
   18.9916   -4.7323    2.5098 N   0  0  0  0  0  0  0  0  0  0  0  0
   17.9641   -5.3075    3.1062 C   0  0  0  0  0  0  0  0  0  0  0  0
   16.9253   -4.5102    3.5981 N   0  0  0  0  0  0  0  0  0  0  0  0
   16.9901   -3.1774    3.4738 C   0  0  0  0  0  0  0  0  0  0  0  0
   18.0317   -2.6027    2.8769 C   0  0  0  0  0  0  0  0  0  0  0  0
   19.0241   -3.3393    2.3832 C   0  0  0  0  0  0  0  0  0  0  0  0
   19.9723   -2.8084    1.8072 O   0  0  0  0  0  0  0  0  0  0  0  0
   17.8715   -1.2849    2.9608 N   0  0  0  0  0  0  0  0  0  0  0  0
   16.7327   -1.0433    3.6024 C   0  0  0  0  0  0  0  0  0  0  0  0
   16.1849   -2.2151    3.9121 N   0  0  0  0  0  0  0  0  0  0  0  0
  1  2  1  0  0  0  0
  1  6  1  0  0  0  0
  2  3  2  0  0  0  0
  3  4  1  0  0  0  0
  4  5  2  0  0  0  0
  4 10  1  0  0  0  0
  5  6  1  0  0  0  0
  5  8  1  0  0  0  0
  6  7  2  0  0  0  0
  8  9  1  0  0  0  0
  9 10  2  0  0  0  0
M  END
>  <CHROM.1>
17.90966808,-3.09829766,2.99976420,0.76798705,-0.50949774,3.09407617

>  <Name>
ligand

>  <RI>
0

>  <Rbt.Current_Directory>
/home/itssahil/PROJECTS/Mol_Feturizer/New_Systems/rnas/4NYD

>  <Rbt.Executable>
rbdock ($Id: //depot/dev/client3/rdock/2013.1/src/exe/rbdock.cxx#4 $)

>  <Rbt.Library>
libRbt.so (2013.1, Build901 2013/11/27)

>  <Rbt.Parameter_File>
/export/apps/rDock/src/rDock_2013.1_src/data/scripts/dock_solv.prm

>  <Rbt.Receptor>
prm/pocket_docking_6.prm

>  <SCORE>
-23.7632

>  <SCORE.INTER>
-23.7632

>  <SCORE.INTER.CONST>
1

>  <SCORE.INTER.POLAR>
0

>  <SCORE.INTER.ROT>
0

>  <SCORE.INTER.SOLV>
3.35296

>  <SCORE.INTER.VDW>
-20.5598

>  <SCORE.INTER.norm>
-2.37632

>  <SCORE.INTRA>
0

>  <SCORE.INTRA.DIHEDRAL>
0

>  <SCORE.INTRA.DIHEDRAL.0>
0

>  <SCORE.INTRA.POLAR>
0

>  <SCORE.INTRA.POLAR.0>
0

>  <SCORE.INTRA.REPUL>
0

>  <SCORE.INTRA.REPUL.0>
0

>  <SCORE.INTRA.SOLV>
0

>  <SCORE.INTRA.SOLV.lig_0>
-4.1818

>  <SCORE.INTRA.VDW>
0

>  <SCORE.INTRA.VDW.0>
0

>  <SCORE.INTRA.norm>
0

>  <SCORE.RESTR>
0

>  <SCORE.RESTR.CAVITY>
0

>  <SCORE.RESTR.norm>
0

>  <SCORE.SYSTEM>
0

>  <SCORE.SYSTEM.CONST>
0

>  <SCORE.SYSTEM.DIHEDRAL>
0

>  <SCORE.SYSTEM.SOLV>
0

>  <SCORE.SYSTEM.norm>
0

>  <SCORE.heavy>
10

>  <SCORE.norm>
-2.37632

>  <RMSD>
1.190

$$$$
ligand
 OpenBabel11021811503D
libRbt.so/2013.1/901 2013/11/27
 10 11  0  0  0  0  0  0  0  0999 V2000
   18.9950   -4.7435    2.5260 N   0  0  0  0  0  0  0  0  0  0  0  0
   17.9712   -5.3123    3.1347 C   0  0  0  0  0  0  0  0  0  0  0  0
   16.9327   -4.5103    3.6196 N   0  0  0  0  0  0  0  0  0  0  0  0
   16.9942   -3.1792    3.4763 C   0  0  0  0  0  0  0  0  0  0  0  0
   18.0321   -2.6109    2.8670 C   0  0  0  0  0  0  0  0  0  0  0  0
   19.0241   -3.3524    2.3797 C   0  0  0  0  0  0  0  0  0  0  0  0
   19.9688   -2.8277    1.7924 O   0  0  0  0  0  0  0  0  0  0  0  0
   17.8695   -1.2924    2.9331 N   0  0  0  0  0  0  0  0  0  0  0  0
   16.7328   -1.0441    3.5758 C   0  0  0  0  0  0  0  0  0  0  0  0
   16.1888   -2.2125    3.9042 N   0  0  0  0  0  0  0  0  0  0  0  0
  1  2  1  0  0  0  0
  1  6  1  0  0  0  0
  2  3  2  0  0  0  0
  3  4  1  0  0  0  0
  4  5  2  0  0  0  0
  4 10  1  0  0  0  0
  5  6  1  0  0  0  0
  5  8  1  0  0  0  0
  6  7  2  0  0  0  0
  8  9  1  0  0  0  0
  9 10  2  0  0  0  0
M  END
>  <CHROM.1>
17.91162710,-3.10493457,2.99735926,0.76535568,-0.51346897,3.07869128

>  <Name>
ligand

>  <RI>
0

>  <Rbt.Current_Directory>
/home/itssahil/PROJECTS/Mol_Feturizer/New_Systems/rnas/4NYD

>  <Rbt.Executable>
rbdock ($Id: //depot/dev/client3/rdock/2013.1/src/exe/rbdock.cxx#4 $)

>  <Rbt.Library>
libRbt.so (2013.1, Build901 2013/11/27)

>  <Rbt.Parameter_File>
/export/apps/rDock/src/rDock_2013.1_src/data/scripts/dock_solv.prm

>  <Rbt.Receptor>
prm/blind_docking_80.prm

>  <SCORE>
-23.7028

>  <SCORE.INTER>
-23.7028

>  <SCORE.INTER.CONST>
1

>  <SCORE.INTER.POLAR>
0

>  <SCORE.INTER.ROT>
0

>  <SCORE.INTER.SOLV>
3.34123

>  <SCORE.INTER.VDW>
-20.5156

>  <SCORE.INTER.norm>
-2.37028

>  <SCORE.INTRA>
0

>  <SCORE.INTRA.DIHEDRAL>
0

>  <SCORE.INTRA.DIHEDRAL.0>
0

>  <SCORE.INTRA.POLAR>
0

>  <SCORE.INTRA.POLAR.0>
0

>  <SCORE.INTRA.REPUL>
0

>  <SCORE.INTRA.REPUL.0>
0

>  <SCORE.INTRA.SOLV>
0

>  <SCORE.INTRA.SOLV.lig_0>
-4.1818

>  <SCORE.INTRA.VDW>
0

>  <SCORE.INTRA.VDW.0>
0

>  <SCORE.INTRA.norm>
0

>  <SCORE.RESTR>
0

>  <SCORE.RESTR.CAVITY>
0

>  <SCORE.RESTR.norm>
0

>  <SCORE.SYSTEM>
0

>  <SCORE.SYSTEM.CONST>
0

>  <SCORE.SYSTEM.DIHEDRAL>
0

>  <SCORE.SYSTEM.SOLV>
0

>  <SCORE.SYSTEM.norm>
0

>  <SCORE.heavy>
10

>  <SCORE.norm>
-2.37028

>  <RMSD>
1.191

$$$$
ligand
 OpenBabel11021811503D
libRbt.so/2013.1/901 2013/11/27
 10 11  0  0  0  0  0  0  0  0999 V2000
   18.9974   -4.7405    2.5172 N   0  0  0  0  0  0  0  0  0  0  0  0
   17.9713   -5.3183    3.1135 C   0  0  0  0  0  0  0  0  0  0  0  0
   16.9286   -4.5239    3.6021 N   0  0  0  0  0  0  0  0  0  0  0  0
   16.9884   -3.1911    3.4747 C   0  0  0  0  0  0  0  0  0  0  0  0
   18.0286   -2.6139    2.8779 C   0  0  0  0  0  0  0  0  0  0  0  0
   19.0246   -3.3478    2.3874 C   0  0  0  0  0  0  0  0  0  0  0  0
   19.9715   -2.8145    1.8114 O   0  0  0  0  0  0  0  0  0  0  0  0
   17.8633   -1.2965    2.9585 N   0  0  0  0  0  0  0  0  0  0  0  0
   16.7225   -1.0578    3.5979 C   0  0  0  0  0  0  0  0  0  0  0  0
   16.1789   -2.2310    3.9095 N   0  0  0  0  0  0  0  0  0  0  0  0
  1  2  1  0  0  0  0
  1  6  1  0  0  0  0
  2  3  2  0  0  0  0
  3  4  1  0  0  0  0
  4  5  2  0  0  0  0
  4 10  1  0  0  0  0
  5  6  1  0  0  0  0
  5  8  1  0  0  0  0
  6  7  2  0  0  0  0
  8  9  1  0  0  0  0
  9 10  2  0  0  0  0
M  END
>  <CHROM.1>
17.90836123,-3.10962082,3.00176675,0.76363227,-0.50788911,3.08960189

>  <Name>
ligand

>  <RI>
0

>  <Rbt.Current_Directory>
/home/itssahil/PROJECTS/Mol_Feturizer/New_Systems/rnas/4NYD

>  <Rbt.Executable>
rbdock ($Id: //depot/dev/client3/rdock/2013.1/src/exe/rbdock.cxx#4 $)

>  <Rbt.Library>
libRbt.so (2013.1, Build901 2013/11/27)

>  <Rbt.Parameter_File>
/export/apps/rDock/src/rDock_2013.1_src/data/scripts/dock_solv.prm

>  <Rbt.Receptor>
prm/pocket_docking_3.prm

>  <SCORE>
-23.7524

>  <SCORE.INTER>
-23.7524

>  <SCORE.INTER.CONST>
1

>  <SCORE.INTER.POLAR>
0

>  <SCORE.INTER.ROT>
0

>  <SCORE.INTER.SOLV>
3.34982

>  <SCORE.INTER.VDW>
-20.5515

>  <SCORE.INTER.norm>
-2.37524

>  <SCORE.INTRA>
0

>  <SCORE.INTRA.DIHEDRAL>
0

>  <SCORE.INTRA.DIHEDRAL.0>
0

>  <SCORE.INTRA.POLAR>
0

>  <SCORE.INTRA.POLAR.0>
0

>  <SCORE.INTRA.REPUL>
0

>  <SCORE.INTRA.REPUL.0>
0

>  <SCORE.INTRA.SOLV>
0

>  <SCORE.INTRA.SOLV.lig_0>
-4.1818

>  <SCORE.INTRA.VDW>
0

>  <SCORE.INTRA.VDW.0>
0

>  <SCORE.INTRA.norm>
0

>  <SCORE.RESTR>
0

>  <SCORE.RESTR.CAVITY>
0

>  <SCORE.RESTR.norm>
0

>  <SCORE.SYSTEM>
0

>  <SCORE.SYSTEM.CONST>
0

>  <SCORE.SYSTEM.DIHEDRAL>
0

>  <SCORE.SYSTEM.SOLV>
0

>  <SCORE.SYSTEM.norm>
0

>  <SCORE.heavy>
10

>  <SCORE.norm>
-2.37524

>  <RMSD>
1.191

$$$$
ligand
 OpenBabel11021811503D
libRbt.so/2013.1/901 2013/11/27
 10 11  0  0  0  0  0  0  0  0999 V2000
   18.9859   -4.7886    2.5203 N   0  0  0  0  0  0  0  0  0  0  0  0
   17.9712   -5.3386    3.1607 C   0  0  0  0  0  0  0  0  0  0  0  0
   16.9418   -4.5217    3.6402 N   0  0  0  0  0  0  0  0  0  0  0  0
   17.0029   -3.1952    3.4597 C   0  0  0  0  0  0  0  0  0  0  0  0
   18.0316   -2.6457    2.8185 C   0  0  0  0  0  0  0  0  0  0  0  0
   19.0146   -3.4020    2.3356 C   0  0  0  0  0  0  0  0  0  0  0  0
   19.9504   -2.8954    1.7190 O   0  0  0  0  0  0  0  0  0  0  0  0
   17.8721   -1.3255    2.8511 N   0  0  0  0  0  0  0  0  0  0  0  0
   16.7463   -1.0576    3.5051 C   0  0  0  0  0  0  0  0  0  0  0  0
   16.2059   -2.2156    3.8740 N   0  0  0  0  0  0  0  0  0  0  0  0
  1  2  1  0  0  0  0
  1  6  1  0  0  0  0
  2  3  2  0  0  0  0
  3  4  1  0  0  0  0
  4  5  2  0  0  0  0
  4 10  1  0  0  0  0
  5  6  1  0  0  0  0
  5  8  1  0  0  0  0
  6  7  2  0  0  0  0
  8  9  1  0  0  0  0
  9 10  2  0  0  0  0
M  END
>  <CHROM.1>
17.91260808,-3.13573535,2.96416605,0.76586384,-0.52969332,3.05164971

>  <Name>
ligand

>  <RI>
0

>  <Rbt.Current_Directory>
/home/itssahil/PROJECTS/Mol_Feturizer/New_Systems/rnas/4NYD

>  <Rbt.Executable>
rbdock ($Id: //depot/dev/client3/rdock/2013.1/src/exe/rbdock.cxx#4 $)

>  <Rbt.Library>
libRbt.so (2013.1, Build901 2013/11/27)

>  <Rbt.Parameter_File>
/export/apps/rDock/src/rDock_2013.1_src/data/scripts/dock_solv.prm

>  <Rbt.Receptor>
prm/pocket_docking_5.prm

>  <SCORE>
-23.6876

>  <SCORE.INTER>
-23.6876

>  <SCORE.INTER.CONST>
1

>  <SCORE.INTER.POLAR>
0

>  <SCORE.INTER.ROT>
0

>  <SCORE.INTER.SOLV>
3.29537

>  <SCORE.INTER.VDW>
-20.4902

>  <SCORE.INTER.norm>
-2.36876

>  <SCORE.INTRA>
0

>  <SCORE.INTRA.DIHEDRAL>
0

>  <SCORE.INTRA.DIHEDRAL.0>
0

>  <SCORE.INTRA.POLAR>
0

>  <SCORE.INTRA.POLAR.0>
0

>  <SCORE.INTRA.REPUL>
0

>  <SCORE.INTRA.REPUL.0>
0

>  <SCORE.INTRA.SOLV>
0

>  <SCORE.INTRA.SOLV.lig_0>
-4.1818

>  <SCORE.INTRA.VDW>
0

>  <SCORE.INTRA.VDW.0>
0

>  <SCORE.INTRA.norm>
0

>  <SCORE.RESTR>
0

>  <SCORE.RESTR.CAVITY>
0

>  <SCORE.RESTR.norm>
0

>  <SCORE.SYSTEM>
0

>  <SCORE.SYSTEM.CONST>
0

>  <SCORE.SYSTEM.DIHEDRAL>
0

>  <SCORE.SYSTEM.SOLV>
0

>  <SCORE.SYSTEM.norm>
0

>  <SCORE.heavy>
10

>  <SCORE.norm>
-2.36876

>  <RMSD>
1.191

$$$$
ligand
 OpenBabel11021811503D
libRbt.so/2013.1/901 2013/11/27
 10 11  0  0  0  0  0  0  0  0999 V2000
   18.9872   -4.7493    2.5012 N   0  0  0  0  0  0  0  0  0  0  0  0
   17.9695   -5.3208    3.1177 C   0  0  0  0  0  0  0  0  0  0  0  0
   16.9360   -4.5208    3.6166 N   0  0  0  0  0  0  0  0  0  0  0  0
   16.9962   -3.1891    3.4784 C   0  0  0  0  0  0  0  0  0  0  0  0
   18.0279   -2.6182    2.8612 C   0  0  0  0  0  0  0  0  0  0  0  0
   19.0149   -3.3576    2.3606 C   0  0  0  0  0  0  0  0  0  0  0  0
   19.9537   -2.8304    1.7661 O   0  0  0  0  0  0  0  0  0  0  0  0
   17.8662   -1.3000    2.9345 N   0  0  0  0  0  0  0  0  0  0  0  0
   16.7360   -1.0544    3.5898 C   0  0  0  0  0  0  0  0  0  0  0  0
   16.1952   -2.2243    3.9186 N   0  0  0  0  0  0  0  0  0  0  0  0
  1  2  1  0  0  0  0
  1  6  1  0  0  0  0
  2  3  2  0  0  0  0
  3  4  1  0  0  0  0
  4  5  2  0  0  0  0
  4 10  1  0  0  0  0
  5  6  1  0  0  0  0
  5  8  1  0  0  0  0
  6  7  2  0  0  0  0
  8  9  1  0  0  0  0
  9 10  2  0  0  0  0
M  END
>  <CHROM.1>
17.90876482,-3.11282426,2.99056347,0.76471518,-0.52353650,3.08269703

>  <Name>
ligand

>  <RI>
0

>  <Rbt.Current_Directory>
/home/itssahil/PROJECTS/Mol_Feturizer/New_Systems/rnas/4NYD

>  <Rbt.Executable>
rbdock ($Id: //depot/dev/client3/rdock/2013.1/src/exe/rbdock.cxx#4 $)

>  <Rbt.Library>
libRbt.so (2013.1, Build901 2013/11/27)

>  <Rbt.Parameter_File>
/export/apps/rDock/src/rDock_2013.1_src/data/scripts/dock_solv.prm

>  <Rbt.Receptor>
prm/pocket_docking_5.prm

>  <SCORE>
-23.7011

>  <SCORE.INTER>
-23.7011

>  <SCORE.INTER.CONST>
1

>  <SCORE.INTER.POLAR>
0

>  <SCORE.INTER.ROT>
0

>  <SCORE.INTER.SOLV>
3.34546

>  <SCORE.INTER.VDW>
-20.5159

>  <SCORE.INTER.norm>
-2.37011

>  <SCORE.INTRA>
0

>  <SCORE.INTRA.DIHEDRAL>
0

>  <SCORE.INTRA.DIHEDRAL.0>
0

>  <SCORE.INTRA.POLAR>
0

>  <SCORE.INTRA.POLAR.0>
0

>  <SCORE.INTRA.REPUL>
0

>  <SCORE.INTRA.REPUL.0>
0

>  <SCORE.INTRA.SOLV>
0

>  <SCORE.INTRA.SOLV.lig_0>
-4.1818

>  <SCORE.INTRA.VDW>
0

>  <SCORE.INTRA.VDW.0>
0

>  <SCORE.INTRA.norm>
0

>  <SCORE.RESTR>
0

>  <SCORE.RESTR.CAVITY>
0

>  <SCORE.RESTR.norm>
0

>  <SCORE.SYSTEM>
0

>  <SCORE.SYSTEM.CONST>
0

>  <SCORE.SYSTEM.DIHEDRAL>
0

>  <SCORE.SYSTEM.SOLV>
0

>  <SCORE.SYSTEM.norm>
0

>  <SCORE.heavy>
10

>  <SCORE.norm>
-2.37011

>  <RMSD>
1.191

$$$$
ligand
 OpenBabel11021811503D
libRbt.so/2013.1/901 2013/11/27
 10 11  0  0  0  0  0  0  0  0999 V2000
   18.9350   -4.7629    2.5209 N   0  0  0  0  0  0  0  0  0  0  0  0
   17.8727   -5.2843    3.1057 C   0  0  0  0  0  0  0  0  0  0  0  0
   16.8621   -4.4354    3.5695 N   0  0  0  0  0  0  0  0  0  0  0  0
   16.9884   -3.1084    3.4304 C   0  0  0  0  0  0  0  0  0  0  0  0
   18.0647   -2.5883    2.8453 C   0  0  0  0  0  0  0  0  0  0  0  0
   19.0318   -3.3745    2.3783 C   0  0  0  0  0  0  0  0  0  0  0  0
   20.0125   -2.8936    1.8129 O   0  0  0  0  0  0  0  0  0  0  0  0
   17.9622   -1.2637    2.9105 N   0  0  0  0  0  0  0  0  0  0  0  0
   16.8243   -0.9636    3.5287 C   0  0  0  0  0  0  0  0  0  0  0  0
   16.2195   -2.1059    3.8426 N   0  0  0  0  0  0  0  0  0  0  0  0
  1  2  1  0  0  0  0
  1  6  1  0  0  0  0
  2  3  2  0  0  0  0
  3  4  1  0  0  0  0
  4  5  2  0  0  0  0
  4 10  1  0  0  0  0
  5  6  1  0  0  0  0
  5  8  1  0  0  0  0
  6  7  2  0  0  0  0
  8  9  1  0  0  0  0
  9 10  2  0  0  0  0
M  END
>  <CHROM.1>
17.91865280,-3.07634856,2.97186837,0.81955568,-0.49375795,3.10647548

>  <Name>
ligand

>  <RI>
0

>  <Rbt.Current_Directory>
/home/itssahil/PROJECTS/Mol_Feturizer/New_Systems/rnas/4NYD

>  <Rbt.Executable>
rbdock ($Id: //depot/dev/client3/rdock/2013.1/src/exe/rbdock.cxx#4 $)

>  <Rbt.Library>
libRbt.so (2013.1, Build901 2013/11/27)

>  <Rbt.Parameter_File>
/export/apps/rDock/src/rDock_2013.1_src/data/scripts/dock_solv.prm

>  <Rbt.Receptor>
prm/blind_docking_80.prm

>  <SCORE>
-23.7172

>  <SCORE.INTER>
-23.7172

>  <SCORE.INTER.CONST>
1

>  <SCORE.INTER.POLAR>
0

>  <SCORE.INTER.ROT>
0

>  <SCORE.INTER.SOLV>
3.33064

>  <SCORE.INTER.VDW>
-20.5217

>  <SCORE.INTER.norm>
-2.37172

>  <SCORE.INTRA>
0

>  <SCORE.INTRA.DIHEDRAL>
0

>  <SCORE.INTRA.DIHEDRAL.0>
0

>  <SCORE.INTRA.POLAR>
0

>  <SCORE.INTRA.POLAR.0>
0

>  <SCORE.INTRA.REPUL>
0

>  <SCORE.INTRA.REPUL.0>
0

>  <SCORE.INTRA.SOLV>
0

>  <SCORE.INTRA.SOLV.lig_0>
-4.1818

>  <SCORE.INTRA.VDW>
0

>  <SCORE.INTRA.VDW.0>
0

>  <SCORE.INTRA.norm>
0

>  <SCORE.RESTR>
0

>  <SCORE.RESTR.CAVITY>
0

>  <SCORE.RESTR.norm>
0

>  <SCORE.SYSTEM>
0

>  <SCORE.SYSTEM.CONST>
0

>  <SCORE.SYSTEM.DIHEDRAL>
0

>  <SCORE.SYSTEM.SOLV>
0

>  <SCORE.SYSTEM.norm>
0

>  <SCORE.heavy>
10

>  <SCORE.norm>
-2.37172

>  <RMSD>
1.192

$$$$
ligand
 OpenBabel11021811503D
libRbt.so/2013.1/901 2013/11/27
 10 11  0  0  0  0  0  0  0  0999 V2000
   18.9355   -4.7763    2.5332 N   0  0  0  0  0  0  0  0  0  0  0  0
   17.8696   -5.2910    3.1172 C   0  0  0  0  0  0  0  0  0  0  0  0
   16.8577   -4.4367    3.5679 N   0  0  0  0  0  0  0  0  0  0  0  0
   16.9864   -3.1112    3.4173 C   0  0  0  0  0  0  0  0  0  0  0  0
   18.0664   -2.5978    2.8330 C   0  0  0  0  0  0  0  0  0  0  0  0
   19.0349   -3.3894    2.3783 C   0  0  0  0  0  0  0  0  0  0  0  0
   20.0191   -2.9150    1.8137 O   0  0  0  0  0  0  0  0  0  0  0  0
   17.9652   -1.2725    2.8856 N   0  0  0  0  0  0  0  0  0  0  0  0
   16.8245   -0.9654    3.4952 C   0  0  0  0  0  0  0  0  0  0  0  0
   16.2167   -2.1040    3.8163 N   0  0  0  0  0  0  0  0  0  0  0  0
  1  2  1  0  0  0  0
  1  6  1  0  0  0  0
  2  3  2  0  0  0  0
  3  4  1  0  0  0  0
  4  5  2  0  0  0  0
  4 10  1  0  0  0  0
  5  6  1  0  0  0  0
  5  8  1  0  0  0  0
  6  7  2  0  0  0  0
  8  9  1  0  0  0  0
  9 10  2  0  0  0  0
M  END
>  <CHROM.1>
17.91907605,-3.08448407,2.96335563,0.82121314,-0.48863266,3.09809693

>  <Name>
ligand

>  <RI>
0

>  <Rbt.Current_Directory>
/home/itssahil/PROJECTS/Mol_Feturizer/New_Systems/rnas/4NYD

>  <Rbt.Executable>
rbdock ($Id: //depot/dev/client3/rdock/2013.1/src/exe/rbdock.cxx#4 $)

>  <Rbt.Library>
libRbt.so (2013.1, Build901 2013/11/27)

>  <Rbt.Parameter_File>
/export/apps/rDock/src/rDock_2013.1_src/data/scripts/dock_solv.prm

>  <Rbt.Receptor>
prm/pocket_docking_6.prm

>  <SCORE>
-23.7119

>  <SCORE.INTER>
-23.7119

>  <SCORE.INTER.CONST>
1

>  <SCORE.INTER.POLAR>
0

>  <SCORE.INTER.ROT>
0

>  <SCORE.INTER.SOLV>
3.30844

>  <SCORE.INTER.VDW>
-20.5107

>  <SCORE.INTER.norm>
-2.37119

>  <SCORE.INTRA>
0

>  <SCORE.INTRA.DIHEDRAL>
0

>  <SCORE.INTRA.DIHEDRAL.0>
0

>  <SCORE.INTRA.POLAR>
0

>  <SCORE.INTRA.POLAR.0>
0

>  <SCORE.INTRA.REPUL>
0

>  <SCORE.INTRA.REPUL.0>
0

>  <SCORE.INTRA.SOLV>
0

>  <SCORE.INTRA.SOLV.lig_0>
-4.1818

>  <SCORE.INTRA.VDW>
0

>  <SCORE.INTRA.VDW.0>
0

>  <SCORE.INTRA.norm>
0

>  <SCORE.RESTR>
0

>  <SCORE.RESTR.CAVITY>
0

>  <SCORE.RESTR.norm>
0

>  <SCORE.SYSTEM>
0

>  <SCORE.SYSTEM.CONST>
0

>  <SCORE.SYSTEM.DIHEDRAL>
0

>  <SCORE.SYSTEM.SOLV>
0

>  <SCORE.SYSTEM.norm>
0

>  <SCORE.heavy>
10

>  <SCORE.norm>
-2.37119

>  <RMSD>
1.192

$$$$
ligand
 OpenBabel11021811503D
libRbt.so/2013.1/901 2013/11/27
 10 11  0  0  0  0  0  0  0  0999 V2000
   18.9850   -4.7333    2.4919 N   0  0  0  0  0  0  0  0  0  0  0  0
   17.9650   -5.3114    3.0983 C   0  0  0  0  0  0  0  0  0  0  0  0
   16.9289   -4.5171    3.6007 N   0  0  0  0  0  0  0  0  0  0  0  0
   16.9889   -3.1840    3.4761 C   0  0  0  0  0  0  0  0  0  0  0  0
   18.0229   -2.6064    2.8691 C   0  0  0  0  0  0  0  0  0  0  0  0
   19.0125   -3.3402    2.3654 C   0  0  0  0  0  0  0  0  0  0  0  0
   19.9535   -2.8066    1.7802 O   0  0  0  0  0  0  0  0  0  0  0  0
   17.8601   -1.2891    2.9549 N   0  0  0  0  0  0  0  0  0  0  0  0
   16.7269   -1.0507    3.6078 C   0  0  0  0  0  0  0  0  0  0  0  0
   16.1855   -2.2241    3.9225 N   0  0  0  0  0  0  0  0  0  0  0  0
  1  2  1  0  0  0  0
  1  6  1  0  0  0  0
  2  3  2  0  0  0  0
  3  4  1  0  0  0  0
  4  5  2  0  0  0  0
  4 10  1  0  0  0  0
  5  6  1  0  0  0  0
  5  8  1  0  0  0  0
  6  7  2  0  0  0  0
  8  9  1  0  0  0  0
  9 10  2  0  0  0  0
M  END
>  <CHROM.1>
17.90351078,-3.10237025,2.99300239,0.76432697,-0.51923260,3.09252563

>  <Name>
ligand

>  <RI>
0

>  <Rbt.Current_Directory>
/home/itssahil/PROJECTS/Mol_Feturizer/New_Systems/rnas/4NYD

>  <Rbt.Executable>
rbdock ($Id: //depot/dev/client3/rdock/2013.1/src/exe/rbdock.cxx#4 $)

>  <Rbt.Library>
libRbt.so (2013.1, Build901 2013/11/27)

>  <Rbt.Parameter_File>
/export/apps/rDock/src/rDock_2013.1_src/data/scripts/dock_solv.prm

>  <Rbt.Receptor>
prm/pocket_docking_7.prm

>  <SCORE>
-23.7349

>  <SCORE.INTER>
-23.7349

>  <SCORE.INTER.CONST>
1

>  <SCORE.INTER.POLAR>
0

>  <SCORE.INTER.ROT>
0

>  <SCORE.INTER.SOLV>
3.35269

>  <SCORE.INTER.VDW>
-20.5409

>  <SCORE.INTER.norm>
-2.37349

>  <SCORE.INTRA>
0

>  <SCORE.INTRA.DIHEDRAL>
0

>  <SCORE.INTRA.DIHEDRAL.0>
0

>  <SCORE.INTRA.POLAR>
0

>  <SCORE.INTRA.POLAR.0>
0

>  <SCORE.INTRA.REPUL>
0

>  <SCORE.INTRA.REPUL.0>
0

>  <SCORE.INTRA.SOLV>
0

>  <SCORE.INTRA.SOLV.lig_0>
-4.1818

>  <SCORE.INTRA.VDW>
0

>  <SCORE.INTRA.VDW.0>
0

>  <SCORE.INTRA.norm>
0

>  <SCORE.RESTR>
0

>  <SCORE.RESTR.CAVITY>
0

>  <SCORE.RESTR.norm>
0

>  <SCORE.SYSTEM>
0

>  <SCORE.SYSTEM.CONST>
0

>  <SCORE.SYSTEM.DIHEDRAL>
0

>  <SCORE.SYSTEM.SOLV>
0

>  <SCORE.SYSTEM.norm>
0

>  <SCORE.heavy>
10

>  <SCORE.norm>
-2.37349

>  <RMSD>
1.192

$$$$
ligand
 OpenBabel11021811503D
libRbt.so/2013.1/901 2013/11/27
 10 11  0  0  0  0  0  0  0  0999 V2000
   18.9758   -4.7408    2.4745 N   0  0  0  0  0  0  0  0  0  0  0  0
   17.9587   -5.3152    3.0892 C   0  0  0  0  0  0  0  0  0  0  0  0
   16.9277   -4.5174    3.5966 N   0  0  0  0  0  0  0  0  0  0  0  0
   16.9897   -3.1848    3.4684 C   0  0  0  0  0  0  0  0  0  0  0  0
   18.0208   -2.6109    2.8529 C   0  0  0  0  0  0  0  0  0  0  0  0
   19.0054   -3.3481    2.3444 C   0  0  0  0  0  0  0  0  0  0  0  0
   19.9435   -2.8179    1.7515 O   0  0  0  0  0  0  0  0  0  0  0  0
   17.8614   -1.2930    2.9366 N   0  0  0  0  0  0  0  0  0  0  0  0
   16.7332   -1.0506    3.5966 C   0  0  0  0  0  0  0  0  0  0  0  0
   16.1913   -2.2220    3.9178 N   0  0  0  0  0  0  0  0  0  0  0  0
  1  2  1  0  0  0  0
  1  6  1  0  0  0  0
  2  3  2  0  0  0  0
  3  4  1  0  0  0  0
  4  5  2  0  0  0  0
  4 10  1  0  0  0  0
  5  6  1  0  0  0  0
  5  8  1  0  0  0  0
  6  7  2  0  0  0  0
  8  9  1  0  0  0  0
  9 10  2  0  0  0  0
M  END
>  <CHROM.1>
17.90117346,-3.10629081,2.97886892,0.76641749,-0.52609216,3.09111400

>  <Name>
ligand

>  <RI>
0

>  <Rbt.Current_Directory>
/home/itssahil/PROJECTS/Mol_Feturizer/New_Systems/rnas/4NYD

>  <Rbt.Executable>
rbdock ($Id: //depot/dev/client3/rdock/2013.1/src/exe/rbdock.cxx#4 $)

>  <Rbt.Library>
libRbt.so (2013.1, Build901 2013/11/27)

>  <Rbt.Parameter_File>
/export/apps/rDock/src/rDock_2013.1_src/data/scripts/dock_solv.prm

>  <Rbt.Receptor>
prm/pocket_docking_8.prm

>  <SCORE>
-23.7314

>  <SCORE.INTER>
-23.7314

>  <SCORE.INTER.CONST>
1

>  <SCORE.INTER.POLAR>
0

>  <SCORE.INTER.ROT>
0

>  <SCORE.INTER.SOLV>
3.34294

>  <SCORE.INTER.VDW>
-20.5353

>  <SCORE.INTER.norm>
-2.37314

>  <SCORE.INTRA>
0

>  <SCORE.INTRA.DIHEDRAL>
0

>  <SCORE.INTRA.DIHEDRAL.0>
0

>  <SCORE.INTRA.POLAR>
0

>  <SCORE.INTRA.POLAR.0>
0

>  <SCORE.INTRA.REPUL>
0

>  <SCORE.INTRA.REPUL.0>
0

>  <SCORE.INTRA.SOLV>
0

>  <SCORE.INTRA.SOLV.lig_0>
-4.1818

>  <SCORE.INTRA.VDW>
0

>  <SCORE.INTRA.VDW.0>
0

>  <SCORE.INTRA.norm>
0

>  <SCORE.RESTR>
0

>  <SCORE.RESTR.CAVITY>
0

>  <SCORE.RESTR.norm>
0

>  <SCORE.SYSTEM>
0

>  <SCORE.SYSTEM.CONST>
0

>  <SCORE.SYSTEM.DIHEDRAL>
0

>  <SCORE.SYSTEM.SOLV>
0

>  <SCORE.SYSTEM.norm>
0

>  <SCORE.heavy>
10

>  <SCORE.norm>
-2.37314

>  <RMSD>
1.192

$$$$
ligand
 OpenBabel11021811503D
libRbt.so/2013.1/901 2013/11/27
 10 11  0  0  0  0  0  0  0  0999 V2000
   18.9571   -4.7501    2.4684 N   0  0  0  0  0  0  0  0  0  0  0  0
   17.9138   -5.3187    3.0434 C   0  0  0  0  0  0  0  0  0  0  0  0
   16.8832   -4.5131    3.5392 N   0  0  0  0  0  0  0  0  0  0  0  0
   16.9716   -3.1795    3.4402 C   0  0  0  0  0  0  0  0  0  0  0  0
   18.0289   -2.6117    2.8647 C   0  0  0  0  0  0  0  0  0  0  0  0
   19.0141   -3.3558    2.3679 C   0  0  0  0  0  0  0  0  0  0  0  0
   19.9771   -2.8305    1.8116 O   0  0  0  0  0  0  0  0  0  0  0  0
   17.8899   -1.2931    2.9713 N   0  0  0  0  0  0  0  0  0  0  0  0
   16.7484   -1.0441    3.6054 C   0  0  0  0  0  0  0  0  0  0  0  0
   16.1779   -2.2119    3.8877 N   0  0  0  0  0  0  0  0  0  0  0  0
  1  2  1  0  0  0  0
  1  6  1  0  0  0  0
  2  3  2  0  0  0  0
  3  4  1  0  0  0  0
  4  5  2  0  0  0  0
  4 10  1  0  0  0  0
  5  6  1  0  0  0  0
  5  8  1  0  0  0  0
  6  7  2  0  0  0  0
  8  9  1  0  0  0  0
  9 10  2  0  0  0  0
M  END
>  <CHROM.1>
17.89732189,-3.10729094,2.97718736,0.78754880,-0.49954955,3.12188542

>  <Name>
ligand

>  <RI>
0

>  <Rbt.Current_Directory>
/home/itssahil/PROJECTS/Mol_Feturizer/New_Systems/rnas/4NYD

>  <Rbt.Executable>
rbdock ($Id: //depot/dev/client3/rdock/2013.1/src/exe/rbdock.cxx#4 $)

>  <Rbt.Library>
libRbt.so (2013.1, Build901 2013/11/27)

>  <Rbt.Parameter_File>
/export/apps/rDock/src/rDock_2013.1_src/data/scripts/dock_solv.prm

>  <Rbt.Receptor>
prm/blind_docking_40.prm

>  <SCORE>
-23.7453

>  <SCORE.INTER>
-23.7453

>  <SCORE.INTER.CONST>
1

>  <SCORE.INTER.POLAR>
0

>  <SCORE.INTER.ROT>
0

>  <SCORE.INTER.SOLV>
3.34533

>  <SCORE.INTER.VDW>
-20.5453

>  <SCORE.INTER.norm>
-2.37453

>  <SCORE.INTRA>
0

>  <SCORE.INTRA.DIHEDRAL>
0

>  <SCORE.INTRA.DIHEDRAL.0>
0

>  <SCORE.INTRA.POLAR>
0

>  <SCORE.INTRA.POLAR.0>
0

>  <SCORE.INTRA.REPUL>
0

>  <SCORE.INTRA.REPUL.0>
0

>  <SCORE.INTRA.SOLV>
0

>  <SCORE.INTRA.SOLV.lig_0>
-4.1818

>  <SCORE.INTRA.VDW>
0

>  <SCORE.INTRA.VDW.0>
0

>  <SCORE.INTRA.norm>
0

>  <SCORE.RESTR>
0

>  <SCORE.RESTR.CAVITY>
0

>  <SCORE.RESTR.norm>
0

>  <SCORE.SYSTEM>
0

>  <SCORE.SYSTEM.CONST>
0

>  <SCORE.SYSTEM.DIHEDRAL>
0

>  <SCORE.SYSTEM.SOLV>
0

>  <SCORE.SYSTEM.norm>
0

>  <SCORE.heavy>
10

>  <SCORE.norm>
-2.37453

>  <RMSD>
1.193

$$$$
ligand
 OpenBabel11021811503D
libRbt.so/2013.1/901 2013/11/27
 10 11  0  0  0  0  0  0  0  0999 V2000
   18.9936   -4.7565    2.5070 N   0  0  0  0  0  0  0  0  0  0  0  0
   17.9818   -5.3299    3.1314 C   0  0  0  0  0  0  0  0  0  0  0  0
   16.9453   -4.5329    3.6286 N   0  0  0  0  0  0  0  0  0  0  0  0
   16.9966   -3.2019    3.4810 C   0  0  0  0  0  0  0  0  0  0  0  0
   18.0224   -2.6290    2.8558 C   0  0  0  0  0  0  0  0  0  0  0  0
   19.0121   -3.3657    2.3567 C   0  0  0  0  0  0  0  0  0  0  0  0
   19.9453   -2.8369    1.7549 O   0  0  0  0  0  0  0  0  0  0  0  0
   17.8528   -1.3112    2.9206 N   0  0  0  0  0  0  0  0  0  0  0  0
   16.7236   -1.0681    3.5785 C   0  0  0  0  0  0  0  0  0  0  0  0
   16.1913   -2.2389    3.9175 N   0  0  0  0  0  0  0  0  0  0  0  0
  1  2  1  0  0  0  0
  1  6  1  0  0  0  0
  2  3  2  0  0  0  0
  3  4  1  0  0  0  0
  4  5  2  0  0  0  0
  4 10  1  0  0  0  0
  5  6  1  0  0  0  0
  5  8  1  0  0  0  0
  6  7  2  0  0  0  0
  8  9  1  0  0  0  0
  9 10  2  0  0  0  0
M  END
>  <CHROM.1>
17.90684951,-3.12335023,2.98911939,0.75728530,-0.52695244,3.07199804

>  <Name>
ligand

>  <RI>
0

>  <Rbt.Current_Directory>
/home/itssahil/PROJECTS/Mol_Feturizer/New_Systems/rnas/4NYD

>  <Rbt.Executable>
rbdock ($Id: //depot/dev/client3/rdock/2013.1/src/exe/rbdock.cxx#4 $)

>  <Rbt.Library>
libRbt.so (2013.1, Build901 2013/11/27)

>  <Rbt.Parameter_File>
/export/apps/rDock/src/rDock_2013.1_src/data/scripts/dock_solv.prm

>  <Rbt.Receptor>
prm/blind_docking_60.prm

>  <SCORE>
-23.6949

>  <SCORE.INTER>
-23.6949

>  <SCORE.INTER.CONST>
1

>  <SCORE.INTER.POLAR>
0

>  <SCORE.INTER.ROT>
0

>  <SCORE.INTER.SOLV>
3.33831

>  <SCORE.INTER.VDW>
-20.5094

>  <SCORE.INTER.norm>
-2.36949

>  <SCORE.INTRA>
0

>  <SCORE.INTRA.DIHEDRAL>
0

>  <SCORE.INTRA.DIHEDRAL.0>
0

>  <SCORE.INTRA.POLAR>
0

>  <SCORE.INTRA.POLAR.0>
0

>  <SCORE.INTRA.REPUL>
0

>  <SCORE.INTRA.REPUL.0>
0

>  <SCORE.INTRA.SOLV>
0

>  <SCORE.INTRA.SOLV.lig_0>
-4.1818

>  <SCORE.INTRA.VDW>
0

>  <SCORE.INTRA.VDW.0>
0

>  <SCORE.INTRA.norm>
0

>  <SCORE.RESTR>
0

>  <SCORE.RESTR.CAVITY>
0

>  <SCORE.RESTR.norm>
0

>  <SCORE.SYSTEM>
0

>  <SCORE.SYSTEM.CONST>
0

>  <SCORE.SYSTEM.DIHEDRAL>
0

>  <SCORE.SYSTEM.SOLV>
0

>  <SCORE.SYSTEM.norm>
0

>  <SCORE.heavy>
10

>  <SCORE.norm>
-2.36949

>  <RMSD>
1.193

$$$$
ligand
 OpenBabel11021811503D
libRbt.so/2013.1/901 2013/11/27
 10 11  0  0  0  0  0  0  0  0999 V2000
   18.9430   -4.7672    2.5614 N   0  0  0  0  0  0  0  0  0  0  0  0
   17.8674   -5.2806    3.1286 C   0  0  0  0  0  0  0  0  0  0  0  0
   16.8495   -4.4251    3.5631 N   0  0  0  0  0  0  0  0  0  0  0  0
   16.9820   -3.0998    3.4143 C   0  0  0  0  0  0  0  0  0  0  0  0
   18.0716   -2.5876    2.8470 C   0  0  0  0  0  0  0  0  0  0  0  0
   19.0462   -3.3804    2.4077 C   0  0  0  0  0  0  0  0  0  0  0  0
   20.0398   -2.9071    1.8586 O   0  0  0  0  0  0  0  0  0  0  0  0
   17.9710   -1.2622    2.8977 N   0  0  0  0  0  0  0  0  0  0  0  0
   16.8211   -0.9537    3.4891 C   0  0  0  0  0  0  0  0  0  0  0  0
   16.2071   -2.0916    3.8008 N   0  0  0  0  0  0  0  0  0  0  0  0
  1  2  1  0  0  0  0
  1  6  1  0  0  0  0
  2  3  2  0  0  0  0
  3  4  1  0  0  0  0
  4  5  2  0  0  0  0
  4 10  1  0  0  0  0
  5  6  1  0  0  0  0
  5  8  1  0  0  0  0
  6  7  2  0  0  0  0
  8  9  1  0  0  0  0
  9 10  2  0  0  0  0
M  END
>  <CHROM.1>
17.92169228,-3.07413035,2.97508628,0.82316435,-0.47292035,3.09876087

>  <Name>
ligand

>  <RI>
0

>  <Rbt.Current_Directory>
/home/itssahil/PROJECTS/Mol_Feturizer/New_Systems/rnas/4NYD

>  <Rbt.Executable>
rbdock ($Id: //depot/dev/client3/rdock/2013.1/src/exe/rbdock.cxx#4 $)

>  <Rbt.Library>
libRbt.so (2013.1, Build901 2013/11/27)

>  <Rbt.Parameter_File>
/export/apps/rDock/src/rDock_2013.1_src/data/scripts/dock_solv.prm

>  <Rbt.Receptor>
prm/blind_docking_60.prm

>  <SCORE>
-23.6992

>  <SCORE.INTER>
-23.6992

>  <SCORE.INTER.CONST>
1

>  <SCORE.INTER.POLAR>
0

>  <SCORE.INTER.ROT>
0

>  <SCORE.INTER.SOLV>
3.31306

>  <SCORE.INTER.VDW>
-20.5038

>  <SCORE.INTER.norm>
-2.36992

>  <SCORE.INTRA>
0

>  <SCORE.INTRA.DIHEDRAL>
0

>  <SCORE.INTRA.DIHEDRAL.0>
0

>  <SCORE.INTRA.POLAR>
0

>  <SCORE.INTRA.POLAR.0>
0

>  <SCORE.INTRA.REPUL>
0

>  <SCORE.INTRA.REPUL.0>
0

>  <SCORE.INTRA.SOLV>
0

>  <SCORE.INTRA.SOLV.lig_0>
-4.1818

>  <SCORE.INTRA.VDW>
0

>  <SCORE.INTRA.VDW.0>
0

>  <SCORE.INTRA.norm>
0

>  <SCORE.RESTR>
0

>  <SCORE.RESTR.CAVITY>
0

>  <SCORE.RESTR.norm>
0

>  <SCORE.SYSTEM>
0

>  <SCORE.SYSTEM.CONST>
0

>  <SCORE.SYSTEM.DIHEDRAL>
0

>  <SCORE.SYSTEM.SOLV>
0

>  <SCORE.SYSTEM.norm>
0

>  <SCORE.heavy>
10

>  <SCORE.norm>
-2.36992

>  <RMSD>
1.193

$$$$
ligand
 OpenBabel11021811503D
libRbt.so/2013.1/901 2013/11/27
 10 11  0  0  0  0  0  0  0  0999 V2000
   18.9952   -4.7704    2.5065 N   0  0  0  0  0  0  0  0  0  0  0  0
   17.9868   -5.3421    3.1378 C   0  0  0  0  0  0  0  0  0  0  0  0
   16.9505   -4.5441    3.6342 N   0  0  0  0  0  0  0  0  0  0  0  0
   16.9988   -3.2139    3.4786 C   0  0  0  0  0  0  0  0  0  0  0  0
   18.0213   -2.6426    2.8465 C   0  0  0  0  0  0  0  0  0  0  0  0
   19.0106   -3.3804    2.3481 C   0  0  0  0  0  0  0  0  0  0  0  0
   19.9406   -2.8533    1.7398 O   0  0  0  0  0  0  0  0  0  0  0  0
   17.8494   -1.3249    2.9043 N   0  0  0  0  0  0  0  0  0  0  0  0
   16.7221   -1.0801    3.5649 C   0  0  0  0  0  0  0  0  0  0  0  0
   16.1933   -2.2499    3.9125 N   0  0  0  0  0  0  0  0  0  0  0  0
  1  2  1  0  0  0  0
  1  6  1  0  0  0  0
  2  3  2  0  0  0  0
  3  4  1  0  0  0  0
  4  5  2  0  0  0  0
  4 10  1  0  0  0  0
  5  6  1  0  0  0  0
  5  8  1  0  0  0  0
  6  7  2  0  0  0  0
  8  9  1  0  0  0  0
  9 10  2  0  0  0  0
M  END
>  <CHROM.1>
17.90714778,-3.13648148,2.98307542,0.75479885,-0.53040985,3.06496702

>  <Name>
ligand

>  <RI>
0

>  <Rbt.Current_Directory>
/home/itssahil/PROJECTS/Mol_Feturizer/New_Systems/rnas/4NYD

>  <Rbt.Executable>
rbdock ($Id: //depot/dev/client3/rdock/2013.1/src/exe/rbdock.cxx#4 $)

>  <Rbt.Library>
libRbt.so (2013.1, Build901 2013/11/27)

>  <Rbt.Parameter_File>
/export/apps/rDock/src/rDock_2013.1_src/data/scripts/dock_solv.prm

>  <Rbt.Receptor>
prm/pocket_docking_3.prm

>  <SCORE>
-23.7172

>  <SCORE.INTER>
-23.7172

>  <SCORE.INTER.CONST>
1

>  <SCORE.INTER.POLAR>
0

>  <SCORE.INTER.ROT>
0

>  <SCORE.INTER.SOLV>
3.33032

>  <SCORE.INTER.VDW>
-20.5215

>  <SCORE.INTER.norm>
-2.37172

>  <SCORE.INTRA>
0

>  <SCORE.INTRA.DIHEDRAL>
0

>  <SCORE.INTRA.DIHEDRAL.0>
0

>  <SCORE.INTRA.POLAR>
0

>  <SCORE.INTRA.POLAR.0>
0

>  <SCORE.INTRA.REPUL>
0

>  <SCORE.INTRA.REPUL.0>
0

>  <SCORE.INTRA.SOLV>
0

>  <SCORE.INTRA.SOLV.lig_0>
-4.1818

>  <SCORE.INTRA.VDW>
0

>  <SCORE.INTRA.VDW.0>
0

>  <SCORE.INTRA.norm>
0

>  <SCORE.RESTR>
0

>  <SCORE.RESTR.CAVITY>
0

>  <SCORE.RESTR.norm>
0

>  <SCORE.SYSTEM>
0

>  <SCORE.SYSTEM.CONST>
0

>  <SCORE.SYSTEM.DIHEDRAL>
0

>  <SCORE.SYSTEM.SOLV>
0

>  <SCORE.SYSTEM.norm>
0

>  <SCORE.heavy>
10

>  <SCORE.norm>
-2.37172

>  <RMSD>
1.193

$$$$
ligand
 OpenBabel11021811503D
libRbt.so/2013.1/901 2013/11/27
 10 11  0  0  0  0  0  0  0  0999 V2000
   18.9131   -4.7847    2.4502 N   0  0  0  0  0  0  0  0  0  0  0  0
   17.8630   -5.3162    3.0479 C   0  0  0  0  0  0  0  0  0  0  0  0
   16.8651   -4.4754    3.5518 N   0  0  0  0  0  0  0  0  0  0  0  0
   16.9912   -3.1461    3.4375 C   0  0  0  0  0  0  0  0  0  0  0  0
   18.0553   -2.6158    2.8391 C   0  0  0  0  0  0  0  0  0  0  0  0
   19.0098   -3.3938    2.3342 C   0  0  0  0  0  0  0  0  0  0  0  0
   19.9786   -2.9030    1.7570 O   0  0  0  0  0  0  0  0  0  0  0  0
   17.9571   -1.2927    2.9342 N   0  0  0  0  0  0  0  0  0  0  0  0
   16.8341   -1.0035    3.5840 C   0  0  0  0  0  0  0  0  0  0  0  0
   16.2340   -2.1509    3.8876 N   0  0  0  0  0  0  0  0  0  0  0  0
  1  2  1  0  0  0  0
  1  6  1  0  0  0  0
  2  3  2  0  0  0  0
  3  4  1  0  0  0  0
  4  5  2  0  0  0  0
  4 10  1  0  0  0  0
  5  6  1  0  0  0  0
  5  8  1  0  0  0  0
  6  7  2  0  0  0  0
  8  9  1  0  0  0  0
  9 10  2  0  0  0  0
M  END
>  <CHROM.1>
17.91096566,-3.10610652,2.95886639,0.82122575,-0.51634818,3.12805195

>  <Name>
ligand

>  <RI>
0

>  <Rbt.Current_Directory>
/home/itssahil/PROJECTS/Mol_Feturizer/New_Systems/rnas/4NYD

>  <Rbt.Executable>
rbdock ($Id: //depot/dev/client3/rdock/2013.1/src/exe/rbdock.cxx#4 $)

>  <Rbt.Library>
libRbt.so (2013.1, Build901 2013/11/27)

>  <Rbt.Parameter_File>
/export/apps/rDock/src/rDock_2013.1_src/data/scripts/dock_solv.prm

>  <Rbt.Receptor>
prm/pocket_docking_4.prm

>  <SCORE>
-23.7113

>  <SCORE.INTER>
-23.7113

>  <SCORE.INTER.CONST>
1

>  <SCORE.INTER.POLAR>
0

>  <SCORE.INTER.ROT>
0

>  <SCORE.INTER.SOLV>
3.35239

>  <SCORE.INTER.VDW>
-20.525

>  <SCORE.INTER.norm>
-2.37113

>  <SCORE.INTRA>
0

>  <SCORE.INTRA.DIHEDRAL>
0

>  <SCORE.INTRA.DIHEDRAL.0>
0

>  <SCORE.INTRA.POLAR>
0

>  <SCORE.INTRA.POLAR.0>
0

>  <SCORE.INTRA.REPUL>
0

>  <SCORE.INTRA.REPUL.0>
0

>  <SCORE.INTRA.SOLV>
0

>  <SCORE.INTRA.SOLV.lig_0>
-4.1818

>  <SCORE.INTRA.VDW>
0

>  <SCORE.INTRA.VDW.0>
0

>  <SCORE.INTRA.norm>
0

>  <SCORE.RESTR>
0

>  <SCORE.RESTR.CAVITY>
0

>  <SCORE.RESTR.norm>
0

>  <SCORE.SYSTEM>
0

>  <SCORE.SYSTEM.CONST>
0

>  <SCORE.SYSTEM.DIHEDRAL>
0

>  <SCORE.SYSTEM.SOLV>
0

>  <SCORE.SYSTEM.norm>
0

>  <SCORE.heavy>
10

>  <SCORE.norm>
-2.37113

>  <RMSD>
1.193

$$$$
ligand
 OpenBabel11021811503D
libRbt.so/2013.1/901 2013/11/27
 10 11  0  0  0  0  0  0  0  0999 V2000
   18.9826   -4.7873    2.5062 N   0  0  0  0  0  0  0  0  0  0  0  0
   17.9790   -5.3401    3.1617 C   0  0  0  0  0  0  0  0  0  0  0  0
   16.9560   -4.5257    3.6587 N   0  0  0  0  0  0  0  0  0  0  0  0
   17.0120   -3.1987    3.4792 C   0  0  0  0  0  0  0  0  0  0  0  0
   18.0296   -2.6465    2.8227 C   0  0  0  0  0  0  0  0  0  0  0  0
   19.0061   -3.4005    2.3233 C   0  0  0  0  0  0  0  0  0  0  0  0
   19.9312   -2.8913    1.6928 O   0  0  0  0  0  0  0  0  0  0  0  0
   17.8684   -1.3267    2.8599 N   0  0  0  0  0  0  0  0  0  0  0  0
   16.7526   -1.0617    3.5321 C   0  0  0  0  0  0  0  0  0  0  0  0
   16.2201   -2.2212    3.9076 N   0  0  0  0  0  0  0  0  0  0  0  0
  1  2  1  0  0  0  0
  1  6  1  0  0  0  0
  2  3  2  0  0  0  0
  3  4  1  0  0  0  0
  4  5  2  0  0  0  0
  4 10  1  0  0  0  0
  5  6  1  0  0  0  0
  5  8  1  0  0  0  0
  6  7  2  0  0  0  0
  8  9  1  0  0  0  0
  9 10  2  0  0  0  0
M  END
>  <CHROM.1>
17.91370680,-3.13699871,2.96954739,0.76225337,-0.54526574,3.05134123

>  <Name>
ligand

>  <RI>
0

>  <Rbt.Current_Directory>
/home/itssahil/PROJECTS/Mol_Feturizer/New_Systems/rnas/4NYD

>  <Rbt.Executable>
rbdock ($Id: //depot/dev/client3/rdock/2013.1/src/exe/rbdock.cxx#4 $)

>  <Rbt.Library>
libRbt.so (2013.1, Build901 2013/11/27)

>  <Rbt.Parameter_File>
/export/apps/rDock/src/rDock_2013.1_src/data/scripts/dock_solv.prm

>  <Rbt.Receptor>
prm/pocket_docking_4.prm

>  <SCORE>
-23.662

>  <SCORE.INTER>
-23.662

>  <SCORE.INTER.CONST>
1

>  <SCORE.INTER.POLAR>
0

>  <SCORE.INTER.ROT>
0

>  <SCORE.INTER.SOLV>
3.31336

>  <SCORE.INTER.VDW>
-20.4791

>  <SCORE.INTER.norm>
-2.3662

>  <SCORE.INTRA>
0

>  <SCORE.INTRA.DIHEDRAL>
0

>  <SCORE.INTRA.DIHEDRAL.0>
0

>  <SCORE.INTRA.POLAR>
0

>  <SCORE.INTRA.POLAR.0>
0

>  <SCORE.INTRA.REPUL>
0

>  <SCORE.INTRA.REPUL.0>
0

>  <SCORE.INTRA.SOLV>
0

>  <SCORE.INTRA.SOLV.lig_0>
-4.1818

>  <SCORE.INTRA.VDW>
0

>  <SCORE.INTRA.VDW.0>
0

>  <SCORE.INTRA.norm>
0

>  <SCORE.RESTR>
0

>  <SCORE.RESTR.CAVITY>
0

>  <SCORE.RESTR.norm>
0

>  <SCORE.SYSTEM>
0

>  <SCORE.SYSTEM.CONST>
0

>  <SCORE.SYSTEM.DIHEDRAL>
0

>  <SCORE.SYSTEM.SOLV>
0

>  <SCORE.SYSTEM.norm>
0

>  <SCORE.heavy>
10

>  <SCORE.norm>
-2.3662

>  <RMSD>
1.193

$$$$
ligand
 OpenBabel11021811503D
libRbt.so/2013.1/901 2013/11/27
 10 11  0  0  0  0  0  0  0  0999 V2000
   18.9886   -4.7720    2.5227 N   0  0  0  0  0  0  0  0  0  0  0  0
   17.9730   -5.3296    3.1551 C   0  0  0  0  0  0  0  0  0  0  0  0
   16.9406   -4.5190    3.6386 N   0  0  0  0  0  0  0  0  0  0  0  0
   16.9997   -3.1907    3.4699 C   0  0  0  0  0  0  0  0  0  0  0  0
   18.0293   -2.6337    2.8367 C   0  0  0  0  0  0  0  0  0  0  0  0
   19.0151   -3.3838    2.3502 C   0  0  0  0  0  0  0  0  0  0  0  0
   19.9518   -2.8699    1.7410 O   0  0  0  0  0  0  0  0  0  0  0  0
   17.8671   -1.3141    2.8804 N   0  0  0  0  0  0  0  0  0  0  0  0
   16.7387   -1.0542    3.5333 C   0  0  0  0  0  0  0  0  0  0  0  0
   16.1995   -2.2164    3.8903 N   0  0  0  0  0  0  0  0  0  0  0  0
  1  2  1  0  0  0  0
  1  6  1  0  0  0  0
  2  3  2  0  0  0  0
  3  4  1  0  0  0  0
  4  5  2  0  0  0  0
  4 10  1  0  0  0  0
  5  6  1  0  0  0  0
  5  8  1  0  0  0  0
  6  7  2  0  0  0  0
  8  9  1  0  0  0  0
  9 10  2  0  0  0  0
M  END
>  <CHROM.1>
17.91074728,-3.12520185,2.97772331,0.76392044,-0.52648918,3.05946032

>  <Name>
ligand

>  <RI>
0

>  <Rbt.Current_Directory>
/home/itssahil/PROJECTS/Mol_Feturizer/New_Systems/rnas/4NYD

>  <Rbt.Executable>
rbdock ($Id: //depot/dev/client3/rdock/2013.1/src/exe/rbdock.cxx#4 $)

>  <Rbt.Library>
libRbt.so (2013.1, Build901 2013/11/27)

>  <Rbt.Parameter_File>
/export/apps/rDock/src/rDock_2013.1_src/data/scripts/dock_solv.prm

>  <Rbt.Receptor>
prm/pocket_docking_5.prm

>  <SCORE>
-23.6996

>  <SCORE.INTER>
-23.6996

>  <SCORE.INTER.CONST>
1

>  <SCORE.INTER.POLAR>
0

>  <SCORE.INTER.ROT>
0

>  <SCORE.INTER.SOLV>
3.31524

>  <SCORE.INTER.VDW>
-20.5048

>  <SCORE.INTER.norm>
-2.36996

>  <SCORE.INTRA>
0

>  <SCORE.INTRA.DIHEDRAL>
0

>  <SCORE.INTRA.DIHEDRAL.0>
0

>  <SCORE.INTRA.POLAR>
0

>  <SCORE.INTRA.POLAR.0>
0

>  <SCORE.INTRA.REPUL>
0

>  <SCORE.INTRA.REPUL.0>
0

>  <SCORE.INTRA.SOLV>
0

>  <SCORE.INTRA.SOLV.lig_0>
-4.1818

>  <SCORE.INTRA.VDW>
0

>  <SCORE.INTRA.VDW.0>
0

>  <SCORE.INTRA.norm>
0

>  <SCORE.RESTR>
0

>  <SCORE.RESTR.CAVITY>
0

>  <SCORE.RESTR.norm>
0

>  <SCORE.SYSTEM>
0

>  <SCORE.SYSTEM.CONST>
0

>  <SCORE.SYSTEM.DIHEDRAL>
0

>  <SCORE.SYSTEM.SOLV>
0

>  <SCORE.SYSTEM.norm>
0

>  <SCORE.heavy>
10

>  <SCORE.norm>
-2.36996

>  <RMSD>
1.193

$$$$
ligand
 OpenBabel11021811503D
libRbt.so/2013.1/901 2013/11/27
 10 11  0  0  0  0  0  0  0  0999 V2000
   18.9958   -4.7413    2.5236 N   0  0  0  0  0  0  0  0  0  0  0  0
   17.9733   -5.3147    3.1302 C   0  0  0  0  0  0  0  0  0  0  0  0
   16.9342   -4.5167    3.6203 N   0  0  0  0  0  0  0  0  0  0  0  0
   16.9938   -3.1848    3.4839 C   0  0  0  0  0  0  0  0  0  0  0  0
   18.0303   -2.6119    2.8767 C   0  0  0  0  0  0  0  0  0  0  0  0
   19.0229   -3.3494    2.3846 C   0  0  0  0  0  0  0  0  0  0  0  0
   19.9663   -2.8204    1.7992 O   0  0  0  0  0  0  0  0  0  0  0  0
   17.8661   -1.2939    2.9499 N   0  0  0  0  0  0  0  0  0  0  0  0
   16.7296   -1.0506    3.5950 C   0  0  0  0  0  0  0  0  0  0  0  0
   16.1875   -2.2214    3.9177 N   0  0  0  0  0  0  0  0  0  0  0  0
  1  2  1  0  0  0  0
  1  6  1  0  0  0  0
  2  3  2  0  0  0  0
  3  4  1  0  0  0  0
  4  5  2  0  0  0  0
  4 10  1  0  0  0  0
  5  6  1  0  0  0  0
  5  8  1  0  0  0  0
  6  7  2  0  0  0  0
  8  9  1  0  0  0  0
  9 10  2  0  0  0  0
M  END
>  <CHROM.1>
17.91068546,-3.10673764,3.00458425,0.76375400,-0.51430153,3.08319228

>  <Name>
ligand

>  <RI>
0

>  <Rbt.Current_Directory>
/home/itssahil/PROJECTS/Mol_Feturizer/New_Systems/rnas/4NYD

>  <Rbt.Executable>
rbdock ($Id: //depot/dev/client3/rdock/2013.1/src/exe/rbdock.cxx#4 $)

>  <Rbt.Library>
libRbt.so (2013.1, Build901 2013/11/27)

>  <Rbt.Parameter_File>
/export/apps/rDock/src/rDock_2013.1_src/data/scripts/dock_solv.prm

>  <Rbt.Receptor>
prm/pocket_docking_5.prm

>  <SCORE>
-23.7339

>  <SCORE.INTER>
-23.7339

>  <SCORE.INTER.CONST>
1

>  <SCORE.INTER.POLAR>
0

>  <SCORE.INTER.ROT>
0

>  <SCORE.INTER.SOLV>
3.35288

>  <SCORE.INTER.VDW>
-20.5402

>  <SCORE.INTER.norm>
-2.37339

>  <SCORE.INTRA>
0

>  <SCORE.INTRA.DIHEDRAL>
0

>  <SCORE.INTRA.DIHEDRAL.0>
0

>  <SCORE.INTRA.POLAR>
0

>  <SCORE.INTRA.POLAR.0>
0

>  <SCORE.INTRA.REPUL>
0

>  <SCORE.INTRA.REPUL.0>
0

>  <SCORE.INTRA.SOLV>
0

>  <SCORE.INTRA.SOLV.lig_0>
-4.1818

>  <SCORE.INTRA.VDW>
0

>  <SCORE.INTRA.VDW.0>
0

>  <SCORE.INTRA.norm>
0

>  <SCORE.RESTR>
0

>  <SCORE.RESTR.CAVITY>
0

>  <SCORE.RESTR.norm>
0

>  <SCORE.SYSTEM>
0

>  <SCORE.SYSTEM.CONST>
0

>  <SCORE.SYSTEM.DIHEDRAL>
0

>  <SCORE.SYSTEM.SOLV>
0

>  <SCORE.SYSTEM.norm>
0

>  <SCORE.heavy>
10

>  <SCORE.norm>
-2.37339

>  <RMSD>
1.193

$$$$
ligand
 OpenBabel11021811503D
libRbt.so/2013.1/901 2013/11/27
 10 11  0  0  0  0  0  0  0  0999 V2000
   18.9696   -4.7675    2.4540 N   0  0  0  0  0  0  0  0  0  0  0  0
   17.9654   -5.3388    3.0923 C   0  0  0  0  0  0  0  0  0  0  0  0
   16.9406   -4.5392    3.6093 N   0  0  0  0  0  0  0  0  0  0  0  0
   16.9956   -3.2078    3.4660 C   0  0  0  0  0  0  0  0  0  0  0  0
   18.0138   -2.6370    2.8266 C   0  0  0  0  0  0  0  0  0  0  0  0
   18.9920   -3.3762    2.3088 C   0  0  0  0  0  0  0  0  0  0  0  0
   19.9178   -2.8492    1.6941 O   0  0  0  0  0  0  0  0  0  0  0  0
   17.8512   -1.3188    2.8993 N   0  0  0  0  0  0  0  0  0  0  0  0
   16.7339   -1.0732    3.5762 C   0  0  0  0  0  0  0  0  0  0  0  0
   16.2018   -2.2430    3.9192 N   0  0  0  0  0  0  0  0  0  0  0  0
  1  2  1  0  0  0  0
  1  6  1  0  0  0  0
  2  3  2  0  0  0  0
  3  4  1  0  0  0  0
  4  5  2  0  0  0  0
  4 10  1  0  0  0  0
  5  6  1  0  0  0  0
  5  8  1  0  0  0  0
  6  7  2  0  0  0  0
  8  9  1  0  0  0  0
  9 10  2  0  0  0  0
M  END
>  <CHROM.1>
17.89816687,-3.13138024,2.95985911,0.76126986,-0.54330931,3.07796341

>  <Name>
ligand

>  <RI>
0

>  <Rbt.Current_Directory>
/home/itssahil/PROJECTS/Mol_Feturizer/New_Systems/rnas/4NYD

>  <Rbt.Executable>
rbdock ($Id: //depot/dev/client3/rdock/2013.1/src/exe/rbdock.cxx#4 $)

>  <Rbt.Library>
libRbt.so (2013.1, Build901 2013/11/27)

>  <Rbt.Parameter_File>
/export/apps/rDock/src/rDock_2013.1_src/data/scripts/dock_solv.prm

>  <Rbt.Receptor>
prm/pocket_docking_6.prm

>  <SCORE>
-23.7061

>  <SCORE.INTER>
-23.7061

>  <SCORE.INTER.CONST>
1

>  <SCORE.INTER.POLAR>
0

>  <SCORE.INTER.ROT>
0

>  <SCORE.INTER.SOLV>
3.32975

>  <SCORE.INTER.VDW>
-20.514

>  <SCORE.INTER.norm>
-2.37061

>  <SCORE.INTRA>
0

>  <SCORE.INTRA.DIHEDRAL>
0

>  <SCORE.INTRA.DIHEDRAL.0>
0

>  <SCORE.INTRA.POLAR>
0

>  <SCORE.INTRA.POLAR.0>
0

>  <SCORE.INTRA.REPUL>
0

>  <SCORE.INTRA.REPUL.0>
0

>  <SCORE.INTRA.SOLV>
0

>  <SCORE.INTRA.SOLV.lig_0>
-4.1818

>  <SCORE.INTRA.VDW>
0

>  <SCORE.INTRA.VDW.0>
0

>  <SCORE.INTRA.norm>
0

>  <SCORE.RESTR>
0

>  <SCORE.RESTR.CAVITY>
0

>  <SCORE.RESTR.norm>
0

>  <SCORE.SYSTEM>
0

>  <SCORE.SYSTEM.CONST>
0

>  <SCORE.SYSTEM.DIHEDRAL>
0

>  <SCORE.SYSTEM.SOLV>
0

>  <SCORE.SYSTEM.norm>
0

>  <SCORE.heavy>
10

>  <SCORE.norm>
-2.37061

>  <RMSD>
1.193

$$$$
ligand
 OpenBabel11021811503D
libRbt.so/2013.1/901 2013/11/27
 10 11  0  0  0  0  0  0  0  0999 V2000
   18.9913   -4.7728    2.5308 N   0  0  0  0  0  0  0  0  0  0  0  0
   17.9758   -5.3288    3.1649 C   0  0  0  0  0  0  0  0  0  0  0  0
   16.9424   -4.5171    3.6444 N   0  0  0  0  0  0  0  0  0  0  0  0
   17.0003   -3.1895    3.4702 C   0  0  0  0  0  0  0  0  0  0  0  0
   18.0298   -2.6341    2.8353 C   0  0  0  0  0  0  0  0  0  0  0  0
   19.0167   -3.3853    2.3527 C   0  0  0  0  0  0  0  0  0  0  0  0
   19.9533   -2.8731    1.7419 O   0  0  0  0  0  0  0  0  0  0  0  0
   17.8663   -1.3145    2.8735 N   0  0  0  0  0  0  0  0  0  0  0  0
   16.7373   -1.0529    3.5246 C   0  0  0  0  0  0  0  0  0  0  0  0
   16.1990   -2.2142    3.8860 N   0  0  0  0  0  0  0  0  0  0  0  0
  1  2  1  0  0  0  0
  1  6  1  0  0  0  0
  2  3  2  0  0  0  0
  3  4  1  0  0  0  0
  4  5  2  0  0  0  0
  4 10  1  0  0  0  0
  5  6  1  0  0  0  0
  5  8  1  0  0  0  0
  6  7  2  0  0  0  0
  8  9  1  0  0  0  0
  9 10  2  0  0  0  0
M  END
>  <CHROM.1>
17.91164038,-3.12514586,2.97832386,0.76291286,-0.52575469,3.05480241

>  <Name>
ligand

>  <RI>
0

>  <Rbt.Current_Directory>
/home/itssahil/PROJECTS/Mol_Feturizer/New_Systems/rnas/4NYD

>  <Rbt.Executable>
rbdock ($Id: //depot/dev/client3/rdock/2013.1/src/exe/rbdock.cxx#4 $)

>  <Rbt.Library>
libRbt.so (2013.1, Build901 2013/11/27)

>  <Rbt.Parameter_File>
/export/apps/rDock/src/rDock_2013.1_src/data/scripts/dock_solv.prm

>  <Rbt.Receptor>
prm/pocket_docking_7.prm

>  <SCORE>
-23.6992

>  <SCORE.INTER>
-23.6992

>  <SCORE.INTER.CONST>
1

>  <SCORE.INTER.POLAR>
0

>  <SCORE.INTER.ROT>
0

>  <SCORE.INTER.SOLV>
3.31098

>  <SCORE.INTER.VDW>
-20.5031

>  <SCORE.INTER.norm>
-2.36992

>  <SCORE.INTRA>
0

>  <SCORE.INTRA.DIHEDRAL>
0

>  <SCORE.INTRA.DIHEDRAL.0>
0

>  <SCORE.INTRA.POLAR>
0

>  <SCORE.INTRA.POLAR.0>
0

>  <SCORE.INTRA.REPUL>
0

>  <SCORE.INTRA.REPUL.0>
0

>  <SCORE.INTRA.SOLV>
0

>  <SCORE.INTRA.SOLV.lig_0>
-4.1818

>  <SCORE.INTRA.VDW>
0

>  <SCORE.INTRA.VDW.0>
0

>  <SCORE.INTRA.norm>
0

>  <SCORE.RESTR>
0

>  <SCORE.RESTR.CAVITY>
0

>  <SCORE.RESTR.norm>
0

>  <SCORE.SYSTEM>
0

>  <SCORE.SYSTEM.CONST>
0

>  <SCORE.SYSTEM.DIHEDRAL>
0

>  <SCORE.SYSTEM.SOLV>
0

>  <SCORE.SYSTEM.norm>
0

>  <SCORE.heavy>
10

>  <SCORE.norm>
-2.36992

>  <RMSD>
1.193

$$$$
ligand
 OpenBabel11021811503D
libRbt.so/2013.1/901 2013/11/27
 10 11  0  0  0  0  0  0  0  0999 V2000
   18.9776   -4.7582    2.4647 N   0  0  0  0  0  0  0  0  0  0  0  0
   17.9723   -5.3346    3.0967 C   0  0  0  0  0  0  0  0  0  0  0  0
   16.9402   -4.5401    3.6071 N   0  0  0  0  0  0  0  0  0  0  0  0
   16.9893   -3.2085    3.4640 C   0  0  0  0  0  0  0  0  0  0  0  0
   18.0086   -2.6325    2.8310 C   0  0  0  0  0  0  0  0  0  0  0  0
   18.9938   -3.3668    2.3195 C   0  0  0  0  0  0  0  0  0  0  0  0
   19.9208   -2.8351    1.7106 O   0  0  0  0  0  0  0  0  0  0  0  0
   17.8388   -1.3152    2.9025 N   0  0  0  0  0  0  0  0  0  0  0  0
   16.7160   -1.0753    3.5723 C   0  0  0  0  0  0  0  0  0  0  0  0
   16.1877   -2.2477    3.9120 N   0  0  0  0  0  0  0  0  0  0  0  0
  1  2  1  0  0  0  0
  1  6  1  0  0  0  0
  2  3  2  0  0  0  0
  3  4  1  0  0  0  0
  4  5  2  0  0  0  0
  4 10  1  0  0  0  0
  5  6  1  0  0  0  0
  5  8  1  0  0  0  0
  6  7  2  0  0  0  0
  8  9  1  0  0  0  0
  9 10  2  0  0  0  0
M  END
>  <CHROM.1>
17.89464287,-3.12750895,2.96356579,0.75580654,-0.53663995,3.07503983

>  <Name>
ligand

>  <RI>
0

>  <Rbt.Current_Directory>
/home/itssahil/PROJECTS/Mol_Feturizer/New_Systems/rnas/4NYD

>  <Rbt.Executable>
rbdock ($Id: //depot/dev/client3/rdock/2013.1/src/exe/rbdock.cxx#4 $)

>  <Rbt.Library>
libRbt.so (2013.1, Build901 2013/11/27)

>  <Rbt.Parameter_File>
/export/apps/rDock/src/rDock_2013.1_src/data/scripts/dock_solv.prm

>  <Rbt.Receptor>
prm/blind_docking_100.prm

>  <SCORE>
-23.7066

>  <SCORE.INTER>
-23.7066

>  <SCORE.INTER.CONST>
1

>  <SCORE.INTER.POLAR>
0

>  <SCORE.INTER.ROT>
0

>  <SCORE.INTER.SOLV>
3.32492

>  <SCORE.INTER.VDW>
-20.5127

>  <SCORE.INTER.norm>
-2.37066

>  <SCORE.INTRA>
0

>  <SCORE.INTRA.DIHEDRAL>
0

>  <SCORE.INTRA.DIHEDRAL.0>
0

>  <SCORE.INTRA.POLAR>
0

>  <SCORE.INTRA.POLAR.0>
0

>  <SCORE.INTRA.REPUL>
0

>  <SCORE.INTRA.REPUL.0>
0

>  <SCORE.INTRA.SOLV>
0

>  <SCORE.INTRA.SOLV.lig_0>
-4.1818

>  <SCORE.INTRA.VDW>
0

>  <SCORE.INTRA.VDW.0>
0

>  <SCORE.INTRA.norm>
0

>  <SCORE.RESTR>
0

>  <SCORE.RESTR.CAVITY>
0

>  <SCORE.RESTR.norm>
0

>  <SCORE.SYSTEM>
0

>  <SCORE.SYSTEM.CONST>
0

>  <SCORE.SYSTEM.DIHEDRAL>
0

>  <SCORE.SYSTEM.SOLV>
0

>  <SCORE.SYSTEM.norm>
0

>  <SCORE.heavy>
10

>  <SCORE.norm>
-2.37066

>  <RMSD>
1.194

$$$$
ligand
 OpenBabel11021811503D
libRbt.so/2013.1/901 2013/11/27
 10 11  0  0  0  0  0  0  0  0999 V2000
   18.9931   -4.7744    2.5093 N   0  0  0  0  0  0  0  0  0  0  0  0
   17.9816   -5.3442    3.1374 C   0  0  0  0  0  0  0  0  0  0  0  0
   16.9459   -4.5442    3.6317 N   0  0  0  0  0  0  0  0  0  0  0  0
   16.9977   -3.2140    3.4774 C   0  0  0  0  0  0  0  0  0  0  0  0
   18.0233   -2.6446    2.8485 C   0  0  0  0  0  0  0  0  0  0  0  0
   19.0121   -3.3843    2.3521 C   0  0  0  0  0  0  0  0  0  0  0  0
   19.9450   -2.8589    1.7468 O   0  0  0  0  0  0  0  0  0  0  0  0
   17.8543   -1.3265    2.9070 N   0  0  0  0  0  0  0  0  0  0  0  0
   16.7258   -1.0796    3.5647 C   0  0  0  0  0  0  0  0  0  0  0  0
   16.1933   -2.2485    3.9099 N   0  0  0  0  0  0  0  0  0  0  0  0
  1  2  1  0  0  0  0
  1  6  1  0  0  0  0
  2  3  2  0  0  0  0
  3  4  1  0  0  0  0
  4  5  2  0  0  0  0
  4 10  1  0  0  0  0
  5  6  1  0  0  0  0
  5  8  1  0  0  0  0
  6  7  2  0  0  0  0
  8  9  1  0  0  0  0
  9 10  2  0  0  0  0
M  END
>  <CHROM.1>
17.90755082,-3.13829553,2.98433796,0.75776979,-0.52790973,3.06732540

>  <Name>
ligand

>  <RI>
0

>  <Rbt.Current_Directory>
/home/itssahil/PROJECTS/Mol_Feturizer/New_Systems/rnas/4NYD

>  <Rbt.Executable>
rbdock ($Id: //depot/dev/client3/rdock/2013.1/src/exe/rbdock.cxx#4 $)

>  <Rbt.Library>
libRbt.so (2013.1, Build901 2013/11/27)

>  <Rbt.Parameter_File>
/export/apps/rDock/src/rDock_2013.1_src/data/scripts/dock_solv.prm

>  <Rbt.Receptor>
prm/blind_docking_80.prm

>  <SCORE>
-23.7138

>  <SCORE.INTER>
-23.7138

>  <SCORE.INTER.CONST>
1

>  <SCORE.INTER.POLAR>
0

>  <SCORE.INTER.ROT>
0

>  <SCORE.INTER.SOLV>
3.33162

>  <SCORE.INTER.VDW>
-20.5198

>  <SCORE.INTER.norm>
-2.37138

>  <SCORE.INTRA>
0

>  <SCORE.INTRA.DIHEDRAL>
0

>  <SCORE.INTRA.DIHEDRAL.0>
0

>  <SCORE.INTRA.POLAR>
0

>  <SCORE.INTRA.POLAR.0>
0

>  <SCORE.INTRA.REPUL>
0

>  <SCORE.INTRA.REPUL.0>
0

>  <SCORE.INTRA.SOLV>
0

>  <SCORE.INTRA.SOLV.lig_0>
-4.1818

>  <SCORE.INTRA.VDW>
0

>  <SCORE.INTRA.VDW.0>
0

>  <SCORE.INTRA.norm>
0

>  <SCORE.RESTR>
0

>  <SCORE.RESTR.CAVITY>
0

>  <SCORE.RESTR.norm>
0

>  <SCORE.SYSTEM>
0

>  <SCORE.SYSTEM.CONST>
0

>  <SCORE.SYSTEM.DIHEDRAL>
0

>  <SCORE.SYSTEM.SOLV>
0

>  <SCORE.SYSTEM.norm>
0

>  <SCORE.heavy>
10

>  <SCORE.norm>
-2.37138

>  <RMSD>
1.194

$$$$
ligand
 OpenBabel11021811503D
libRbt.so/2013.1/901 2013/11/27
 10 11  0  0  0  0  0  0  0  0999 V2000
   18.9444   -4.7700    2.5572 N   0  0  0  0  0  0  0  0  0  0  0  0
   17.8693   -5.2886    3.1208 C   0  0  0  0  0  0  0  0  0  0  0  0
   16.8462   -4.4380    3.5526 N   0  0  0  0  0  0  0  0  0  0  0  0
   16.9732   -3.1120    3.4050 C   0  0  0  0  0  0  0  0  0  0  0  0
   18.0623   -2.5946    2.8414 C   0  0  0  0  0  0  0  0  0  0  0  0
   19.0419   -3.3827    2.4048 C   0  0  0  0  0  0  0  0  0  0  0  0
   20.0350   -2.9046    1.8591 O   0  0  0  0  0  0  0  0  0  0  0  0
   17.9556   -1.2697    2.8926 N   0  0  0  0  0  0  0  0  0  0  0  0
   16.8025   -0.9667    3.4806 C   0  0  0  0  0  0  0  0  0  0  0  0
   16.1926   -2.1075    3.7897 N   0  0  0  0  0  0  0  0  0  0  0  0
  1  2  1  0  0  0  0
  1  6  1  0  0  0  0
  2  3  2  0  0  0  0
  3  4  1  0  0  0  0
  4  5  2  0  0  0  0
  4 10  1  0  0  0  0
  5  6  1  0  0  0  0
  5  8  1  0  0  0  0
  6  7  2  0  0  0  0
  8  9  1  0  0  0  0
  9 10  2  0  0  0  0
M  END
>  <CHROM.1>
17.91420328,-3.08185907,2.96876717,0.81829618,-0.46958913,3.09716746

>  <Name>
ligand

>  <RI>
0

>  <Rbt.Current_Directory>
/home/itssahil/PROJECTS/Mol_Feturizer/New_Systems/rnas/4NYD

>  <Rbt.Executable>
rbdock ($Id: //depot/dev/client3/rdock/2013.1/src/exe/rbdock.cxx#4 $)

>  <Rbt.Library>
libRbt.so (2013.1, Build901 2013/11/27)

>  <Rbt.Parameter_File>
/export/apps/rDock/src/rDock_2013.1_src/data/scripts/dock_solv.prm

>  <Rbt.Receptor>
prm/blind_docking_80.prm

>  <SCORE>
-23.7133

>  <SCORE.INTER>
-23.7133

>  <SCORE.INTER.CONST>
1

>  <SCORE.INTER.POLAR>
0

>  <SCORE.INTER.ROT>
0

>  <SCORE.INTER.SOLV>
3.30043

>  <SCORE.INTER.VDW>
-20.509

>  <SCORE.INTER.norm>
-2.37133

>  <SCORE.INTRA>
0

>  <SCORE.INTRA.DIHEDRAL>
0

>  <SCORE.INTRA.DIHEDRAL.0>
0

>  <SCORE.INTRA.POLAR>
0

>  <SCORE.INTRA.POLAR.0>
0

>  <SCORE.INTRA.REPUL>
0

>  <SCORE.INTRA.REPUL.0>
0

>  <SCORE.INTRA.SOLV>
0

>  <SCORE.INTRA.SOLV.lig_0>
-4.1818

>  <SCORE.INTRA.VDW>
0

>  <SCORE.INTRA.VDW.0>
0

>  <SCORE.INTRA.norm>
0

>  <SCORE.RESTR>
0

>  <SCORE.RESTR.CAVITY>
0

>  <SCORE.RESTR.norm>
0

>  <SCORE.SYSTEM>
0

>  <SCORE.SYSTEM.CONST>
0

>  <SCORE.SYSTEM.DIHEDRAL>
0

>  <SCORE.SYSTEM.SOLV>
0

>  <SCORE.SYSTEM.norm>
0

>  <SCORE.heavy>
10

>  <SCORE.norm>
-2.37133

>  <RMSD>
1.194

$$$$
ligand
 OpenBabel11021811503D
libRbt.so/2013.1/901 2013/11/27
 10 11  0  0  0  0  0  0  0  0999 V2000
   18.9522   -4.7913    2.4916 N   0  0  0  0  0  0  0  0  0  0  0  0
   17.9000   -5.3440    3.0658 C   0  0  0  0  0  0  0  0  0  0  0  0
   16.8744   -4.5235    3.5472 N   0  0  0  0  0  0  0  0  0  0  0  0
   16.9764   -3.1918    3.4356 C   0  0  0  0  0  0  0  0  0  0  0  0
   18.0427   -2.6402    2.8612 C   0  0  0  0  0  0  0  0  0  0  0  0
   19.0236   -3.3987    2.3777 C   0  0  0  0  0  0  0  0  0  0  0  0
   19.9951   -2.8884    1.8222 O   0  0  0  0  0  0  0  0  0  0  0  0
   17.9161   -1.3193    2.9539 N   0  0  0  0  0  0  0  0  0  0  0  0
   16.7733   -1.0529    3.5785 C   0  0  0  0  0  0  0  0  0  0  0  0
   16.1896   -2.2122    3.8687 N   0  0  0  0  0  0  0  0  0  0  0  0
  1  2  1  0  0  0  0
  1  6  1  0  0  0  0
  2  3  2  0  0  0  0
  3  4  1  0  0  0  0
  4  5  2  0  0  0  0
  4 10  1  0  0  0  0
  5  6  1  0  0  0  0
  5  8  1  0  0  0  0
  6  7  2  0  0  0  0
  8  9  1  0  0  0  0
  9 10  2  0  0  0  0
M  END
>  <CHROM.1>
17.90564541,-3.13330020,2.97766537,0.79884717,-0.49365156,3.11738595

>  <Name>
ligand

>  <RI>
0

>  <Rbt.Current_Directory>
/home/itssahil/PROJECTS/Mol_Feturizer/New_Systems/rnas/4NYD

>  <Rbt.Executable>
rbdock ($Id: //depot/dev/client3/rdock/2013.1/src/exe/rbdock.cxx#4 $)

>  <Rbt.Library>
libRbt.so (2013.1, Build901 2013/11/27)

>  <Rbt.Parameter_File>
/export/apps/rDock/src/rDock_2013.1_src/data/scripts/dock_solv.prm

>  <Rbt.Receptor>
prm/pocket_docking_4.prm

>  <SCORE>
-23.6862

>  <SCORE.INTER>
-23.6862

>  <SCORE.INTER.CONST>
1

>  <SCORE.INTER.POLAR>
0

>  <SCORE.INTER.ROT>
0

>  <SCORE.INTER.SOLV>
3.34085

>  <SCORE.INTER.VDW>
-20.5044

>  <SCORE.INTER.norm>
-2.36862

>  <SCORE.INTRA>
0

>  <SCORE.INTRA.DIHEDRAL>
0

>  <SCORE.INTRA.DIHEDRAL.0>
0

>  <SCORE.INTRA.POLAR>
0

>  <SCORE.INTRA.POLAR.0>
0

>  <SCORE.INTRA.REPUL>
0

>  <SCORE.INTRA.REPUL.0>
0

>  <SCORE.INTRA.SOLV>
0

>  <SCORE.INTRA.SOLV.lig_0>
-4.1818

>  <SCORE.INTRA.VDW>
0

>  <SCORE.INTRA.VDW.0>
0

>  <SCORE.INTRA.norm>
0

>  <SCORE.RESTR>
0

>  <SCORE.RESTR.CAVITY>
0

>  <SCORE.RESTR.norm>
0

>  <SCORE.SYSTEM>
0

>  <SCORE.SYSTEM.CONST>
0

>  <SCORE.SYSTEM.DIHEDRAL>
0

>  <SCORE.SYSTEM.SOLV>
0

>  <SCORE.SYSTEM.norm>
0

>  <SCORE.heavy>
10

>  <SCORE.norm>
-2.36862

>  <RMSD>
1.194

$$$$
ligand
 OpenBabel11021811503D
libRbt.so/2013.1/901 2013/11/27
 10 11  0  0  0  0  0  0  0  0999 V2000
   18.9922   -4.7389    2.5231 N   0  0  0  0  0  0  0  0  0  0  0  0
   17.9682   -5.3102    3.1292 C   0  0  0  0  0  0  0  0  0  0  0  0
   16.9291   -4.5101    3.6162 N   0  0  0  0  0  0  0  0  0  0  0  0
   16.9902   -3.1786    3.4773 C   0  0  0  0  0  0  0  0  0  0  0  0
   18.0283   -2.6079    2.8706 C   0  0  0  0  0  0  0  0  0  0  0  0
   19.0208   -3.3474    2.3814 C   0  0  0  0  0  0  0  0  0  0  0  0
   19.9657   -2.8204    1.7963 O   0  0  0  0  0  0  0  0  0  0  0  0
   17.8652   -1.2896    2.9409 N   0  0  0  0  0  0  0  0  0  0  0  0
   16.7280   -1.0439    3.5838 C   0  0  0  0  0  0  0  0  0  0  0  0
   16.1842   -2.2136    3.9080 N   0  0  0  0  0  0  0  0  0  0  0  0
  1  2  1  0  0  0  0
  1  6  1  0  0  0  0
  2  3  2  0  0  0  0
  3  4  1  0  0  0  0
  4  5  2  0  0  0  0
  4 10  1  0  0  0  0
  5  6  1  0  0  0  0
  5  8  1  0  0  0  0
  6  7  2  0  0  0  0
  8  9  1  0  0  0  0
  9 10  2  0  0  0  0
M  END
>  <CHROM.1>
17.90792658,-3.10238633,2.99919992,0.76497579,-0.51285795,3.08180988

>  <Name>
ligand

>  <RI>
0

>  <Rbt.Current_Directory>
/home/itssahil/PROJECTS/Mol_Feturizer/New_Systems/rnas/4NYD

>  <Rbt.Executable>
rbdock ($Id: //depot/dev/client3/rdock/2013.1/src/exe/rbdock.cxx#4 $)

>  <Rbt.Library>
libRbt.so (2013.1, Build901 2013/11/27)

>  <Rbt.Parameter_File>
/export/apps/rDock/src/rDock_2013.1_src/data/scripts/dock_solv.prm

>  <Rbt.Receptor>
prm/pocket_docking_5.prm

>  <SCORE>
-23.6991

>  <SCORE.INTER>
-23.6991

>  <SCORE.INTER.CONST>
1

>  <SCORE.INTER.POLAR>
0

>  <SCORE.INTER.ROT>
0

>  <SCORE.INTER.SOLV>
3.34559

>  <SCORE.INTER.VDW>
-20.5146

>  <SCORE.INTER.norm>
-2.36991

>  <SCORE.INTRA>
0

>  <SCORE.INTRA.DIHEDRAL>
0

>  <SCORE.INTRA.DIHEDRAL.0>
0

>  <SCORE.INTRA.POLAR>
0

>  <SCORE.INTRA.POLAR.0>
0

>  <SCORE.INTRA.REPUL>
0

>  <SCORE.INTRA.REPUL.0>
0

>  <SCORE.INTRA.SOLV>
0

>  <SCORE.INTRA.SOLV.lig_0>
-4.1818

>  <SCORE.INTRA.VDW>
0

>  <SCORE.INTRA.VDW.0>
0

>  <SCORE.INTRA.norm>
0

>  <SCORE.RESTR>
0

>  <SCORE.RESTR.CAVITY>
0

>  <SCORE.RESTR.norm>
0

>  <SCORE.SYSTEM>
0

>  <SCORE.SYSTEM.CONST>
0

>  <SCORE.SYSTEM.DIHEDRAL>
0

>  <SCORE.SYSTEM.SOLV>
0

>  <SCORE.SYSTEM.norm>
0

>  <SCORE.heavy>
10

>  <SCORE.norm>
-2.36991

>  <RMSD>
1.194

$$$$
ligand
 OpenBabel11021811503D
libRbt.so/2013.1/901 2013/11/27
 10 11  0  0  0  0  0  0  0  0999 V2000
   18.9797   -4.7326    2.4809 N   0  0  0  0  0  0  0  0  0  0  0  0
   17.9654   -5.3111    3.0964 C   0  0  0  0  0  0  0  0  0  0  0  0
   16.9309   -4.5175    3.6033 N   0  0  0  0  0  0  0  0  0  0  0  0
   16.9868   -3.1848    3.4738 C   0  0  0  0  0  0  0  0  0  0  0  0
   18.0152   -2.6068    2.8575 C   0  0  0  0  0  0  0  0  0  0  0  0
   19.0029   -3.3400    2.3494 C   0  0  0  0  0  0  0  0  0  0  0  0
   19.9385   -2.8061    1.7558 O   0  0  0  0  0  0  0  0  0  0  0  0
   17.8498   -1.2896    2.9401 N   0  0  0  0  0  0  0  0  0  0  0  0
   16.7207   -1.0517    3.6000 C   0  0  0  0  0  0  0  0  0  0  0  0
   16.1842   -2.2252    3.9226 N   0  0  0  0  0  0  0  0  0  0  0  0
  1  2  1  0  0  0  0
  1  6  1  0  0  0  0
  2  3  2  0  0  0  0
  3  4  1  0  0  0  0
  4  5  2  0  0  0  0
  4 10  1  0  0  0  0
  5  6  1  0  0  0  0
  5  8  1  0  0  0  0
  6  7  2  0  0  0  0
  8  9  1  0  0  0  0
  9 10  2  0  0  0  0
M  END
>  <CHROM.1>
17.89781850,-3.10258594,2.98398478,0.76116033,-0.52611702,3.08752782

>  <Name>
ligand

>  <RI>
0

>  <Rbt.Current_Directory>
/home/itssahil/PROJECTS/Mol_Feturizer/New_Systems/rnas/4NYD

>  <Rbt.Executable>
rbdock ($Id: //depot/dev/client3/rdock/2013.1/src/exe/rbdock.cxx#4 $)

>  <Rbt.Library>
libRbt.so (2013.1, Build901 2013/11/27)

>  <Rbt.Parameter_File>
/export/apps/rDock/src/rDock_2013.1_src/data/scripts/dock_solv.prm

>  <Rbt.Receptor>
prm/pocket_docking_3.prm

>  <SCORE>
-23.7353

>  <SCORE.INTER>
-23.7353

>  <SCORE.INTER.CONST>
1

>  <SCORE.INTER.POLAR>
0

>  <SCORE.INTER.ROT>
0

>  <SCORE.INTER.SOLV>
3.3455

>  <SCORE.INTER.VDW>
-20.5387

>  <SCORE.INTER.norm>
-2.37353

>  <SCORE.INTRA>
0

>  <SCORE.INTRA.DIHEDRAL>
0

>  <SCORE.INTRA.DIHEDRAL.0>
0

>  <SCORE.INTRA.POLAR>
0

>  <SCORE.INTRA.POLAR.0>
0

>  <SCORE.INTRA.REPUL>
0

>  <SCORE.INTRA.REPUL.0>
0

>  <SCORE.INTRA.SOLV>
0

>  <SCORE.INTRA.SOLV.lig_0>
-4.1818

>  <SCORE.INTRA.VDW>
0

>  <SCORE.INTRA.VDW.0>
0

>  <SCORE.INTRA.norm>
0

>  <SCORE.RESTR>
0

>  <SCORE.RESTR.CAVITY>
0

>  <SCORE.RESTR.norm>
0

>  <SCORE.SYSTEM>
0

>  <SCORE.SYSTEM.CONST>
0

>  <SCORE.SYSTEM.DIHEDRAL>
0

>  <SCORE.SYSTEM.SOLV>
0

>  <SCORE.SYSTEM.norm>
0

>  <SCORE.heavy>
10

>  <SCORE.norm>
-2.37353

>  <RMSD>
1.195

$$$$
ligand
 OpenBabel11021811503D
libRbt.so/2013.1/901 2013/11/27
 10 11  0  0  0  0  0  0  0  0999 V2000
   18.9506   -4.7658    2.5804 N   0  0  0  0  0  0  0  0  0  0  0  0
   17.8721   -5.2808    3.1407 C   0  0  0  0  0  0  0  0  0  0  0  0
   16.8458   -4.4275    3.5596 N   0  0  0  0  0  0  0  0  0  0  0  0
   16.9732   -3.1026    3.4033 C   0  0  0  0  0  0  0  0  0  0  0  0
   18.0657   -2.5888    2.8432 C   0  0  0  0  0  0  0  0  0  0  0  0
   19.0485   -3.3795    2.4187 C   0  0  0  0  0  0  0  0  0  0  0  0
   20.0449   -2.9049    1.8761 O   0  0  0  0  0  0  0  0  0  0  0  0
   17.9581   -1.2636    2.8842 N   0  0  0  0  0  0  0  0  0  0  0  0
   16.8011   -0.9569    3.4624 C   0  0  0  0  0  0  0  0  0  0  0  0
   16.1897   -2.0958    3.7757 N   0  0  0  0  0  0  0  0  0  0  0  0
  1  2  1  0  0  0  0
  1  6  1  0  0  0  0
  2  3  2  0  0  0  0
  3  4  1  0  0  0  0
  4  5  2  0  0  0  0
  4 10  1  0  0  0  0
  5  6  1  0  0  0  0
  5  8  1  0  0  0  0
  6  7  2  0  0  0  0
  8  9  1  0  0  0  0
  9 10  2  0  0  0  0
M  END
>  <CHROM.1>
17.91699039,-3.07515295,2.97309240,0.81814367,-0.46301859,3.08991108

>  <Name>
ligand

>  <RI>
0

>  <Rbt.Current_Directory>
/home/itssahil/PROJECTS/Mol_Feturizer/New_Systems/rnas/4NYD

>  <Rbt.Executable>
rbdock ($Id: //depot/dev/client3/rdock/2013.1/src/exe/rbdock.cxx#4 $)

>  <Rbt.Library>
libRbt.so (2013.1, Build901 2013/11/27)

>  <Rbt.Parameter_File>
/export/apps/rDock/src/rDock_2013.1_src/data/scripts/dock_solv.prm

>  <Rbt.Receptor>
prm/pocket_docking_5.prm

>  <SCORE>
-23.7161

>  <SCORE.INTER>
-23.7161

>  <SCORE.INTER.CONST>
1

>  <SCORE.INTER.POLAR>
0

>  <SCORE.INTER.ROT>
0

>  <SCORE.INTER.SOLV>
3.29492

>  <SCORE.INTER.VDW>
-20.509

>  <SCORE.INTER.norm>
-2.37161

>  <SCORE.INTRA>
0

>  <SCORE.INTRA.DIHEDRAL>
0

>  <SCORE.INTRA.DIHEDRAL.0>
0

>  <SCORE.INTRA.POLAR>
0

>  <SCORE.INTRA.POLAR.0>
0

>  <SCORE.INTRA.REPUL>
0

>  <SCORE.INTRA.REPUL.0>
0

>  <SCORE.INTRA.SOLV>
0

>  <SCORE.INTRA.SOLV.lig_0>
-4.1818

>  <SCORE.INTRA.VDW>
0

>  <SCORE.INTRA.VDW.0>
0

>  <SCORE.INTRA.norm>
0

>  <SCORE.RESTR>
0

>  <SCORE.RESTR.CAVITY>
0

>  <SCORE.RESTR.norm>
0

>  <SCORE.SYSTEM>
0

>  <SCORE.SYSTEM.CONST>
0

>  <SCORE.SYSTEM.DIHEDRAL>
0

>  <SCORE.SYSTEM.SOLV>
0

>  <SCORE.SYSTEM.norm>
0

>  <SCORE.heavy>
10

>  <SCORE.norm>
-2.37161

>  <RMSD>
1.195

$$$$
ligand
 OpenBabel11021811503D
libRbt.so/2013.1/901 2013/11/27
 10 11  0  0  0  0  0  0  0  0999 V2000
   18.9554   -4.7577    2.5536 N   0  0  0  0  0  0  0  0  0  0  0  0
   17.9116   -5.2834    3.1671 C   0  0  0  0  0  0  0  0  0  0  0  0
   16.8945   -4.4412    3.6287 N   0  0  0  0  0  0  0  0  0  0  0  0
   16.9962   -3.1157    3.4585 C   0  0  0  0  0  0  0  0  0  0  0  0
   18.0541   -2.5911    2.8444 C   0  0  0  0  0  0  0  0  0  0  0  0
   19.0265   -3.3714    2.3789 C   0  0  0  0  0  0  0  0  0  0  0  0
   19.9898   -2.8871    1.7871 O   0  0  0  0  0  0  0  0  0  0  0  0
   17.9303   -1.2672    2.8823 N   0  0  0  0  0  0  0  0  0  0  0  0
   16.7976   -0.9722    3.5124 C   0  0  0  0  0  0  0  0  0  0  0  0
   16.2173   -2.1170    3.8612 N   0  0  0  0  0  0  0  0  0  0  0  0
  1  2  1  0  0  0  0
  1  6  1  0  0  0  0
  2  3  2  0  0  0  0
  3  4  1  0  0  0  0
  4  5  2  0  0  0  0
  4 10  1  0  0  0  0
  5  6  1  0  0  0  0
  5  8  1  0  0  0  0
  6  7  2  0  0  0  0
  8  9  1  0  0  0  0
  9 10  2  0  0  0  0
M  END
>  <CHROM.1>
17.91827289,-3.07851358,2.98410852,0.79965139,-0.50917720,3.07481666

>  <Name>
ligand

>  <RI>
0

>  <Rbt.Current_Directory>
/home/itssahil/PROJECTS/Mol_Feturizer/New_Systems/rnas/4NYD

>  <Rbt.Executable>
rbdock ($Id: //depot/dev/client3/rdock/2013.1/src/exe/rbdock.cxx#4 $)

>  <Rbt.Library>
libRbt.so (2013.1, Build901 2013/11/27)

>  <Rbt.Parameter_File>
/export/apps/rDock/src/rDock_2013.1_src/data/scripts/dock_solv.prm

>  <Rbt.Receptor>
prm/pocket_docking_3.prm

>  <SCORE>
-23.668

>  <SCORE.INTER>
-23.668

>  <SCORE.INTER.CONST>
1

>  <SCORE.INTER.POLAR>
0

>  <SCORE.INTER.ROT>
0

>  <SCORE.INTER.SOLV>
3.32522

>  <SCORE.INTER.VDW>
-20.4871

>  <SCORE.INTER.norm>
-2.3668

>  <SCORE.INTRA>
0

>  <SCORE.INTRA.DIHEDRAL>
0

>  <SCORE.INTRA.DIHEDRAL.0>
0

>  <SCORE.INTRA.POLAR>
0

>  <SCORE.INTRA.POLAR.0>
0

>  <SCORE.INTRA.REPUL>
0

>  <SCORE.INTRA.REPUL.0>
0

>  <SCORE.INTRA.SOLV>
0

>  <SCORE.INTRA.SOLV.lig_0>
-4.1818

>  <SCORE.INTRA.VDW>
0

>  <SCORE.INTRA.VDW.0>
0

>  <SCORE.INTRA.norm>
0

>  <SCORE.RESTR>
0

>  <SCORE.RESTR.CAVITY>
0

>  <SCORE.RESTR.norm>
0

>  <SCORE.SYSTEM>
0

>  <SCORE.SYSTEM.CONST>
0

>  <SCORE.SYSTEM.DIHEDRAL>
0

>  <SCORE.SYSTEM.SOLV>
0

>  <SCORE.SYSTEM.norm>
0

>  <SCORE.heavy>
10

>  <SCORE.norm>
-2.3668

>  <RMSD>
1.198

$$$$
ligand
 OpenBabel11021811503D
libRbt.so/2013.1/901 2013/11/27
 10 11  0  0  0  0  0  0  0  0999 V2000
   18.9203   -4.7637    2.4605 N   0  0  0  0  0  0  0  0  0  0  0  0
   17.8651   -5.3077    3.0375 C   0  0  0  0  0  0  0  0  0  0  0  0
   16.8586   -4.4778    3.5427 N   0  0  0  0  0  0  0  0  0  0  0  0
   16.9818   -3.1465    3.4505 C   0  0  0  0  0  0  0  0  0  0  0  0
   18.0510   -2.6037    2.8730 C   0  0  0  0  0  0  0  0  0  0  0  0
   19.0139   -3.3709    2.3672 C   0  0  0  0  0  0  0  0  0  0  0  0
   19.9877   -2.8682    1.8091 O   0  0  0  0  0  0  0  0  0  0  0  0
   17.9475   -1.2825    2.9874 N   0  0  0  0  0  0  0  0  0  0  0  0
   16.8161   -1.0069    3.6284 C   0  0  0  0  0  0  0  0  0  0  0  0
   16.2162   -2.1608    3.9072 N   0  0  0  0  0  0  0  0  0  0  0  0
  1  2  1  0  0  0  0
  1  6  1  0  0  0  0
  2  3  2  0  0  0  0
  3  4  1  0  0  0  0
  4  5  2  0  0  0  0
  4 10  1  0  0  0  0
  5  6  1  0  0  0  0
  5  8  1  0  0  0  0
  6  7  2  0  0  0  0
  8  9  1  0  0  0  0
  9 10  2  0  0  0  0
M  END
>  <CHROM.1>
17.90694338,-3.09628457,2.98337638,0.81770618,-0.50465845,-3.14130447

>  <Name>
ligand

>  <RI>
0

>  <Rbt.Current_Directory>
/home/itssahil/PROJECTS/Mol_Feturizer/New_Systems/rnas/4NYD

>  <Rbt.Executable>
rbdock ($Id: //depot/dev/client3/rdock/2013.1/src/exe/rbdock.cxx#4 $)

>  <Rbt.Library>
libRbt.so (2013.1, Build901 2013/11/27)

>  <Rbt.Parameter_File>
/export/apps/rDock/src/rDock_2013.1_src/data/scripts/dock_solv.prm

>  <Rbt.Receptor>
prm/pocket_docking_5.prm

>  <SCORE>
-23.7225

>  <SCORE.INTER>
-23.7225

>  <SCORE.INTER.CONST>
1

>  <SCORE.INTER.POLAR>
0

>  <SCORE.INTER.ROT>
0

>  <SCORE.INTER.SOLV>
3.37964

>  <SCORE.INTER.VDW>
-20.5416

>  <SCORE.INTER.norm>
-2.37225

>  <SCORE.INTRA>
0

>  <SCORE.INTRA.DIHEDRAL>
0

>  <SCORE.INTRA.DIHEDRAL.0>
0

>  <SCORE.INTRA.POLAR>
0

>  <SCORE.INTRA.POLAR.0>
0

>  <SCORE.INTRA.REPUL>
0

>  <SCORE.INTRA.REPUL.0>
0

>  <SCORE.INTRA.SOLV>
0

>  <SCORE.INTRA.SOLV.lig_0>
-4.1818

>  <SCORE.INTRA.VDW>
0

>  <SCORE.INTRA.VDW.0>
0

>  <SCORE.INTRA.norm>
0

>  <SCORE.RESTR>
0

>  <SCORE.RESTR.CAVITY>
0

>  <SCORE.RESTR.norm>
0

>  <SCORE.SYSTEM>
0

>  <SCORE.SYSTEM.CONST>
0

>  <SCORE.SYSTEM.DIHEDRAL>
0

>  <SCORE.SYSTEM.SOLV>
0

>  <SCORE.SYSTEM.norm>
0

>  <SCORE.heavy>
10

>  <SCORE.norm>
-2.37225

>  <RMSD>
1.198

$$$$
ligand
 OpenBabel11021811503D
libRbt.so/2013.1/901 2013/11/27
 10 11  0  0  0  0  0  0  0  0999 V2000
   18.9732   -4.7837    2.4897 N   0  0  0  0  0  0  0  0  0  0  0  0
   17.9634   -5.3475    3.1260 C   0  0  0  0  0  0  0  0  0  0  0  0
   16.9382   -4.5411    3.6315 N   0  0  0  0  0  0  0  0  0  0  0  0
   16.9984   -3.2109    3.4795 C   0  0  0  0  0  0  0  0  0  0  0  0
   18.0222   -2.6477    2.8423 C   0  0  0  0  0  0  0  0  0  0  0  0
   19.0010   -3.3935    2.3352 C   0  0  0  0  0  0  0  0  0  0  0  0
   19.9320   -2.8736    1.7224 O   0  0  0  0  0  0  0  0  0  0  0  0
   17.8634   -1.3285    2.9051 N   0  0  0  0  0  0  0  0  0  0  0  0
   16.7429   -1.0748    3.5738 C   0  0  0  0  0  0  0  0  0  0  0  0
   16.2051   -2.2405    3.9215 N   0  0  0  0  0  0  0  0  0  0  0  0
  1  2  1  0  0  0  0
  1  6  1  0  0  0  0
  2  3  2  0  0  0  0
  3  4  1  0  0  0  0
  4  5  2  0  0  0  0
  4 10  1  0  0  0  0
  5  6  1  0  0  0  0
  5  8  1  0  0  0  0
  6  7  2  0  0  0  0
  8  9  1  0  0  0  0
  9 10  2  0  0  0  0
M  END
>  <CHROM.1>
17.90414214,-3.14079765,2.97820032,0.76546546,-0.53765426,3.07334925

>  <Name>
ligand

>  <RI>
0

>  <Rbt.Current_Directory>
/home/itssahil/PROJECTS/Mol_Feturizer/New_Systems/rnas/4NYD

>  <Rbt.Executable>
rbdock ($Id: //depot/dev/client3/rdock/2013.1/src/exe/rbdock.cxx#4 $)

>  <Rbt.Library>
libRbt.so (2013.1, Build901 2013/11/27)

>  <Rbt.Parameter_File>
/export/apps/rDock/src/rDock_2013.1_src/data/scripts/dock_solv.prm

>  <Rbt.Receptor>
prm/pocket_docking_6.prm

>  <SCORE>
-23.7129

>  <SCORE.INTER>
-23.7129

>  <SCORE.INTER.CONST>
1

>  <SCORE.INTER.POLAR>
0

>  <SCORE.INTER.ROT>
0

>  <SCORE.INTER.SOLV>
3.33854

>  <SCORE.INTER.VDW>
-20.5214

>  <SCORE.INTER.norm>
-2.37129

>  <SCORE.INTRA>
0

>  <SCORE.INTRA.DIHEDRAL>
0

>  <SCORE.INTRA.DIHEDRAL.0>
0

>  <SCORE.INTRA.POLAR>
0

>  <SCORE.INTRA.POLAR.0>
0

>  <SCORE.INTRA.REPUL>
0

>  <SCORE.INTRA.REPUL.0>
0

>  <SCORE.INTRA.SOLV>
0

>  <SCORE.INTRA.SOLV.lig_0>
-4.1818

>  <SCORE.INTRA.VDW>
0

>  <SCORE.INTRA.VDW.0>
0

>  <SCORE.INTRA.norm>
0

>  <SCORE.RESTR>
0

>  <SCORE.RESTR.CAVITY>
0

>  <SCORE.RESTR.norm>
0

>  <SCORE.SYSTEM>
0

>  <SCORE.SYSTEM.CONST>
0

>  <SCORE.SYSTEM.DIHEDRAL>
0

>  <SCORE.SYSTEM.SOLV>
0

>  <SCORE.SYSTEM.norm>
0

>  <SCORE.heavy>
10

>  <SCORE.norm>
-2.37129

>  <RMSD>
1.198

$$$$
ligand
 OpenBabel11021811503D
libRbt.so/2013.1/901 2013/11/27
 10 11  0  0  0  0  0  0  0  0999 V2000
   18.9314   -4.7645    2.5207 N   0  0  0  0  0  0  0  0  0  0  0  0
   17.8697   -5.2934    3.1000 C   0  0  0  0  0  0  0  0  0  0  0  0
   16.8560   -4.4510    3.5687 N   0  0  0  0  0  0  0  0  0  0  0  0
   16.9788   -3.1226    3.4400 C   0  0  0  0  0  0  0  0  0  0  0  0
   18.0545   -2.5950    2.8605 C   0  0  0  0  0  0  0  0  0  0  0  0
   19.0244   -3.3748    2.3889 C   0  0  0  0  0  0  0  0  0  0  0  0
   20.0046   -2.8869    1.8286 O   0  0  0  0  0  0  0  0  0  0  0  0
   17.9481   -1.2712    2.9357 N   0  0  0  0  0  0  0  0  0  0  0  0
   16.8084   -0.9791    3.5545 C   0  0  0  0  0  0  0  0  0  0  0  0
   16.2065   -2.1254    3.8587 N   0  0  0  0  0  0  0  0  0  0  0  0
  1  2  1  0  0  0  0
  1  6  1  0  0  0  0
  2  3  2  0  0  0  0
  3  4  1  0  0  0  0
  4  5  2  0  0  0  0
  4 10  1  0  0  0  0
  5  6  1  0  0  0  0
  5  8  1  0  0  0  0
  6  7  2  0  0  0  0
  8  9  1  0  0  0  0
  9 10  2  0  0  0  0
M  END
>  <CHROM.1>
17.90962895,-3.08438263,2.98311252,0.81639983,-0.49222414,3.11264548

>  <Name>
ligand

>  <RI>
0

>  <Rbt.Current_Directory>
/home/itssahil/PROJECTS/Mol_Feturizer/New_Systems/rnas/4NYD

>  <Rbt.Executable>
rbdock ($Id: //depot/dev/client3/rdock/2013.1/src/exe/rbdock.cxx#4 $)

>  <Rbt.Library>
libRbt.so (2013.1, Build901 2013/11/27)

>  <Rbt.Parameter_File>
/export/apps/rDock/src/rDock_2013.1_src/data/scripts/dock_solv.prm

>  <Rbt.Receptor>
prm/blind_docking_60.prm

>  <SCORE>
-23.6929

>  <SCORE.INTER>
-23.6929

>  <SCORE.INTER.CONST>
1

>  <SCORE.INTER.POLAR>
0

>  <SCORE.INTER.ROT>
0

>  <SCORE.INTER.SOLV>
3.34773

>  <SCORE.INTER.VDW>
-20.5112

>  <SCORE.INTER.norm>
-2.36929

>  <SCORE.INTRA>
0

>  <SCORE.INTRA.DIHEDRAL>
0

>  <SCORE.INTRA.DIHEDRAL.0>
0

>  <SCORE.INTRA.POLAR>
0

>  <SCORE.INTRA.POLAR.0>
0

>  <SCORE.INTRA.REPUL>
0

>  <SCORE.INTRA.REPUL.0>
0

>  <SCORE.INTRA.SOLV>
0

>  <SCORE.INTRA.SOLV.lig_0>
-4.1818

>  <SCORE.INTRA.VDW>
0

>  <SCORE.INTRA.VDW.0>
0

>  <SCORE.INTRA.norm>
0

>  <SCORE.RESTR>
0

>  <SCORE.RESTR.CAVITY>
0

>  <SCORE.RESTR.norm>
0

>  <SCORE.SYSTEM>
0

>  <SCORE.SYSTEM.CONST>
0

>  <SCORE.SYSTEM.DIHEDRAL>
0

>  <SCORE.SYSTEM.SOLV>
0

>  <SCORE.SYSTEM.norm>
0

>  <SCORE.heavy>
10

>  <SCORE.norm>
-2.36929

>  <RMSD>
1.200

$$$$
ligand
 OpenBabel11021811503D
libRbt.so/2013.1/901 2013/11/27
 10 11  0  0  0  0  0  0  0  0999 V2000
   18.9853   -4.7714    2.5101 N   0  0  0  0  0  0  0  0  0  0  0  0
   17.9766   -5.3397    3.1442 C   0  0  0  0  0  0  0  0  0  0  0  0
   16.9440   -4.5384    3.6426 N   0  0  0  0  0  0  0  0  0  0  0  0
   16.9959   -3.2083    3.4862 C   0  0  0  0  0  0  0  0  0  0  0  0
   18.0186   -2.6405    2.8512 C   0  0  0  0  0  0  0  0  0  0  0  0
   19.0044   -3.3815    2.3508 C   0  0  0  0  0  0  0  0  0  0  0  0
   19.9345   -2.8576    1.7400 O   0  0  0  0  0  0  0  0  0  0  0  0
   17.8507   -1.3223    2.9087 N   0  0  0  0  0  0  0  0  0  0  0  0
   16.7258   -1.0737    3.5719 C   0  0  0  0  0  0  0  0  0  0  0  0
   16.1943   -2.2417    3.9215 N   0  0  0  0  0  0  0  0  0  0  0  0
  1  2  1  0  0  0  0
  1  6  1  0  0  0  0
  2  3  2  0  0  0  0
  3  4  1  0  0  0  0
  4  5  2  0  0  0  0
  4 10  1  0  0  0  0
  5  6  1  0  0  0  0
  5  8  1  0  0  0  0
  6  7  2  0  0  0  0
  8  9  1  0  0  0  0
  9 10  2  0  0  0  0
M  END
>  <CHROM.1>
17.90322928,-3.13394436,2.98837801,0.75805417,-0.53305582,3.06606150

>  <Name>
ligand

>  <RI>
0

>  <Rbt.Current_Directory>
/home/itssahil/PROJECTS/Mol_Feturizer/New_Systems/rnas/4NYD

>  <Rbt.Executable>
rbdock ($Id: //depot/dev/client3/rdock/2013.1/src/exe/rbdock.cxx#4 $)

>  <Rbt.Library>
libRbt.so (2013.1, Build901 2013/11/27)

>  <Rbt.Parameter_File>
/export/apps/rDock/src/rDock_2013.1_src/data/scripts/dock_solv.prm

>  <Rbt.Receptor>
prm/pocket_docking_5.prm

>  <SCORE>
-23.7221

>  <SCORE.INTER>
-23.7221

>  <SCORE.INTER.CONST>
1

>  <SCORE.INTER.POLAR>
0

>  <SCORE.INTER.ROT>
0

>  <SCORE.INTER.SOLV>
3.33941

>  <SCORE.INTER.VDW>
-20.5279

>  <SCORE.INTER.norm>
-2.37221

>  <SCORE.INTRA>
0

>  <SCORE.INTRA.DIHEDRAL>
0

>  <SCORE.INTRA.DIHEDRAL.0>
0

>  <SCORE.INTRA.POLAR>
0

>  <SCORE.INTRA.POLAR.0>
0

>  <SCORE.INTRA.REPUL>
0

>  <SCORE.INTRA.REPUL.0>
0

>  <SCORE.INTRA.SOLV>
0

>  <SCORE.INTRA.SOLV.lig_0>
-4.1818

>  <SCORE.INTRA.VDW>
0

>  <SCORE.INTRA.VDW.0>
0

>  <SCORE.INTRA.norm>
0

>  <SCORE.RESTR>
0

>  <SCORE.RESTR.CAVITY>
0

>  <SCORE.RESTR.norm>
0

>  <SCORE.SYSTEM>
0

>  <SCORE.SYSTEM.CONST>
0

>  <SCORE.SYSTEM.DIHEDRAL>
0

>  <SCORE.SYSTEM.SOLV>
0

>  <SCORE.SYSTEM.norm>
0

>  <SCORE.heavy>
10

>  <SCORE.norm>
-2.37221

>  <RMSD>
1.200

$$$$
ligand
 OpenBabel11021811503D
libRbt.so/2013.1/901 2013/11/27
 10 11  0  0  0  0  0  0  0  0999 V2000
   18.9577   -4.7136    2.5704 N   0  0  0  0  0  0  0  0  0  0  0  0
   17.8849   -5.2502    3.1212 C   0  0  0  0  0  0  0  0  0  0  0  0
   16.8533   -4.4153    3.5633 N   0  0  0  0  0  0  0  0  0  0  0  0
   16.9700   -3.0860    3.4384 C   0  0  0  0  0  0  0  0  0  0  0  0
   18.0569   -2.5504    2.8877 C   0  0  0  0  0  0  0  0  0  0  0  0
   19.0444   -3.3231    2.4415 C   0  0  0  0  0  0  0  0  0  0  0  0
   20.0355   -2.8279    1.9076 O   0  0  0  0  0  0  0  0  0  0  0  0
   17.9391   -1.2275    2.9606 N   0  0  0  0  0  0  0  0  0  0  0  0
   16.7815   -0.9438    3.5492 C   0  0  0  0  0  0  0  0  0  0  0  0
   16.1798   -2.0945    3.8369 N   0  0  0  0  0  0  0  0  0  0  0  0
  1  2  1  0  0  0  0
  1  6  1  0  0  0  0
  2  3  2  0  0  0  0
  3  4  1  0  0  0  0
  4  5  2  0  0  0  0
  4 10  1  0  0  0  0
  5  6  1  0  0  0  0
  5  8  1  0  0  0  0
  6  7  2  0  0  0  0
  8  9  1  0  0  0  0
  9 10  2  0  0  0  0
M  END
>  <CHROM.1>
17.91225201,-3.04093251,3.00624686,0.80932869,-0.46558860,3.10987915

>  <Name>
ligand

>  <RI>
0

>  <Rbt.Current_Directory>
/home/itssahil/PROJECTS/Mol_Feturizer/New_Systems/rnas/4NYD

>  <Rbt.Executable>
rbdock ($Id: //depot/dev/client3/rdock/2013.1/src/exe/rbdock.cxx#4 $)

>  <Rbt.Library>
libRbt.so (2013.1, Build901 2013/11/27)

>  <Rbt.Parameter_File>
/export/apps/rDock/src/rDock_2013.1_src/data/scripts/dock_solv.prm

>  <Rbt.Receptor>
prm/pocket_docking_7.prm

>  <SCORE>
-23.6966

>  <SCORE.INTER>
-23.6966

>  <SCORE.INTER.CONST>
1

>  <SCORE.INTER.POLAR>
0

>  <SCORE.INTER.ROT>
0

>  <SCORE.INTER.SOLV>
3.35281

>  <SCORE.INTER.VDW>
-20.5153

>  <SCORE.INTER.norm>
-2.36966

>  <SCORE.INTRA>
0

>  <SCORE.INTRA.DIHEDRAL>
0

>  <SCORE.INTRA.DIHEDRAL.0>
0

>  <SCORE.INTRA.POLAR>
0

>  <SCORE.INTRA.POLAR.0>
0

>  <SCORE.INTRA.REPUL>
0

>  <SCORE.INTRA.REPUL.0>
0

>  <SCORE.INTRA.SOLV>
0

>  <SCORE.INTRA.SOLV.lig_0>
-4.1818

>  <SCORE.INTRA.VDW>
0

>  <SCORE.INTRA.VDW.0>
0

>  <SCORE.INTRA.norm>
0

>  <SCORE.RESTR>
0

>  <SCORE.RESTR.CAVITY>
0

>  <SCORE.RESTR.norm>
0

>  <SCORE.SYSTEM>
0

>  <SCORE.SYSTEM.CONST>
0

>  <SCORE.SYSTEM.DIHEDRAL>
0

>  <SCORE.SYSTEM.SOLV>
0

>  <SCORE.SYSTEM.norm>
0

>  <SCORE.heavy>
10

>  <SCORE.norm>
-2.36966

>  <RMSD>
1.200

$$$$
ligand
 OpenBabel11021811503D
libRbt.so/2013.1/901 2013/11/27
 10 11  0  0  0  0  0  0  0  0999 V2000
   18.9865   -4.7604    2.5320 N   0  0  0  0  0  0  0  0  0  0  0  0
   17.9645   -5.3270    3.1459 C   0  0  0  0  0  0  0  0  0  0  0  0
   16.9294   -4.5228    3.6346 N   0  0  0  0  0  0  0  0  0  0  0  0
   16.9924   -3.1919    3.4894 C   0  0  0  0  0  0  0  0  0  0  0  0
   18.0284   -2.6260    2.8748 C   0  0  0  0  0  0  0  0  0  0  0  0
   19.0171   -3.3695    2.3840 C   0  0  0  0  0  0  0  0  0  0  0  0
   19.9599   -2.8470    1.7918 O   0  0  0  0  0  0  0  0  0  0  0  0
   17.8682   -1.3071    2.9400 N   0  0  0  0  0  0  0  0  0  0  0  0
   16.7347   -1.0563    3.5876 C   0  0  0  0  0  0  0  0  0  0  0  0
   16.1904   -2.2235    3.9198 N   0  0  0  0  0  0  0  0  0  0  0  0
  1  2  1  0  0  0  0
  1  6  1  0  0  0  0
  2  3  2  0  0  0  0
  3  4  1  0  0  0  0
  4  5  2  0  0  0  0
  4 10  1  0  0  0  0
  5  6  1  0  0  0  0
  5  8  1  0  0  0  0
  6  7  2  0  0  0  0
  8  9  1  0  0  0  0
  9 10  2  0  0  0  0
M  END
>  <CHROM.1>
17.90778198,-3.11966799,3.00629351,0.76680997,-0.51802391,3.07823079

>  <Name>
ligand

>  <RI>
0

>  <Rbt.Current_Directory>
/home/itssahil/PROJECTS/Mol_Feturizer/New_Systems/rnas/4NYD

>  <Rbt.Executable>
rbdock ($Id: //depot/dev/client3/rdock/2013.1/src/exe/rbdock.cxx#4 $)

>  <Rbt.Library>
libRbt.so (2013.1, Build901 2013/11/27)

>  <Rbt.Parameter_File>
/export/apps/rDock/src/rDock_2013.1_src/data/scripts/dock_solv.prm

>  <Rbt.Receptor>
prm/pocket_docking_7.prm

>  <SCORE>
-23.6927

>  <SCORE.INTER>
-23.6927

>  <SCORE.INTER.CONST>
1

>  <SCORE.INTER.POLAR>
0

>  <SCORE.INTER.ROT>
0

>  <SCORE.INTER.SOLV>
3.35438

>  <SCORE.INTER.VDW>
-20.5133

>  <SCORE.INTER.norm>
-2.36927

>  <SCORE.INTRA>
0

>  <SCORE.INTRA.DIHEDRAL>
0

>  <SCORE.INTRA.DIHEDRAL.0>
0

>  <SCORE.INTRA.POLAR>
0

>  <SCORE.INTRA.POLAR.0>
0

>  <SCORE.INTRA.REPUL>
0

>  <SCORE.INTRA.REPUL.0>
0

>  <SCORE.INTRA.SOLV>
0

>  <SCORE.INTRA.SOLV.lig_0>
-4.1818

>  <SCORE.INTRA.VDW>
0

>  <SCORE.INTRA.VDW.0>
0

>  <SCORE.INTRA.norm>
0

>  <SCORE.RESTR>
0

>  <SCORE.RESTR.CAVITY>
0

>  <SCORE.RESTR.norm>
0

>  <SCORE.SYSTEM>
0

>  <SCORE.SYSTEM.CONST>
0

>  <SCORE.SYSTEM.DIHEDRAL>
0

>  <SCORE.SYSTEM.SOLV>
0

>  <SCORE.SYSTEM.norm>
0

>  <SCORE.heavy>
10

>  <SCORE.norm>
-2.36927

>  <RMSD>
1.200

$$$$
ligand
 OpenBabel11021811503D
libRbt.so/2013.1/901 2013/11/27
 10 11  0  0  0  0  0  0  0  0999 V2000
   18.9695   -4.7559    2.5454 N   0  0  0  0  0  0  0  0  0  0  0  0
   17.9388   -5.3000    3.1650 C   0  0  0  0  0  0  0  0  0  0  0  0
   16.9131   -4.4754    3.6391 N   0  0  0  0  0  0  0  0  0  0  0  0
   16.9937   -3.1477    3.4746 C   0  0  0  0  0  0  0  0  0  0  0  0
   18.0384   -2.6044    2.8544 C   0  0  0  0  0  0  0  0  0  0  0  0
   19.0185   -3.3679    2.3770 C   0  0  0  0  0  0  0  0  0  0  0  0
   19.9694   -2.8665    1.7796 O   0  0  0  0  0  0  0  0  0  0  0  0
   17.8953   -1.2828    2.8997 N   0  0  0  0  0  0  0  0  0  0  0  0
   16.7636   -1.0077    3.5407 C   0  0  0  0  0  0  0  0  0  0  0  0
   16.2033   -2.1627    3.8886 N   0  0  0  0  0  0  0  0  0  0  0  0
  1  2  1  0  0  0  0
  1  6  1  0  0  0  0
  2  3  2  0  0  0  0
  3  4  1  0  0  0  0
  4  5  2  0  0  0  0
  4 10  1  0  0  0  0
  5  6  1  0  0  0  0
  5  8  1  0  0  0  0
  6  7  2  0  0  0  0
  8  9  1  0  0  0  0
  9 10  2  0  0  0  0
M  END
>  <CHROM.1>
17.91108327,-3.09449863,2.99275942,0.78191093,-0.51646526,3.07096086

>  <Name>
ligand

>  <RI>
0

>  <Rbt.Current_Directory>
/home/itssahil/PROJECTS/Mol_Feturizer/New_Systems/rnas/4NYD

>  <Rbt.Executable>
rbdock ($Id: //depot/dev/client3/rdock/2013.1/src/exe/rbdock.cxx#4 $)

>  <Rbt.Library>
libRbt.so (2013.1, Build901 2013/11/27)

>  <Rbt.Parameter_File>
/export/apps/rDock/src/rDock_2013.1_src/data/scripts/dock_solv.prm

>  <Rbt.Receptor>
prm/pocket_docking_8.prm

>  <SCORE>
-23.6571

>  <SCORE.INTER>
-23.6571

>  <SCORE.INTER.CONST>
1

>  <SCORE.INTER.POLAR>
0

>  <SCORE.INTER.ROT>
0

>  <SCORE.INTER.SOLV>
3.33537

>  <SCORE.INTER.VDW>
-20.4832

>  <SCORE.INTER.norm>
-2.36571

>  <SCORE.INTRA>
0

>  <SCORE.INTRA.DIHEDRAL>
0

>  <SCORE.INTRA.DIHEDRAL.0>
0

>  <SCORE.INTRA.POLAR>
0

>  <SCORE.INTRA.POLAR.0>
0

>  <SCORE.INTRA.REPUL>
0

>  <SCORE.INTRA.REPUL.0>
0

>  <SCORE.INTRA.SOLV>
0

>  <SCORE.INTRA.SOLV.lig_0>
-4.1818

>  <SCORE.INTRA.VDW>
0

>  <SCORE.INTRA.VDW.0>
0

>  <SCORE.INTRA.norm>
0

>  <SCORE.RESTR>
0

>  <SCORE.RESTR.CAVITY>
0

>  <SCORE.RESTR.norm>
0

>  <SCORE.SYSTEM>
0

>  <SCORE.SYSTEM.CONST>
0

>  <SCORE.SYSTEM.DIHEDRAL>
0

>  <SCORE.SYSTEM.SOLV>
0

>  <SCORE.SYSTEM.norm>
0

>  <SCORE.heavy>
10

>  <SCORE.norm>
-2.36571

>  <RMSD>
1.200

$$$$
ligand
 OpenBabel11021811503D
libRbt.so/2013.1/901 2013/11/27
 10 11  0  0  0  0  0  0  0  0999 V2000
   18.9281   -4.7701    2.5489 N   0  0  0  0  0  0  0  0  0  0  0  0
   17.8639   -5.2805    3.1400 C   0  0  0  0  0  0  0  0  0  0  0  0
   16.8553   -4.4226    3.5913 N   0  0  0  0  0  0  0  0  0  0  0  0
   16.9855   -3.0980    3.4342 C   0  0  0  0  0  0  0  0  0  0  0  0
   18.0637   -2.5889    2.8429 C   0  0  0  0  0  0  0  0  0  0  0  0
   19.0289   -3.3841    2.3874 C   0  0  0  0  0  0  0  0  0  0  0  0
   20.0113   -2.9137    1.8163 O   0  0  0  0  0  0  0  0  0  0  0  0
   17.9647   -1.2633    2.8900 N   0  0  0  0  0  0  0  0  0  0  0  0
   16.8272   -0.9516    3.5032 C   0  0  0  0  0  0  0  0  0  0  0  0
   16.2190   -2.0878    3.8321 N   0  0  0  0  0  0  0  0  0  0  0  0
  1  2  1  0  0  0  0
  1  6  1  0  0  0  0
  2  3  2  0  0  0  0
  3  4  1  0  0  0  0
  4  5  2  0  0  0  0
  4 10  1  0  0  0  0
  5  6  1  0  0  0  0
  5  8  1  0  0  0  0
  6  7  2  0  0  0  0
  8  9  1  0  0  0  0
  9 10  2  0  0  0  0
M  END
>  <CHROM.1>
17.91613980,-3.07478486,2.97603337,0.82273016,-0.49312458,3.09433019

>  <Name>
ligand

>  <RI>
0

>  <Rbt.Current_Directory>
/home/itssahil/PROJECTS/Mol_Feturizer/New_Systems/rnas/4NYD

>  <Rbt.Executable>
rbdock ($Id: //depot/dev/client3/rdock/2013.1/src/exe/rbdock.cxx#4 $)

>  <Rbt.Library>
libRbt.so (2013.1, Build901 2013/11/27)

>  <Rbt.Parameter_File>
/export/apps/rDock/src/rDock_2013.1_src/data/scripts/dock_solv.prm

>  <Rbt.Receptor>
prm/blind_docking_40.prm

>  <SCORE>
-23.6956

>  <SCORE.INTER>
-23.6956

>  <SCORE.INTER.CONST>
1

>  <SCORE.INTER.POLAR>
0

>  <SCORE.INTER.ROT>
0

>  <SCORE.INTER.SOLV>
3.32588

>  <SCORE.INTER.VDW>
-20.5057

>  <SCORE.INTER.norm>
-2.36956

>  <SCORE.INTRA>
0

>  <SCORE.INTRA.DIHEDRAL>
0

>  <SCORE.INTRA.DIHEDRAL.0>
0

>  <SCORE.INTRA.POLAR>
0

>  <SCORE.INTRA.POLAR.0>
0

>  <SCORE.INTRA.REPUL>
0

>  <SCORE.INTRA.REPUL.0>
0

>  <SCORE.INTRA.SOLV>
0

>  <SCORE.INTRA.SOLV.lig_0>
-4.1818

>  <SCORE.INTRA.VDW>
0

>  <SCORE.INTRA.VDW.0>
0

>  <SCORE.INTRA.norm>
0

>  <SCORE.RESTR>
0

>  <SCORE.RESTR.CAVITY>
0

>  <SCORE.RESTR.norm>
0

>  <SCORE.SYSTEM>
0

>  <SCORE.SYSTEM.CONST>
0

>  <SCORE.SYSTEM.DIHEDRAL>
0

>  <SCORE.SYSTEM.SOLV>
0

>  <SCORE.SYSTEM.norm>
0

>  <SCORE.heavy>
10

>  <SCORE.norm>
-2.36956

>  <RMSD>
1.201

$$$$
ligand
 OpenBabel11021811503D
libRbt.so/2013.1/901 2013/11/27
 10 11  0  0  0  0  0  0  0  0999 V2000
   18.9404   -4.7690    2.5598 N   0  0  0  0  0  0  0  0  0  0  0  0
   17.8692   -5.2899    3.1286 C   0  0  0  0  0  0  0  0  0  0  0  0
   16.8448   -4.4417    3.5623 N   0  0  0  0  0  0  0  0  0  0  0  0
   16.9667   -3.1157    3.4111 C   0  0  0  0  0  0  0  0  0  0  0  0
   18.0519   -2.5959    2.8423 C   0  0  0  0  0  0  0  0  0  0  0  0
   19.0325   -3.3817    2.4038 C   0  0  0  0  0  0  0  0  0  0  0  0
   20.0219   -2.9015    1.8532 O   0  0  0  0  0  0  0  0  0  0  0  0
   17.9408   -1.2713    2.8908 N   0  0  0  0  0  0  0  0  0  0  0  0
   16.7889   -0.9709    3.4824 C   0  0  0  0  0  0  0  0  0  0  0  0
   16.1841   -2.1130    3.7965 N   0  0  0  0  0  0  0  0  0  0  0  0
  1  2  1  0  0  0  0
  1  6  1  0  0  0  0
  2  3  2  0  0  0  0
  3  4  1  0  0  0  0
  4  5  2  0  0  0  0
  4 10  1  0  0  0  0
  5  6  1  0  0  0  0
  5  8  1  0  0  0  0
  6  7  2  0  0  0  0
  8  9  1  0  0  0  0
  9 10  2  0  0  0  0
M  END
>  <CHROM.1>
17.90592679,-3.08334955,2.97129025,0.81426813,-0.47317853,3.09300878

>  <Name>
ligand

>  <RI>
0

>  <Rbt.Current_Directory>
/home/itssahil/PROJECTS/Mol_Feturizer/New_Systems/rnas/4NYD

>  <Rbt.Executable>
rbdock ($Id: //depot/dev/client3/rdock/2013.1/src/exe/rbdock.cxx#4 $)

>  <Rbt.Library>
libRbt.so (2013.1, Build901 2013/11/27)

>  <Rbt.Parameter_File>
/export/apps/rDock/src/rDock_2013.1_src/data/scripts/dock_solv.prm

>  <Rbt.Receptor>
prm/blind_docking_40.prm

>  <SCORE>
-23.715

>  <SCORE.INTER>
-23.715

>  <SCORE.INTER.CONST>
1

>  <SCORE.INTER.POLAR>
0

>  <SCORE.INTER.ROT>
0

>  <SCORE.INTER.SOLV>
3.30268

>  <SCORE.INTER.VDW>
-20.5109

>  <SCORE.INTER.norm>
-2.3715

>  <SCORE.INTRA>
0

>  <SCORE.INTRA.DIHEDRAL>
0

>  <SCORE.INTRA.DIHEDRAL.0>
0

>  <SCORE.INTRA.POLAR>
0

>  <SCORE.INTRA.POLAR.0>
0

>  <SCORE.INTRA.REPUL>
0

>  <SCORE.INTRA.REPUL.0>
0

>  <SCORE.INTRA.SOLV>
0

>  <SCORE.INTRA.SOLV.lig_0>
-4.1818

>  <SCORE.INTRA.VDW>
0

>  <SCORE.INTRA.VDW.0>
0

>  <SCORE.INTRA.norm>
0

>  <SCORE.RESTR>
0

>  <SCORE.RESTR.CAVITY>
0

>  <SCORE.RESTR.norm>
0

>  <SCORE.SYSTEM>
0

>  <SCORE.SYSTEM.CONST>
0

>  <SCORE.SYSTEM.DIHEDRAL>
0

>  <SCORE.SYSTEM.SOLV>
0

>  <SCORE.SYSTEM.norm>
0

>  <SCORE.heavy>
10

>  <SCORE.norm>
-2.3715

>  <RMSD>
1.202

$$$$
ligand
 OpenBabel11021811503D
libRbt.so/2013.1/901 2013/11/27
 10 11  0  0  0  0  0  0  0  0999 V2000
   18.9747   -4.7851    2.4990 N   0  0  0  0  0  0  0  0  0  0  0  0
   17.9675   -5.3481    3.1400 C   0  0  0  0  0  0  0  0  0  0  0  0
   16.9409   -4.5417    3.6427 N   0  0  0  0  0  0  0  0  0  0  0  0
   16.9972   -3.2122    3.4834 C   0  0  0  0  0  0  0  0  0  0  0  0
   18.0184   -2.6498    2.8414 C   0  0  0  0  0  0  0  0  0  0  0  0
   18.9984   -3.3957    2.3368 C   0  0  0  0  0  0  0  0  0  0  0  0
   19.9270   -2.8766    1.7196 O   0  0  0  0  0  0  0  0  0  0  0  0
   17.8562   -1.3307    2.8972 N   0  0  0  0  0  0  0  0  0  0  0  0
   16.7360   -1.0764    3.5664 C   0  0  0  0  0  0  0  0  0  0  0  0
   16.2020   -2.2416    3.9214 N   0  0  0  0  0  0  0  0  0  0  0  0
  1  2  1  0  0  0  0
  1  6  1  0  0  0  0
  2  3  2  0  0  0  0
  3  4  1  0  0  0  0
  4  5  2  0  0  0  0
  4 10  1  0  0  0  0
  5  6  1  0  0  0  0
  5  8  1  0  0  0  0
  6  7  2  0  0  0  0
  8  9  1  0  0  0  0
  9 10  2  0  0  0  0
M  END
>  <CHROM.1>
17.90192759,-3.14244337,2.98020060,0.76215550,-0.53911137,3.06616475

>  <Name>
ligand

>  <RI>
0

>  <Rbt.Current_Directory>
/home/itssahil/PROJECTS/Mol_Feturizer/New_Systems/rnas/4NYD

>  <Rbt.Executable>
rbdock ($Id: //depot/dev/client3/rdock/2013.1/src/exe/rbdock.cxx#4 $)

>  <Rbt.Library>
libRbt.so (2013.1, Build901 2013/11/27)

>  <Rbt.Parameter_File>
/export/apps/rDock/src/rDock_2013.1_src/data/scripts/dock_solv.prm

>  <Rbt.Receptor>
prm/blind_docking_40.prm

>  <SCORE>
-23.7132

>  <SCORE.INTER>
-23.7132

>  <SCORE.INTER.CONST>
1

>  <SCORE.INTER.POLAR>
0

>  <SCORE.INTER.ROT>
0

>  <SCORE.INTER.SOLV>
3.33649

>  <SCORE.INTER.VDW>
-20.521

>  <SCORE.INTER.norm>
-2.37132

>  <SCORE.INTRA>
0

>  <SCORE.INTRA.DIHEDRAL>
0

>  <SCORE.INTRA.DIHEDRAL.0>
0

>  <SCORE.INTRA.POLAR>
0

>  <SCORE.INTRA.POLAR.0>
0

>  <SCORE.INTRA.REPUL>
0

>  <SCORE.INTRA.REPUL.0>
0

>  <SCORE.INTRA.SOLV>
0

>  <SCORE.INTRA.SOLV.lig_0>
-4.1818

>  <SCORE.INTRA.VDW>
0

>  <SCORE.INTRA.VDW.0>
0

>  <SCORE.INTRA.norm>
0

>  <SCORE.RESTR>
0

>  <SCORE.RESTR.CAVITY>
0

>  <SCORE.RESTR.norm>
0

>  <SCORE.SYSTEM>
0

>  <SCORE.SYSTEM.CONST>
0

>  <SCORE.SYSTEM.DIHEDRAL>
0

>  <SCORE.SYSTEM.SOLV>
0

>  <SCORE.SYSTEM.norm>
0

>  <SCORE.heavy>
10

>  <SCORE.norm>
-2.37132

>  <RMSD>
1.202

$$$$
ligand
 OpenBabel11021811503D
libRbt.so/2013.1/901 2013/11/27
 10 11  0  0  0  0  0  0  0  0999 V2000
   18.9257   -4.7774    2.5514 N   0  0  0  0  0  0  0  0  0  0  0  0
   17.8613   -5.2838    3.1455 C   0  0  0  0  0  0  0  0  0  0  0  0
   16.8544   -4.4226    3.5941 N   0  0  0  0  0  0  0  0  0  0  0  0
   16.9863   -3.0989    3.4315 C   0  0  0  0  0  0  0  0  0  0  0  0
   18.0647   -2.5937    2.8372 C   0  0  0  0  0  0  0  0  0  0  0  0
   19.0283   -3.3921    2.3842 C   0  0  0  0  0  0  0  0  0  0  0  0
   20.0110   -2.9255    1.8103 O   0  0  0  0  0  0  0  0  0  0  0  0
   17.9677   -1.2678    2.8790 N   0  0  0  0  0  0  0  0  0  0  0  0
   16.8311   -0.9520    3.4918 C   0  0  0  0  0  0  0  0  0  0  0  0
   16.2216   -2.0859    3.8259 N   0  0  0  0  0  0  0  0  0  0  0  0
  1  2  1  0  0  0  0
  1  6  1  0  0  0  0
  2  3  2  0  0  0  0
  3  4  1  0  0  0  0
  4  5  2  0  0  0  0
  4 10  1  0  0  0  0
  5  6  1  0  0  0  0
  5  8  1  0  0  0  0
  6  7  2  0  0  0  0
  8  9  1  0  0  0  0
  9 10  2  0  0  0  0
M  END
>  <CHROM.1>
17.91656622,-3.07883595,2.97246298,0.82431010,-0.49404568,3.09099165

>  <Name>
ligand

>  <RI>
0

>  <Rbt.Current_Directory>
/home/itssahil/PROJECTS/Mol_Feturizer/New_Systems/rnas/4NYD

>  <Rbt.Executable>
rbdock ($Id: //depot/dev/client3/rdock/2013.1/src/exe/rbdock.cxx#4 $)

>  <Rbt.Library>
libRbt.so (2013.1, Build901 2013/11/27)

>  <Rbt.Parameter_File>
/export/apps/rDock/src/rDock_2013.1_src/data/scripts/dock_solv.prm

>  <Rbt.Receptor>
prm/pocket_docking_3.prm

>  <SCORE>
-23.6956

>  <SCORE.INTER>
-23.6956

>  <SCORE.INTER.CONST>
1

>  <SCORE.INTER.POLAR>
0

>  <SCORE.INTER.ROT>
0

>  <SCORE.INTER.SOLV>
3.31881

>  <SCORE.INTER.VDW>
-20.5034

>  <SCORE.INTER.norm>
-2.36956

>  <SCORE.INTRA>
0

>  <SCORE.INTRA.DIHEDRAL>
0

>  <SCORE.INTRA.DIHEDRAL.0>
0

>  <SCORE.INTRA.POLAR>
0

>  <SCORE.INTRA.POLAR.0>
0

>  <SCORE.INTRA.REPUL>
0

>  <SCORE.INTRA.REPUL.0>
0

>  <SCORE.INTRA.SOLV>
0

>  <SCORE.INTRA.SOLV.lig_0>
-4.1818

>  <SCORE.INTRA.VDW>
0

>  <SCORE.INTRA.VDW.0>
0

>  <SCORE.INTRA.norm>
0

>  <SCORE.RESTR>
0

>  <SCORE.RESTR.CAVITY>
0

>  <SCORE.RESTR.norm>
0

>  <SCORE.SYSTEM>
0

>  <SCORE.SYSTEM.CONST>
0

>  <SCORE.SYSTEM.DIHEDRAL>
0

>  <SCORE.SYSTEM.SOLV>
0

>  <SCORE.SYSTEM.norm>
0

>  <SCORE.heavy>
10

>  <SCORE.norm>
-2.36956

>  <RMSD>
1.202

$$$$
ligand
 OpenBabel11021811503D
libRbt.so/2013.1/901 2013/11/27
 10 11  0  0  0  0  0  0  0  0999 V2000
   18.9677   -4.7867    2.5067 N   0  0  0  0  0  0  0  0  0  0  0  0
   17.9544   -5.3407    3.1458 C   0  0  0  0  0  0  0  0  0  0  0  0
   16.9314   -4.5257    3.6420 N   0  0  0  0  0  0  0  0  0  0  0  0
   16.9973   -3.1972    3.4783 C   0  0  0  0  0  0  0  0  0  0  0  0
   18.0247   -2.6438    2.8383 C   0  0  0  0  0  0  0  0  0  0  0  0
   19.0015   -3.3981    2.3399 C   0  0  0  0  0  0  0  0  0  0  0  0
   19.9359   -2.8874    1.7244 O   0  0  0  0  0  0  0  0  0  0  0  0
   17.8712   -1.3235    2.8890 N   0  0  0  0  0  0  0  0  0  0  0  0
   16.7503   -1.0593    3.5530 C   0  0  0  0  0  0  0  0  0  0  0  0
   16.2070   -2.2197    3.9100 N   0  0  0  0  0  0  0  0  0  0  0  0
  1  2  1  0  0  0  0
  1  6  1  0  0  0  0
  2  3  2  0  0  0  0
  3  4  1  0  0  0  0
  4  5  2  0  0  0  0
  4 10  1  0  0  0  0
  5  6  1  0  0  0  0
  5  8  1  0  0  0  0
  6  7  2  0  0  0  0
  8  9  1  0  0  0  0
  9 10  2  0  0  0  0
M  END
>  <CHROM.1>
17.90434983,-3.13522580,2.97828390,0.77033984,-0.53587535,3.06694253

>  <Name>
ligand

>  <RI>
0

>  <Rbt.Current_Directory>
/home/itssahil/PROJECTS/Mol_Feturizer/New_Systems/rnas/4NYD

>  <Rbt.Executable>
rbdock ($Id: //depot/dev/client3/rdock/2013.1/src/exe/rbdock.cxx#4 $)

>  <Rbt.Library>
libRbt.so (2013.1, Build901 2013/11/27)

>  <Rbt.Parameter_File>
/export/apps/rDock/src/rDock_2013.1_src/data/scripts/dock_solv.prm

>  <Rbt.Receptor>
prm/pocket_docking_3.prm

>  <SCORE>
-23.6894

>  <SCORE.INTER>
-23.6894

>  <SCORE.INTER.CONST>
1

>  <SCORE.INTER.POLAR>
0

>  <SCORE.INTER.ROT>
0

>  <SCORE.INTER.SOLV>
3.33086

>  <SCORE.INTER.VDW>
-20.5032

>  <SCORE.INTER.norm>
-2.36894

>  <SCORE.INTRA>
0

>  <SCORE.INTRA.DIHEDRAL>
0

>  <SCORE.INTRA.DIHEDRAL.0>
0

>  <SCORE.INTRA.POLAR>
0

>  <SCORE.INTRA.POLAR.0>
0

>  <SCORE.INTRA.REPUL>
0

>  <SCORE.INTRA.REPUL.0>
0

>  <SCORE.INTRA.SOLV>
0

>  <SCORE.INTRA.SOLV.lig_0>
-4.1818

>  <SCORE.INTRA.VDW>
0

>  <SCORE.INTRA.VDW.0>
0

>  <SCORE.INTRA.norm>
0

>  <SCORE.RESTR>
0

>  <SCORE.RESTR.CAVITY>
0

>  <SCORE.RESTR.norm>
0

>  <SCORE.SYSTEM>
0

>  <SCORE.SYSTEM.CONST>
0

>  <SCORE.SYSTEM.DIHEDRAL>
0

>  <SCORE.SYSTEM.SOLV>
0

>  <SCORE.SYSTEM.norm>
0

>  <SCORE.heavy>
10

>  <SCORE.norm>
-2.36894

>  <RMSD>
1.202

$$$$
ligand
 OpenBabel11021811503D
libRbt.so/2013.1/901 2013/11/27
 10 11  0  0  0  0  0  0  0  0999 V2000
   19.0012   -4.7104    2.5379 N   0  0  0  0  0  0  0  0  0  0  0  0
   17.9848   -5.2910    3.1480 C   0  0  0  0  0  0  0  0  0  0  0  0
   16.9366   -4.5012    3.6322 N   0  0  0  0  0  0  0  0  0  0  0  0
   16.9814   -3.1697    3.4866 C   0  0  0  0  0  0  0  0  0  0  0  0
   18.0118   -2.5895    2.8759 C   0  0  0  0  0  0  0  0  0  0  0  0
   19.0128   -3.3193    2.3893 C   0  0  0  0  0  0  0  0  0  0  0  0
   19.9506   -2.7839    1.8006 O   0  0  0  0  0  0  0  0  0  0  0  0
   17.8329   -1.2730    2.9399 N   0  0  0  0  0  0  0  0  0  0  0  0
   16.6934   -1.0378    3.5828 C   0  0  0  0  0  0  0  0  0  0  0  0
   16.1642   -2.2124    3.9134 N   0  0  0  0  0  0  0  0  0  0  0  0
  1  2  1  0  0  0  0
  1  6  1  0  0  0  0
  2  3  2  0  0  0  0
  3  4  1  0  0  0  0
  4  5  2  0  0  0  0
  4 10  1  0  0  0  0
  5  6  1  0  0  0  0
  5  8  1  0  0  0  0
  6  7  2  0  0  0  0
  8  9  1  0  0  0  0
  9 10  2  0  0  0  0
M  END
>  <CHROM.1>
17.89763318,-3.08477547,3.00712960,0.75101729,-0.51312400,3.07000058

>  <Name>
ligand

>  <RI>
0

>  <Rbt.Current_Directory>
/home/itssahil/PROJECTS/Mol_Feturizer/New_Systems/rnas/4NYD

>  <Rbt.Executable>
rbdock ($Id: //depot/dev/client3/rdock/2013.1/src/exe/rbdock.cxx#4 $)

>  <Rbt.Library>
libRbt.so (2013.1, Build901 2013/11/27)

>  <Rbt.Parameter_File>
/export/apps/rDock/src/rDock_2013.1_src/data/scripts/dock_solv.prm

>  <Rbt.Receptor>
prm/pocket_docking_4.prm

>  <SCORE>
-23.6751

>  <SCORE.INTER>
-23.6751

>  <SCORE.INTER.CONST>
1

>  <SCORE.INTER.POLAR>
0

>  <SCORE.INTER.ROT>
0

>  <SCORE.INTER.SOLV>
3.34351

>  <SCORE.INTER.VDW>
-20.4979

>  <SCORE.INTER.norm>
-2.36751

>  <SCORE.INTRA>
0

>  <SCORE.INTRA.DIHEDRAL>
0

>  <SCORE.INTRA.DIHEDRAL.0>
0

>  <SCORE.INTRA.POLAR>
0

>  <SCORE.INTRA.POLAR.0>
0

>  <SCORE.INTRA.REPUL>
0

>  <SCORE.INTRA.REPUL.0>
0

>  <SCORE.INTRA.SOLV>
0

>  <SCORE.INTRA.SOLV.lig_0>
-4.1818

>  <SCORE.INTRA.VDW>
0

>  <SCORE.INTRA.VDW.0>
0

>  <SCORE.INTRA.norm>
0

>  <SCORE.RESTR>
0

>  <SCORE.RESTR.CAVITY>
0

>  <SCORE.RESTR.norm>
0

>  <SCORE.SYSTEM>
0

>  <SCORE.SYSTEM.CONST>
0

>  <SCORE.SYSTEM.DIHEDRAL>
0

>  <SCORE.SYSTEM.SOLV>
0

>  <SCORE.SYSTEM.norm>
0

>  <SCORE.heavy>
10

>  <SCORE.norm>
-2.36751

>  <RMSD>
1.202

$$$$
ligand
 OpenBabel11021811503D
libRbt.so/2013.1/901 2013/11/27
 10 11  0  0  0  0  0  0  0  0999 V2000
   18.9252   -4.7605    2.4885 N   0  0  0  0  0  0  0  0  0  0  0  0
   17.8741   -5.3004    3.0767 C   0  0  0  0  0  0  0  0  0  0  0  0
   16.8650   -4.4676    3.5717 N   0  0  0  0  0  0  0  0  0  0  0  0
   16.9817   -3.1372    3.4587 C   0  0  0  0  0  0  0  0  0  0  0  0
   18.0469   -2.5985    2.8701 C   0  0  0  0  0  0  0  0  0  0  0  0
   19.0120   -3.3688    2.3736 C   0  0  0  0  0  0  0  0  0  0  0  0
   19.9821   -2.8703    1.8052 O   0  0  0  0  0  0  0  0  0  0  0  0
   17.9375   -1.2762    2.9644 N   0  0  0  0  0  0  0  0  0  0  0  0
   16.8065   -0.9960    3.6042 C   0  0  0  0  0  0  0  0  0  0  0  0
   16.2127   -2.1482    3.9022 N   0  0  0  0  0  0  0  0  0  0  0  0
  1  2  1  0  0  0  0
  1  6  1  0  0  0  0
  2  3  2  0  0  0  0
  3  4  1  0  0  0  0
  4  5  2  0  0  0  0
  4 10  1  0  0  0  0
  5  6  1  0  0  0  0
  5  8  1  0  0  0  0
  6  7  2  0  0  0  0
  8  9  1  0  0  0  0
  9 10  2  0  0  0  0
M  END
>  <CHROM.1>
17.90539478,-3.08992329,2.98842587,0.81235709,-0.50723357,3.12391618

>  <Name>
ligand

>  <RI>
0

>  <Rbt.Current_Directory>
/home/itssahil/PROJECTS/Mol_Feturizer/New_Systems/rnas/4NYD

>  <Rbt.Executable>
rbdock ($Id: //depot/dev/client3/rdock/2013.1/src/exe/rbdock.cxx#4 $)

>  <Rbt.Library>
libRbt.so (2013.1, Build901 2013/11/27)

>  <Rbt.Parameter_File>
/export/apps/rDock/src/rDock_2013.1_src/data/scripts/dock_solv.prm

>  <Rbt.Receptor>
prm/blind_docking_80.prm

>  <SCORE>
-23.6694

>  <SCORE.INTER>
-23.6694

>  <SCORE.INTER.CONST>
1

>  <SCORE.INTER.POLAR>
0

>  <SCORE.INTER.ROT>
0

>  <SCORE.INTER.SOLV>
3.37245

>  <SCORE.INTER.VDW>
-20.5037

>  <SCORE.INTER.norm>
-2.36694

>  <SCORE.INTRA>
0

>  <SCORE.INTRA.DIHEDRAL>
0

>  <SCORE.INTRA.DIHEDRAL.0>
0

>  <SCORE.INTRA.POLAR>
0

>  <SCORE.INTRA.POLAR.0>
0

>  <SCORE.INTRA.REPUL>
0

>  <SCORE.INTRA.REPUL.0>
0

>  <SCORE.INTRA.SOLV>
0

>  <SCORE.INTRA.SOLV.lig_0>
-4.1818

>  <SCORE.INTRA.VDW>
0

>  <SCORE.INTRA.VDW.0>
0

>  <SCORE.INTRA.norm>
0

>  <SCORE.RESTR>
0

>  <SCORE.RESTR.CAVITY>
0

>  <SCORE.RESTR.norm>
0

>  <SCORE.SYSTEM>
0

>  <SCORE.SYSTEM.CONST>
0

>  <SCORE.SYSTEM.DIHEDRAL>
0

>  <SCORE.SYSTEM.SOLV>
0

>  <SCORE.SYSTEM.norm>
0

>  <SCORE.heavy>
10

>  <SCORE.norm>
-2.36694

>  <RMSD>
1.203

$$$$
ligand
 OpenBabel11021811503D
libRbt.so/2013.1/901 2013/11/27
 10 11  0  0  0  0  0  0  0  0999 V2000
   18.9380   -4.7345    2.5320 N   0  0  0  0  0  0  0  0  0  0  0  0
   17.8699   -5.2716    3.0914 C   0  0  0  0  0  0  0  0  0  0  0  0
   16.8478   -4.4364    3.5547 N   0  0  0  0  0  0  0  0  0  0  0  0
   16.9690   -3.1065    3.4410 C   0  0  0  0  0  0  0  0  0  0  0  0
   18.0511   -2.5705    2.8814 C   0  0  0  0  0  0  0  0  0  0  0  0
   19.0294   -3.3433    2.4153 C   0  0  0  0  0  0  0  0  0  0  0  0
   20.0158   -2.8473    1.8734 O   0  0  0  0  0  0  0  0  0  0  0  0
   17.9403   -1.2478    2.9685 N   0  0  0  0  0  0  0  0  0  0  0  0
   16.7917   -0.9646    3.5746 C   0  0  0  0  0  0  0  0  0  0  0  0
   16.1885   -2.1154    3.8591 N   0  0  0  0  0  0  0  0  0  0  0  0
  1  2  1  0  0  0  0
  1  6  1  0  0  0  0
  2  3  2  0  0  0  0
  3  4  1  0  0  0  0
  4  5  2  0  0  0  0
  4 10  1  0  0  0  0
  5  6  1  0  0  0  0
  5  8  1  0  0  0  0
  6  7  2  0  0  0  0
  8  9  1  0  0  0  0
  9 10  2  0  0  0  0
M  END
>  <CHROM.1>
17.90583639,-3.06146826,2.99721409,0.81399174,-0.47854777,3.12153970

>  <Name>
ligand

>  <RI>
0

>  <Rbt.Current_Directory>
/home/itssahil/PROJECTS/Mol_Feturizer/New_Systems/rnas/4NYD

>  <Rbt.Executable>
rbdock ($Id: //depot/dev/client3/rdock/2013.1/src/exe/rbdock.cxx#4 $)

>  <Rbt.Library>
libRbt.so (2013.1, Build901 2013/11/27)

>  <Rbt.Parameter_File>
/export/apps/rDock/src/rDock_2013.1_src/data/scripts/dock_solv.prm

>  <Rbt.Receptor>
prm/pocket_docking_7.prm

>  <SCORE>
-23.6769

>  <SCORE.INTER>
-23.6769

>  <SCORE.INTER.CONST>
1

>  <SCORE.INTER.POLAR>
0

>  <SCORE.INTER.ROT>
0

>  <SCORE.INTER.SOLV>
3.3627

>  <SCORE.INTER.VDW>
-20.5055

>  <SCORE.INTER.norm>
-2.36769

>  <SCORE.INTRA>
0

>  <SCORE.INTRA.DIHEDRAL>
0

>  <SCORE.INTRA.DIHEDRAL.0>
0

>  <SCORE.INTRA.POLAR>
0

>  <SCORE.INTRA.POLAR.0>
0

>  <SCORE.INTRA.REPUL>
0

>  <SCORE.INTRA.REPUL.0>
0

>  <SCORE.INTRA.SOLV>
0

>  <SCORE.INTRA.SOLV.lig_0>
-4.1818

>  <SCORE.INTRA.VDW>
0

>  <SCORE.INTRA.VDW.0>
0

>  <SCORE.INTRA.norm>
0

>  <SCORE.RESTR>
0

>  <SCORE.RESTR.CAVITY>
0

>  <SCORE.RESTR.norm>
0

>  <SCORE.SYSTEM>
0

>  <SCORE.SYSTEM.CONST>
0

>  <SCORE.SYSTEM.DIHEDRAL>
0

>  <SCORE.SYSTEM.SOLV>
0

>  <SCORE.SYSTEM.norm>
0

>  <SCORE.heavy>
10

>  <SCORE.norm>
-2.36769

>  <RMSD>
1.203

$$$$
ligand
 OpenBabel11021811503D
libRbt.so/2013.1/901 2013/11/27
 10 11  0  0  0  0  0  0  0  0999 V2000
   18.9879   -4.7377    2.5351 N   0  0  0  0  0  0  0  0  0  0  0  0
   17.9680   -5.3098    3.1474 C   0  0  0  0  0  0  0  0  0  0  0  0
   16.9302   -4.5109    3.6389 N   0  0  0  0  0  0  0  0  0  0  0  0
   16.9885   -3.1794    3.4981 C   0  0  0  0  0  0  0  0  0  0  0  0
   18.0224   -2.6078    2.8852 C   0  0  0  0  0  0  0  0  0  0  0  0
   19.0135   -3.3462    2.3916 C   0  0  0  0  0  0  0  0  0  0  0  0
   19.9544   -2.8185    1.8010 O   0  0  0  0  0  0  0  0  0  0  0  0
   17.8576   -1.2897    2.9548 N   0  0  0  0  0  0  0  0  0  0  0  0
   16.7234   -1.0450    3.6034 C   0  0  0  0  0  0  0  0  0  0  0  0
   16.1832   -2.2152    3.9319 N   0  0  0  0  0  0  0  0  0  0  0  0
  1  2  1  0  0  0  0
  1  6  1  0  0  0  0
  2  3  2  0  0  0  0
  3  4  1  0  0  0  0
  4  5  2  0  0  0  0
  4 10  1  0  0  0  0
  5  6  1  0  0  0  0
  5  8  1  0  0  0  0
  6  7  2  0  0  0  0
  8  9  1  0  0  0  0
  9 10  2  0  0  0  0
M  END
>  <CHROM.1>
17.90350451,-3.10230315,3.01504815,0.76277088,-0.51804367,3.07953475

>  <Name>
ligand

>  <RI>
0

>  <Rbt.Current_Directory>
/home/itssahil/PROJECTS/Mol_Feturizer/New_Systems/rnas/4NYD

>  <Rbt.Executable>
rbdock ($Id: //depot/dev/client3/rdock/2013.1/src/exe/rbdock.cxx#4 $)

>  <Rbt.Library>
libRbt.so (2013.1, Build901 2013/11/27)

>  <Rbt.Parameter_File>
/export/apps/rDock/src/rDock_2013.1_src/data/scripts/dock_solv.prm

>  <Rbt.Receptor>
prm/blind_docking_100.prm

>  <SCORE>
-23.7005

>  <SCORE.INTER>
-23.7005

>  <SCORE.INTER.CONST>
1

>  <SCORE.INTER.POLAR>
0

>  <SCORE.INTER.ROT>
0

>  <SCORE.INTER.SOLV>
3.36467

>  <SCORE.INTER.VDW>
-20.5219

>  <SCORE.INTER.norm>
-2.37005

>  <SCORE.INTRA>
0

>  <SCORE.INTRA.DIHEDRAL>
0

>  <SCORE.INTRA.DIHEDRAL.0>
0

>  <SCORE.INTRA.POLAR>
0

>  <SCORE.INTRA.POLAR.0>
0

>  <SCORE.INTRA.REPUL>
0

>  <SCORE.INTRA.REPUL.0>
0

>  <SCORE.INTRA.SOLV>
0

>  <SCORE.INTRA.SOLV.lig_0>
-4.1818

>  <SCORE.INTRA.VDW>
0

>  <SCORE.INTRA.VDW.0>
0

>  <SCORE.INTRA.norm>
0

>  <SCORE.RESTR>
0

>  <SCORE.RESTR.CAVITY>
0

>  <SCORE.RESTR.norm>
0

>  <SCORE.SYSTEM>
0

>  <SCORE.SYSTEM.CONST>
0

>  <SCORE.SYSTEM.DIHEDRAL>
0

>  <SCORE.SYSTEM.SOLV>
0

>  <SCORE.SYSTEM.norm>
0

>  <SCORE.heavy>
10

>  <SCORE.norm>
-2.37005

>  <RMSD>
1.204

$$$$
ligand
 OpenBabel11021811503D
libRbt.so/2013.1/901 2013/11/27
 10 11  0  0  0  0  0  0  0  0999 V2000
   18.9223   -4.7717    2.5388 N   0  0  0  0  0  0  0  0  0  0  0  0
   17.8610   -5.2831    3.1340 C   0  0  0  0  0  0  0  0  0  0  0  0
   16.8551   -4.4259    3.5926 N   0  0  0  0  0  0  0  0  0  0  0  0
   16.9849   -3.1010    3.4381 C   0  0  0  0  0  0  0  0  0  0  0  0
   18.0603   -2.5909    2.8425 C   0  0  0  0  0  0  0  0  0  0  0  0
   19.0228   -3.3853    2.3801 C   0  0  0  0  0  0  0  0  0  0  0  0
   20.0025   -2.9139    1.8051 O   0  0  0  0  0  0  0  0  0  0  0  0
   17.9621   -1.2653    2.8933 N   0  0  0  0  0  0  0  0  0  0  0  0
   16.8279   -0.9547    3.5130 C   0  0  0  0  0  0  0  0  0  0  0  0
   16.2209   -2.0915    3.8423 N   0  0  0  0  0  0  0  0  0  0  0  0
  1  2  1  0  0  0  0
  1  6  1  0  0  0  0
  2  3  2  0  0  0  0
  3  4  1  0  0  0  0
  4  5  2  0  0  0  0
  4 10  1  0  0  0  0
  5  6  1  0  0  0  0
  5  8  1  0  0  0  0
  6  7  2  0  0  0  0
  8  9  1  0  0  0  0
  9 10  2  0  0  0  0
M  END
>  <CHROM.1>
17.91324846,-3.07699960,2.97517950,0.82290249,-0.49826422,3.09684298

>  <Name>
ligand

>  <RI>
0

>  <Rbt.Current_Directory>
/home/itssahil/PROJECTS/Mol_Feturizer/New_Systems/rnas/4NYD

>  <Rbt.Executable>
rbdock ($Id: //depot/dev/client3/rdock/2013.1/src/exe/rbdock.cxx#4 $)

>  <Rbt.Library>
libRbt.so (2013.1, Build901 2013/11/27)

>  <Rbt.Parameter_File>
/export/apps/rDock/src/rDock_2013.1_src/data/scripts/dock_solv.prm

>  <Rbt.Receptor>
prm/blind_docking_40.prm

>  <SCORE>
-23.6939

>  <SCORE.INTER>
-23.6939

>  <SCORE.INTER.CONST>
1

>  <SCORE.INTER.POLAR>
0

>  <SCORE.INTER.ROT>
0

>  <SCORE.INTER.SOLV>
3.33111

>  <SCORE.INTER.VDW>
-20.5063

>  <SCORE.INTER.norm>
-2.36939

>  <SCORE.INTRA>
0

>  <SCORE.INTRA.DIHEDRAL>
0

>  <SCORE.INTRA.DIHEDRAL.0>
0

>  <SCORE.INTRA.POLAR>
0

>  <SCORE.INTRA.POLAR.0>
0

>  <SCORE.INTRA.REPUL>
0

>  <SCORE.INTRA.REPUL.0>
0

>  <SCORE.INTRA.SOLV>
0

>  <SCORE.INTRA.SOLV.lig_0>
-4.1818

>  <SCORE.INTRA.VDW>
0

>  <SCORE.INTRA.VDW.0>
0

>  <SCORE.INTRA.norm>
0

>  <SCORE.RESTR>
0

>  <SCORE.RESTR.CAVITY>
0

>  <SCORE.RESTR.norm>
0

>  <SCORE.SYSTEM>
0

>  <SCORE.SYSTEM.CONST>
0

>  <SCORE.SYSTEM.DIHEDRAL>
0

>  <SCORE.SYSTEM.SOLV>
0

>  <SCORE.SYSTEM.norm>
0

>  <SCORE.heavy>
10

>  <SCORE.norm>
-2.36939

>  <RMSD>
1.204

$$$$
ligand
 OpenBabel11021811503D
libRbt.so/2013.1/901 2013/11/27
 10 11  0  0  0  0  0  0  0  0999 V2000
   18.9295   -4.7345    2.4547 N   0  0  0  0  0  0  0  0  0  0  0  0
   17.8907   -5.2950    3.0455 C   0  0  0  0  0  0  0  0  0  0  0  0
   16.8743   -4.4813    3.5572 N   0  0  0  0  0  0  0  0  0  0  0  0
   16.9717   -3.1484    3.4571 C   0  0  0  0  0  0  0  0  0  0  0  0
   18.0246   -2.5889    2.8656 C   0  0  0  0  0  0  0  0  0  0  0  0
   18.9961   -3.3407    2.3535 C   0  0  0  0  0  0  0  0  0  0  0  0
   19.9546   -2.8230    1.7826 O   0  0  0  0  0  0  0  0  0  0  0  0
   17.8978   -1.2693    2.9745 N   0  0  0  0  0  0  0  0  0  0  0  0
   16.7682   -1.0114    3.6261 C   0  0  0  0  0  0  0  0  0  0  0  0
   16.1928   -2.1747    3.9169 N   0  0  0  0  0  0  0  0  0  0  0  0
  1  2  1  0  0  0  0
  1  6  1  0  0  0  0
  2  3  2  0  0  0  0
  3  4  1  0  0  0  0
  4  5  2  0  0  0  0
  4 10  1  0  0  0  0
  5  6  1  0  0  0  0
  5  8  1  0  0  0  0
  6  7  2  0  0  0  0
  8  9  1  0  0  0  0
  9 10  2  0  0  0  0
M  END
>  <CHROM.1>
17.89083613,-3.08350605,2.97997289,0.79636814,-0.51504525,3.12640530

>  <Name>
ligand

>  <RI>
0

>  <Rbt.Current_Directory>
/home/itssahil/PROJECTS/Mol_Feturizer/New_Systems/rnas/4NYD

>  <Rbt.Executable>
rbdock ($Id: //depot/dev/client3/rdock/2013.1/src/exe/rbdock.cxx#4 $)

>  <Rbt.Library>
libRbt.so (2013.1, Build901 2013/11/27)

>  <Rbt.Parameter_File>
/export/apps/rDock/src/rDock_2013.1_src/data/scripts/dock_solv.prm

>  <Rbt.Receptor>
prm/blind_docking_80.prm

>  <SCORE>
-23.7035

>  <SCORE.INTER>
-23.7035

>  <SCORE.INTER.CONST>
1

>  <SCORE.INTER.POLAR>
0

>  <SCORE.INTER.ROT>
0

>  <SCORE.INTER.SOLV>
3.37009

>  <SCORE.INTER.VDW>
-20.5257

>  <SCORE.INTER.norm>
-2.37035

>  <SCORE.INTRA>
0

>  <SCORE.INTRA.DIHEDRAL>
0

>  <SCORE.INTRA.DIHEDRAL.0>
0

>  <SCORE.INTRA.POLAR>
0

>  <SCORE.INTRA.POLAR.0>
0

>  <SCORE.INTRA.REPUL>
0

>  <SCORE.INTRA.REPUL.0>
0

>  <SCORE.INTRA.SOLV>
0

>  <SCORE.INTRA.SOLV.lig_0>
-4.1818

>  <SCORE.INTRA.VDW>
0

>  <SCORE.INTRA.VDW.0>
0

>  <SCORE.INTRA.norm>
0

>  <SCORE.RESTR>
0

>  <SCORE.RESTR.CAVITY>
0

>  <SCORE.RESTR.norm>
0

>  <SCORE.SYSTEM>
0

>  <SCORE.SYSTEM.CONST>
0

>  <SCORE.SYSTEM.DIHEDRAL>
0

>  <SCORE.SYSTEM.SOLV>
0

>  <SCORE.SYSTEM.norm>
0

>  <SCORE.heavy>
10

>  <SCORE.norm>
-2.37035

>  <RMSD>
1.204

$$$$
ligand
 OpenBabel11021811503D
libRbt.so/2013.1/901 2013/11/27
 10 11  0  0  0  0  0  0  0  0999 V2000
   18.9694   -4.7824    2.4993 N   0  0  0  0  0  0  0  0  0  0  0  0
   17.9597   -5.3439    3.1376 C   0  0  0  0  0  0  0  0  0  0  0  0
   16.9348   -4.5357    3.6408 N   0  0  0  0  0  0  0  0  0  0  0  0
   16.9952   -3.2060    3.4846 C   0  0  0  0  0  0  0  0  0  0  0  0
   18.0190   -2.6450    2.8454 C   0  0  0  0  0  0  0  0  0  0  0  0
   18.9975   -3.3927    2.3404 C   0  0  0  0  0  0  0  0  0  0  0  0
   19.9285   -2.8749    1.7258 O   0  0  0  0  0  0  0  0  0  0  0  0
   17.8606   -1.3256    2.9041 N   0  0  0  0  0  0  0  0  0  0  0  0
   16.7402   -1.0696    3.5722 C   0  0  0  0  0  0  0  0  0  0  0  0
   16.2022   -2.2340    3.9237 N   0  0  0  0  0  0  0  0  0  0  0  0
  1  2  1  0  0  0  0
  1  6  1  0  0  0  0
  2  3  2  0  0  0  0
  3  4  1  0  0  0  0
  4  5  2  0  0  0  0
  4 10  1  0  0  0  0
  5  6  1  0  0  0  0
  5  8  1  0  0  0  0
  6  7  2  0  0  0  0
  8  9  1  0  0  0  0
  9 10  2  0  0  0  0
M  END
>  <CHROM.1>
17.90085035,-3.13768927,2.98286210,0.76571670,-0.53789344,3.07032355

>  <Name>
ligand

>  <RI>
0

>  <Rbt.Current_Directory>
/home/itssahil/PROJECTS/Mol_Feturizer/New_Systems/rnas/4NYD

>  <Rbt.Executable>
rbdock ($Id: //depot/dev/client3/rdock/2013.1/src/exe/rbdock.cxx#4 $)

>  <Rbt.Library>
libRbt.so (2013.1, Build901 2013/11/27)

>  <Rbt.Parameter_File>
/export/apps/rDock/src/rDock_2013.1_src/data/scripts/dock_solv.prm

>  <Rbt.Receptor>
prm/pocket_docking_7.prm

>  <SCORE>
-23.7177

>  <SCORE.INTER>
-23.7177

>  <SCORE.INTER.CONST>
1

>  <SCORE.INTER.POLAR>
0

>  <SCORE.INTER.ROT>
0

>  <SCORE.INTER.SOLV>
3.34151

>  <SCORE.INTER.VDW>
-20.5257

>  <SCORE.INTER.norm>
-2.37177

>  <SCORE.INTRA>
0

>  <SCORE.INTRA.DIHEDRAL>
0

>  <SCORE.INTRA.DIHEDRAL.0>
0

>  <SCORE.INTRA.POLAR>
0

>  <SCORE.INTRA.POLAR.0>
0

>  <SCORE.INTRA.REPUL>
0

>  <SCORE.INTRA.REPUL.0>
0

>  <SCORE.INTRA.SOLV>
0

>  <SCORE.INTRA.SOLV.lig_0>
-4.1818

>  <SCORE.INTRA.VDW>
0

>  <SCORE.INTRA.VDW.0>
0

>  <SCORE.INTRA.norm>
0

>  <SCORE.RESTR>
0

>  <SCORE.RESTR.CAVITY>
0

>  <SCORE.RESTR.norm>
0

>  <SCORE.SYSTEM>
0

>  <SCORE.SYSTEM.CONST>
0

>  <SCORE.SYSTEM.DIHEDRAL>
0

>  <SCORE.SYSTEM.SOLV>
0

>  <SCORE.SYSTEM.norm>
0

>  <SCORE.heavy>
10

>  <SCORE.norm>
-2.37177

>  <RMSD>
1.204

$$$$
ligand
 OpenBabel11021811503D
libRbt.so/2013.1/901 2013/11/27
 10 11  0  0  0  0  0  0  0  0999 V2000
   19.9883   -4.8965    1.9584 N   0  0  0  0  0  0  0  0  0  0  0  0
   19.2762   -5.9235    2.3831 C   0  0  0  0  0  0  0  0  0  0  0  0
   18.0584   -5.6898    3.0306 N   0  0  0  0  0  0  0  0  0  0  0  0
   17.6365   -4.4329    3.2261 C   0  0  0  0  0  0  0  0  0  0  0  0
   18.3619   -3.4011    2.8011 C   0  0  0  0  0  0  0  0  0  0  0  0
   19.5148   -3.5964    2.1654 C   0  0  0  0  0  0  0  0  0  0  0  0
   20.1702   -2.6427    1.7486 O   0  0  0  0  0  0  0  0  0  0  0  0
   17.7501   -2.2864    3.1913 N   0  0  0  0  0  0  0  0  0  0  0  0
   16.6469   -2.6253    3.8509 C   0  0  0  0  0  0  0  0  0  0  0  0
   16.5741   -3.9533    3.8647 N   0  0  0  0  0  0  0  0  0  0  0  0
  1  2  1  0  0  0  0
  1  6  1  0  0  0  0
  2  3  2  0  0  0  0
  3  4  1  0  0  0  0
  4  5  2  0  0  0  0
  4 10  1  0  0  0  0
  5  6  1  0  0  0  0
  5  8  1  0  0  0  0
  6  7  2  0  0  0  0
  8  9  1  0  0  0  0
  9 10  2  0  0  0  0
M  END
>  <CHROM.1>
18.43282142,-3.92127390,2.80103127,0.34140759,-0.52369157,3.12307435

>  <Name>
ligand

>  <RI>
0

>  <Rbt.Current_Directory>
/home/itssahil/PROJECTS/Mol_Feturizer/New_Systems/rnas/4NYD

>  <Rbt.Executable>
rbdock ($Id: //depot/dev/client3/rdock/2013.1/src/exe/rbdock.cxx#4 $)

>  <Rbt.Library>
libRbt.so (2013.1, Build901 2013/11/27)

>  <Rbt.Parameter_File>
/export/apps/rDock/src/rDock_2013.1_src/data/scripts/dock_solv.prm

>  <Rbt.Receptor>
prm/pocket_docking_5.prm

>  <SCORE>
-22.9828

>  <SCORE.INTER>
-22.9828

>  <SCORE.INTER.CONST>
1

>  <SCORE.INTER.POLAR>
0

>  <SCORE.INTER.ROT>
0

>  <SCORE.INTER.SOLV>
3.11487

>  <SCORE.INTER.VDW>
-19.9601

>  <SCORE.INTER.norm>
-2.29828

>  <SCORE.INTRA>
0

>  <SCORE.INTRA.DIHEDRAL>
0

>  <SCORE.INTRA.DIHEDRAL.0>
0

>  <SCORE.INTRA.POLAR>
0

>  <SCORE.INTRA.POLAR.0>
0

>  <SCORE.INTRA.REPUL>
0

>  <SCORE.INTRA.REPUL.0>
0

>  <SCORE.INTRA.SOLV>
0

>  <SCORE.INTRA.SOLV.lig_0>
-4.1818

>  <SCORE.INTRA.VDW>
0

>  <SCORE.INTRA.VDW.0>
0

>  <SCORE.INTRA.norm>
0

>  <SCORE.RESTR>
0

>  <SCORE.RESTR.CAVITY>
0

>  <SCORE.RESTR.norm>
0

>  <SCORE.SYSTEM>
0

>  <SCORE.SYSTEM.CONST>
0

>  <SCORE.SYSTEM.DIHEDRAL>
0

>  <SCORE.SYSTEM.SOLV>
0

>  <SCORE.SYSTEM.norm>
0

>  <SCORE.heavy>
10

>  <SCORE.norm>
-2.29828

>  <RMSD>
1.206

$$$$
ligand
 OpenBabel11021811503D
libRbt.so/2013.1/901 2013/11/27
 10 11  0  0  0  0  0  0  0  0999 V2000
   18.9380   -4.7297    2.4893 N   0  0  0  0  0  0  0  0  0  0  0  0
   17.8928   -5.2877    3.0711 C   0  0  0  0  0  0  0  0  0  0  0  0
   16.8694   -4.4722    3.5655 N   0  0  0  0  0  0  0  0  0  0  0  0
   16.9665   -3.1398    3.4582 C   0  0  0  0  0  0  0  0  0  0  0  0
   18.0257   -2.5827    2.8759 C   0  0  0  0  0  0  0  0  0  0  0  0
   19.0042   -3.3364    2.3803 C   0  0  0  0  0  0  0  0  0  0  0  0
   19.9689   -2.8211    1.8177 O   0  0  0  0  0  0  0  0  0  0  0  0
   17.8960   -1.2626    2.9750 N   0  0  0  0  0  0  0  0  0  0  0  0
   16.7584   -1.0020    3.6114 C   0  0  0  0  0  0  0  0  0  0  0  0
   16.1809   -2.1642    3.9025 N   0  0  0  0  0  0  0  0  0  0  0  0
  1  2  1  0  0  0  0
  1  6  1  0  0  0  0
  2  3  2  0  0  0  0
  3  4  1  0  0  0  0
  4  5  2  0  0  0  0
  4 10  1  0  0  0  0
  5  6  1  0  0  0  0
  5  8  1  0  0  0  0
  6  7  2  0  0  0  0
  8  9  1  0  0  0  0
  9 10  2  0  0  0  0
M  END
>  <CHROM.1>
17.89117633,-3.07667559,2.99172668,0.79522654,-0.50298974,3.11959472

>  <Name>
ligand

>  <RI>
0

>  <Rbt.Current_Directory>
/home/itssahil/PROJECTS/Mol_Feturizer/New_Systems/rnas/4NYD

>  <Rbt.Executable>
rbdock ($Id: //depot/dev/client3/rdock/2013.1/src/exe/rbdock.cxx#4 $)

>  <Rbt.Library>
libRbt.so (2013.1, Build901 2013/11/27)

>  <Rbt.Parameter_File>
/export/apps/rDock/src/rDock_2013.1_src/data/scripts/dock_solv.prm

>  <Rbt.Receptor>
prm/blind_docking_80.prm

>  <SCORE>
-23.6545

>  <SCORE.INTER>
-23.6545

>  <SCORE.INTER.CONST>
1

>  <SCORE.INTER.POLAR>
0

>  <SCORE.INTER.ROT>
0

>  <SCORE.INTER.SOLV>
3.36563

>  <SCORE.INTER.VDW>
-20.4915

>  <SCORE.INTER.norm>
-2.36545

>  <SCORE.INTRA>
0

>  <SCORE.INTRA.DIHEDRAL>
0

>  <SCORE.INTRA.DIHEDRAL.0>
0

>  <SCORE.INTRA.POLAR>
0

>  <SCORE.INTRA.POLAR.0>
0

>  <SCORE.INTRA.REPUL>
0

>  <SCORE.INTRA.REPUL.0>
0

>  <SCORE.INTRA.SOLV>
0

>  <SCORE.INTRA.SOLV.lig_0>
-4.1818

>  <SCORE.INTRA.VDW>
0

>  <SCORE.INTRA.VDW.0>
0

>  <SCORE.INTRA.norm>
0

>  <SCORE.RESTR>
0

>  <SCORE.RESTR.CAVITY>
0

>  <SCORE.RESTR.norm>
0

>  <SCORE.SYSTEM>
0

>  <SCORE.SYSTEM.CONST>
0

>  <SCORE.SYSTEM.DIHEDRAL>
0

>  <SCORE.SYSTEM.SOLV>
0

>  <SCORE.SYSTEM.norm>
0

>  <SCORE.heavy>
10

>  <SCORE.norm>
-2.36545

>  <RMSD>
1.207

$$$$
ligand
 OpenBabel11021811503D
libRbt.so/2013.1/901 2013/11/27
 10 11  0  0  0  0  0  0  0  0999 V2000
   18.9624   -4.7915    2.5001 N   0  0  0  0  0  0  0  0  0  0  0  0
   17.9525   -5.3499    3.1409 C   0  0  0  0  0  0  0  0  0  0  0  0
   16.9302   -4.5387    3.6446 N   0  0  0  0  0  0  0  0  0  0  0  0
   16.9931   -3.2094    3.4863 C   0  0  0  0  0  0  0  0  0  0  0  0
   18.0170   -2.6516    2.8445 C   0  0  0  0  0  0  0  0  0  0  0  0
   18.9931   -3.4020    2.3391 C   0  0  0  0  0  0  0  0  0  0  0  0
   19.9241   -2.8872    1.7220 O   0  0  0  0  0  0  0  0  0  0  0  0
   17.8615   -1.3318    2.9015 N   0  0  0  0  0  0  0  0  0  0  0  0
   16.7428   -1.0723    3.5711 C   0  0  0  0  0  0  0  0  0  0  0  0
   16.2030   -2.2351    3.9253 N   0  0  0  0  0  0  0  0  0  0  0  0
  1  2  1  0  0  0  0
  1  6  1  0  0  0  0
  2  3  2  0  0  0  0
  3  4  1  0  0  0  0
  4  5  2  0  0  0  0
  4 10  1  0  0  0  0
  5  6  1  0  0  0  0
  5  8  1  0  0  0  0
  6  7  2  0  0  0  0
  8  9  1  0  0  0  0
  9 10  2  0  0  0  0
M  END
>  <CHROM.1>
17.89807923,-3.14378801,2.98296001,0.76802770,-0.53975194,3.06998859

>  <Name>
ligand

>  <RI>
0

>  <Rbt.Current_Directory>
/home/itssahil/PROJECTS/Mol_Feturizer/New_Systems/rnas/4NYD

>  <Rbt.Executable>
rbdock ($Id: //depot/dev/client3/rdock/2013.1/src/exe/rbdock.cxx#4 $)

>  <Rbt.Library>
libRbt.so (2013.1, Build901 2013/11/27)

>  <Rbt.Parameter_File>
/export/apps/rDock/src/rDock_2013.1_src/data/scripts/dock_solv.prm

>  <Rbt.Receptor>
prm/pocket_docking_3.prm

>  <SCORE>
-23.7072

>  <SCORE.INTER>
-23.7072

>  <SCORE.INTER.CONST>
1

>  <SCORE.INTER.POLAR>
0

>  <SCORE.INTER.ROT>
0

>  <SCORE.INTER.SOLV>
3.34375

>  <SCORE.INTER.VDW>
-20.5194

>  <SCORE.INTER.norm>
-2.37072

>  <SCORE.INTRA>
0

>  <SCORE.INTRA.DIHEDRAL>
0

>  <SCORE.INTRA.DIHEDRAL.0>
0

>  <SCORE.INTRA.POLAR>
0

>  <SCORE.INTRA.POLAR.0>
0

>  <SCORE.INTRA.REPUL>
0

>  <SCORE.INTRA.REPUL.0>
0

>  <SCORE.INTRA.SOLV>
0

>  <SCORE.INTRA.SOLV.lig_0>
-4.1818

>  <SCORE.INTRA.VDW>
0

>  <SCORE.INTRA.VDW.0>
0

>  <SCORE.INTRA.norm>
0

>  <SCORE.RESTR>
0

>  <SCORE.RESTR.CAVITY>
0

>  <SCORE.RESTR.norm>
0

>  <SCORE.SYSTEM>
0

>  <SCORE.SYSTEM.CONST>
0

>  <SCORE.SYSTEM.DIHEDRAL>
0

>  <SCORE.SYSTEM.SOLV>
0

>  <SCORE.SYSTEM.norm>
0

>  <SCORE.heavy>
10

>  <SCORE.norm>
-2.37072

>  <RMSD>
1.208

$$$$
ligand
 OpenBabel11021811503D
libRbt.so/2013.1/901 2013/11/27
 10 11  0  0  0  0  0  0  0  0999 V2000
   18.8975   -4.7849    2.5549 N   0  0  0  0  0  0  0  0  0  0  0  0
   17.8310   -5.2658    3.1662 C   0  0  0  0  0  0  0  0  0  0  0  0
   16.8438   -4.3820    3.6148 N   0  0  0  0  0  0  0  0  0  0  0  0
   16.9965   -3.0628    3.4347 C   0  0  0  0  0  0  0  0  0  0  0  0
   18.0770   -2.5835    2.8231 C   0  0  0  0  0  0  0  0  0  0  0  0
   19.0220   -3.4038    2.3697 C   0  0  0  0  0  0  0  0  0  0  0  0
   20.0063   -2.9610    1.7800 O   0  0  0  0  0  0  0  0  0  0  0  0
   18.0032   -1.2556    2.8497 N   0  0  0  0  0  0  0  0  0  0  0  0
   16.8788   -0.9130    3.4705 C   0  0  0  0  0  0  0  0  0  0  0  0
   16.2536   -2.0322    3.8248 N   0  0  0  0  0  0  0  0  0  0  0  0
  1  2  1  0  0  0  0
  1  6  1  0  0  0  0
  2  3  2  0  0  0  0
  3  4  1  0  0  0  0
  4  5  2  0  0  0  0
  4 10  1  0  0  0  0
  5  6  1  0  0  0  0
  5  8  1  0  0  0  0
  6  7  2  0  0  0  0
  8  9  1  0  0  0  0
  9 10  2  0  0  0  0
M  END
>  <CHROM.1>
17.92209716,-3.06431455,2.96575025,0.84323463,-0.50550032,3.08797562

>  <Name>
ligand

>  <RI>
0

>  <Rbt.Current_Directory>
/home/itssahil/PROJECTS/Mol_Feturizer/New_Systems/rnas/4NYD

>  <Rbt.Executable>
rbdock ($Id: //depot/dev/client3/rdock/2013.1/src/exe/rbdock.cxx#4 $)

>  <Rbt.Library>
libRbt.so (2013.1, Build901 2013/11/27)

>  <Rbt.Parameter_File>
/export/apps/rDock/src/rDock_2013.1_src/data/scripts/dock_solv.prm

>  <Rbt.Receptor>
prm/blind_docking_80.prm

>  <SCORE>
-23.668

>  <SCORE.INTER>
-23.668

>  <SCORE.INTER.CONST>
1

>  <SCORE.INTER.POLAR>
0

>  <SCORE.INTER.ROT>
0

>  <SCORE.INTER.SOLV>
3.32026

>  <SCORE.INTER.VDW>
-20.4854

>  <SCORE.INTER.norm>
-2.3668

>  <SCORE.INTRA>
0

>  <SCORE.INTRA.DIHEDRAL>
0

>  <SCORE.INTRA.DIHEDRAL.0>
0

>  <SCORE.INTRA.POLAR>
0

>  <SCORE.INTRA.POLAR.0>
0

>  <SCORE.INTRA.REPUL>
0

>  <SCORE.INTRA.REPUL.0>
0

>  <SCORE.INTRA.SOLV>
0

>  <SCORE.INTRA.SOLV.lig_0>
-4.1818

>  <SCORE.INTRA.VDW>
0

>  <SCORE.INTRA.VDW.0>
0

>  <SCORE.INTRA.norm>
0

>  <SCORE.RESTR>
0

>  <SCORE.RESTR.CAVITY>
0

>  <SCORE.RESTR.norm>
0

>  <SCORE.SYSTEM>
0

>  <SCORE.SYSTEM.CONST>
0

>  <SCORE.SYSTEM.DIHEDRAL>
0

>  <SCORE.SYSTEM.SOLV>
0

>  <SCORE.SYSTEM.norm>
0

>  <SCORE.heavy>
10

>  <SCORE.norm>
-2.3668

>  <RMSD>
1.209

$$$$
ligand
 OpenBabel11021811503D
libRbt.so/2013.1/901 2013/11/27
 10 11  0  0  0  0  0  0  0  0999 V2000
   18.9593   -4.7508    2.5194 N   0  0  0  0  0  0  0  0  0  0  0  0
   17.9356   -5.3105    3.1367 C   0  0  0  0  0  0  0  0  0  0  0  0
   16.9119   -4.4988    3.6367 N   0  0  0  0  0  0  0  0  0  0  0  0
   16.9872   -3.1679    3.4986 C   0  0  0  0  0  0  0  0  0  0  0  0
   18.0249   -2.6088    2.8805 C   0  0  0  0  0  0  0  0  0  0  0  0
   19.0028   -3.3594    2.3790 C   0  0  0  0  0  0  0  0  0  0  0  0
   19.9470   -2.8430    1.7836 O   0  0  0  0  0  0  0  0  0  0  0  0
   17.8784   -1.2888    2.9542 N   0  0  0  0  0  0  0  0  0  0  0  0
   16.7517   -1.0304    3.6106 C   0  0  0  0  0  0  0  0  0  0  0  0
   16.1978   -2.1939    3.9397 N   0  0  0  0  0  0  0  0  0  0  0  0
  1  2  1  0  0  0  0
  1  6  1  0  0  0  0
  2  3  2  0  0  0  0
  3  4  1  0  0  0  0
  4  5  2  0  0  0  0
  4 10  1  0  0  0  0
  5  6  1  0  0  0  0
  5  8  1  0  0  0  0
  6  7  2  0  0  0  0
  8  9  1  0  0  0  0
  9 10  2  0  0  0  0
M  END
>  <CHROM.1>
17.90018184,-3.10201540,3.00995884,0.77793983,-0.52511999,3.08945970

>  <Name>
ligand

>  <RI>
0

>  <Rbt.Current_Directory>
/home/itssahil/PROJECTS/Mol_Feturizer/New_Systems/rnas/4NYD

>  <Rbt.Executable>
rbdock ($Id: //depot/dev/client3/rdock/2013.1/src/exe/rbdock.cxx#4 $)

>  <Rbt.Library>
libRbt.so (2013.1, Build901 2013/11/27)

>  <Rbt.Parameter_File>
/export/apps/rDock/src/rDock_2013.1_src/data/scripts/dock_solv.prm

>  <Rbt.Receptor>
prm/blind_docking_40.prm

>  <SCORE>
-23.6674

>  <SCORE.INTER>
-23.6674

>  <SCORE.INTER.CONST>
1

>  <SCORE.INTER.POLAR>
0

>  <SCORE.INTER.ROT>
0

>  <SCORE.INTER.SOLV>
3.37628

>  <SCORE.INTER.VDW>
-20.5037

>  <SCORE.INTER.norm>
-2.36674

>  <SCORE.INTRA>
0

>  <SCORE.INTRA.DIHEDRAL>
0

>  <SCORE.INTRA.DIHEDRAL.0>
0

>  <SCORE.INTRA.POLAR>
0

>  <SCORE.INTRA.POLAR.0>
0

>  <SCORE.INTRA.REPUL>
0

>  <SCORE.INTRA.REPUL.0>
0

>  <SCORE.INTRA.SOLV>
0

>  <SCORE.INTRA.SOLV.lig_0>
-4.1818

>  <SCORE.INTRA.VDW>
0

>  <SCORE.INTRA.VDW.0>
0

>  <SCORE.INTRA.norm>
0

>  <SCORE.RESTR>
0

>  <SCORE.RESTR.CAVITY>
0

>  <SCORE.RESTR.norm>
0

>  <SCORE.SYSTEM>
0

>  <SCORE.SYSTEM.CONST>
0

>  <SCORE.SYSTEM.DIHEDRAL>
0

>  <SCORE.SYSTEM.SOLV>
0

>  <SCORE.SYSTEM.norm>
0

>  <SCORE.heavy>
10

>  <SCORE.norm>
-2.36674

>  <RMSD>
1.211

$$$$
ligand
 OpenBabel11021811503D
libRbt.so/2013.1/901 2013/11/27
 10 11  0  0  0  0  0  0  0  0999 V2000
   18.9361   -4.7464    2.5963 N   0  0  0  0  0  0  0  0  0  0  0  0
   17.8641   -5.2561    3.1736 C   0  0  0  0  0  0  0  0  0  0  0  0
   16.8479   -4.3979    3.6069 N   0  0  0  0  0  0  0  0  0  0  0  0
   16.9786   -3.0737    3.4468 C   0  0  0  0  0  0  0  0  0  0  0  0
   18.0646   -2.5653    2.8694 C   0  0  0  0  0  0  0  0  0  0  0  0
   19.0374   -3.3609    2.4311 C   0  0  0  0  0  0  0  0  0  0  0  0
   20.0275   -2.8912    1.8727 O   0  0  0  0  0  0  0  0  0  0  0  0
   17.9633   -1.2397    2.9101 N   0  0  0  0  0  0  0  0  0  0  0  0
   16.8165   -0.9273    3.5054 C   0  0  0  0  0  0  0  0  0  0  0  0
   16.2051   -2.0631    3.8296 N   0  0  0  0  0  0  0  0  0  0  0  0
  1  2  1  0  0  0  0
  1  6  1  0  0  0  0
  2  3  2  0  0  0  0
  3  4  1  0  0  0  0
  4  5  2  0  0  0  0
  4 10  1  0  0  0  0
  5  6  1  0  0  0  0
  5  8  1  0  0  0  0
  6  7  2  0  0  0  0
  8  9  1  0  0  0  0
  9 10  2  0  0  0  0
M  END
>  <CHROM.1>
17.91580891,-3.05089594,3.00221106,0.82205201,-0.47841926,3.09029878

>  <Name>
ligand

>  <RI>
0

>  <Rbt.Current_Directory>
/home/itssahil/PROJECTS/Mol_Feturizer/New_Systems/rnas/4NYD

>  <Rbt.Executable>
rbdock ($Id: //depot/dev/client3/rdock/2013.1/src/exe/rbdock.cxx#4 $)

>  <Rbt.Library>
libRbt.so (2013.1, Build901 2013/11/27)

>  <Rbt.Parameter_File>
/export/apps/rDock/src/rDock_2013.1_src/data/scripts/dock_solv.prm

>  <Rbt.Receptor>
prm/pocket_docking_7.prm

>  <SCORE>
-23.654

>  <SCORE.INTER>
-23.654

>  <SCORE.INTER.CONST>
1

>  <SCORE.INTER.POLAR>
0

>  <SCORE.INTER.ROT>
0

>  <SCORE.INTER.SOLV>
3.34541

>  <SCORE.INTER.VDW>
-20.4844

>  <SCORE.INTER.norm>
-2.3654

>  <SCORE.INTRA>
0

>  <SCORE.INTRA.DIHEDRAL>
0

>  <SCORE.INTRA.DIHEDRAL.0>
0

>  <SCORE.INTRA.POLAR>
0

>  <SCORE.INTRA.POLAR.0>
0

>  <SCORE.INTRA.REPUL>
0

>  <SCORE.INTRA.REPUL.0>
0

>  <SCORE.INTRA.SOLV>
0

>  <SCORE.INTRA.SOLV.lig_0>
-4.1818

>  <SCORE.INTRA.VDW>
0

>  <SCORE.INTRA.VDW.0>
0

>  <SCORE.INTRA.norm>
0

>  <SCORE.RESTR>
0

>  <SCORE.RESTR.CAVITY>
0

>  <SCORE.RESTR.norm>
0

>  <SCORE.SYSTEM>
0

>  <SCORE.SYSTEM.CONST>
0

>  <SCORE.SYSTEM.DIHEDRAL>
0

>  <SCORE.SYSTEM.SOLV>
0

>  <SCORE.SYSTEM.norm>
0

>  <SCORE.heavy>
10

>  <SCORE.norm>
-2.3654

>  <RMSD>
1.211

$$$$
ligand
 OpenBabel11021811503D
libRbt.so/2013.1/901 2013/11/27
 10 11  0  0  0  0  0  0  0  0999 V2000
   18.9794   -4.7752    2.5537 N   0  0  0  0  0  0  0  0  0  0  0  0
   17.9656   -5.3304    3.1910 C   0  0  0  0  0  0  0  0  0  0  0  0
   16.9330   -4.5182    3.6717 N   0  0  0  0  0  0  0  0  0  0  0  0
   16.9902   -3.1909    3.4953 C   0  0  0  0  0  0  0  0  0  0  0  0
   18.0181   -2.6362    2.8572 C   0  0  0  0  0  0  0  0  0  0  0  0
   19.0040   -3.3880    2.3734 C   0  0  0  0  0  0  0  0  0  0  0  0
   19.9391   -2.8765    1.7596 O   0  0  0  0  0  0  0  0  0  0  0  0
   17.8543   -1.3167    2.8937 N   0  0  0  0  0  0  0  0  0  0  0  0
   16.7268   -1.0544    3.5470 C   0  0  0  0  0  0  0  0  0  0  0  0
   16.1896   -2.2152    3.9116 N   0  0  0  0  0  0  0  0  0  0  0  0
  1  2  1  0  0  0  0
  1  6  1  0  0  0  0
  2  3  2  0  0  0  0
  3  4  1  0  0  0  0
  4  5  2  0  0  0  0
  4 10  1  0  0  0  0
  5  6  1  0  0  0  0
  5  8  1  0  0  0  0
  6  7  2  0  0  0  0
  8  9  1  0  0  0  0
  9 10  2  0  0  0  0
M  END
>  <CHROM.1>
17.90037740,-3.12711058,3.00123987,0.76236539,-0.52806787,3.05298780

>  <Name>
ligand

>  <RI>
0

>  <Rbt.Current_Directory>
/home/itssahil/PROJECTS/Mol_Feturizer/New_Systems/rnas/4NYD

>  <Rbt.Executable>
rbdock ($Id: //depot/dev/client3/rdock/2013.1/src/exe/rbdock.cxx#4 $)

>  <Rbt.Library>
libRbt.so (2013.1, Build901 2013/11/27)

>  <Rbt.Parameter_File>
/export/apps/rDock/src/rDock_2013.1_src/data/scripts/dock_solv.prm

>  <Rbt.Receptor>
prm/blind_docking_60.prm

>  <SCORE>
-23.6886

>  <SCORE.INTER>
-23.6886

>  <SCORE.INTER.CONST>
1

>  <SCORE.INTER.POLAR>
0

>  <SCORE.INTER.ROT>
0

>  <SCORE.INTER.SOLV>
3.33746

>  <SCORE.INTER.VDW>
-20.5049

>  <SCORE.INTER.norm>
-2.36886

>  <SCORE.INTRA>
0

>  <SCORE.INTRA.DIHEDRAL>
0

>  <SCORE.INTRA.DIHEDRAL.0>
0

>  <SCORE.INTRA.POLAR>
0

>  <SCORE.INTRA.POLAR.0>
0

>  <SCORE.INTRA.REPUL>
0

>  <SCORE.INTRA.REPUL.0>
0

>  <SCORE.INTRA.SOLV>
0

>  <SCORE.INTRA.SOLV.lig_0>
-4.1818

>  <SCORE.INTRA.VDW>
0

>  <SCORE.INTRA.VDW.0>
0

>  <SCORE.INTRA.norm>
0

>  <SCORE.RESTR>
0

>  <SCORE.RESTR.CAVITY>
0

>  <SCORE.RESTR.norm>
0

>  <SCORE.SYSTEM>
0

>  <SCORE.SYSTEM.CONST>
0

>  <SCORE.SYSTEM.DIHEDRAL>
0

>  <SCORE.SYSTEM.SOLV>
0

>  <SCORE.SYSTEM.norm>
0

>  <SCORE.heavy>
10

>  <SCORE.norm>
-2.36886

>  <RMSD>
1.213

$$$$
ligand
 OpenBabel11021811503D
libRbt.so/2013.1/901 2013/11/27
 10 11  0  0  0  0  0  0  0  0999 V2000
   18.9633   -4.7544    2.5158 N   0  0  0  0  0  0  0  0  0  0  0  0
   17.9448   -5.3207    3.1357 C   0  0  0  0  0  0  0  0  0  0  0  0
   16.9178   -4.5154    3.6393 N   0  0  0  0  0  0  0  0  0  0  0  0
   16.9849   -3.1839    3.5022 C   0  0  0  0  0  0  0  0  0  0  0  0
   18.0175   -2.6183    2.8814 C   0  0  0  0  0  0  0  0  0  0  0  0
   18.9983   -3.3627    2.3764 C   0  0  0  0  0  0  0  0  0  0  0  0
   19.9377   -2.8403    1.7786 O   0  0  0  0  0  0  0  0  0  0  0  0
   17.8634   -1.2992    2.9566 N   0  0  0  0  0  0  0  0  0  0  0  0
   16.7372   -1.0479    3.6166 C   0  0  0  0  0  0  0  0  0  0  0  0
   16.1911   -2.2150    3.9464 N   0  0  0  0  0  0  0  0  0  0  0  0
  1  2  1  0  0  0  0
  1  6  1  0  0  0  0
  2  3  2  0  0  0  0
  3  4  1  0  0  0  0
  4  5  2  0  0  0  0
  4 10  1  0  0  0  0
  5  6  1  0  0  0  0
  5  8  1  0  0  0  0
  6  7  2  0  0  0  0
  8  9  1  0  0  0  0
  9 10  2  0  0  0  0
M  END
>  <CHROM.1>
17.89601581,-3.11231670,3.01083341,0.77096319,-0.52776552,3.08676384

>  <Name>
ligand

>  <RI>
0

>  <Rbt.Current_Directory>
/home/itssahil/PROJECTS/Mol_Feturizer/New_Systems/rnas/4NYD

>  <Rbt.Executable>
rbdock ($Id: //depot/dev/client3/rdock/2013.1/src/exe/rbdock.cxx#4 $)

>  <Rbt.Library>
libRbt.so (2013.1, Build901 2013/11/27)

>  <Rbt.Parameter_File>
/export/apps/rDock/src/rDock_2013.1_src/data/scripts/dock_solv.prm

>  <Rbt.Receptor>
prm/pocket_docking_5.prm

>  <SCORE>
-23.69

>  <SCORE.INTER>
-23.69

>  <SCORE.INTER.CONST>
1

>  <SCORE.INTER.POLAR>
0

>  <SCORE.INTER.ROT>
0

>  <SCORE.INTER.SOLV>
3.37586

>  <SCORE.INTER.VDW>
-20.5186

>  <SCORE.INTER.norm>
-2.369

>  <SCORE.INTRA>
0

>  <SCORE.INTRA.DIHEDRAL>
0

>  <SCORE.INTRA.DIHEDRAL.0>
0

>  <SCORE.INTRA.POLAR>
0

>  <SCORE.INTRA.POLAR.0>
0

>  <SCORE.INTRA.REPUL>
0

>  <SCORE.INTRA.REPUL.0>
0

>  <SCORE.INTRA.SOLV>
0

>  <SCORE.INTRA.SOLV.lig_0>
-4.1818

>  <SCORE.INTRA.VDW>
0

>  <SCORE.INTRA.VDW.0>
0

>  <SCORE.INTRA.norm>
0

>  <SCORE.RESTR>
0

>  <SCORE.RESTR.CAVITY>
0

>  <SCORE.RESTR.norm>
0

>  <SCORE.SYSTEM>
0

>  <SCORE.SYSTEM.CONST>
0

>  <SCORE.SYSTEM.DIHEDRAL>
0

>  <SCORE.SYSTEM.SOLV>
0

>  <SCORE.SYSTEM.norm>
0

>  <SCORE.heavy>
10

>  <SCORE.norm>
-2.369

>  <RMSD>
1.213

$$$$
ligand
 OpenBabel11021811503D
libRbt.so/2013.1/901 2013/11/27
 10 11  0  0  0  0  0  0  0  0999 V2000
   18.9954   -4.7657    2.4539 N   0  0  0  0  0  0  0  0  0  0  0  0
   18.0096   -5.3811    3.0798 C   0  0  0  0  0  0  0  0  0  0  0  0
   16.9655   -4.6238    3.6213 N   0  0  0  0  0  0  0  0  0  0  0  0
   16.9838   -3.2880    3.5137 C   0  0  0  0  0  0  0  0  0  0  0  0
   17.9836   -2.6728    2.8867 C   0  0  0  0  0  0  0  0  0  0  0  0
   18.9795   -3.3709    2.3461 C   0  0  0  0  0  0  0  0  0  0  0  0
   19.8882   -2.8025    1.7429 O   0  0  0  0  0  0  0  0  0  0  0  0
   17.7856   -1.3619    2.9953 N   0  0  0  0  0  0  0  0  0  0  0  0
   16.6646   -1.1652    3.6821 C   0  0  0  0  0  0  0  0  0  0  0  0
   16.1658   -2.3577    3.9952 N   0  0  0  0  0  0  0  0  0  0  0  0
  1  2  1  0  0  0  0
  1  6  1  0  0  0  0
  2  3  2  0  0  0  0
  3  4  1  0  0  0  0
  4  5  2  0  0  0  0
  4 10  1  0  0  0  0
  5  6  1  0  0  0  0
  5  8  1  0  0  0  0
  6  7  2  0  0  0  0
  8  9  1  0  0  0  0
  9 10  2  0  0  0  0
M  END
>  <CHROM.1>
17.88194754,-3.17354013,3.00696423,0.72927414,-0.54522438,3.08825299

>  <Name>
ligand

>  <RI>
0

>  <Rbt.Current_Directory>
/home/itssahil/PROJECTS/Mol_Feturizer/New_Systems/rnas/4NYD

>  <Rbt.Executable>
rbdock ($Id: //depot/dev/client3/rdock/2013.1/src/exe/rbdock.cxx#4 $)

>  <Rbt.Library>
libRbt.so (2013.1, Build901 2013/11/27)

>  <Rbt.Parameter_File>
/export/apps/rDock/src/rDock_2013.1_src/data/scripts/dock_solv.prm

>  <Rbt.Receptor>
prm/pocket_docking_6.prm

>  <SCORE>
-23.6846

>  <SCORE.INTER>
-23.6846

>  <SCORE.INTER.CONST>
1

>  <SCORE.INTER.POLAR>
0

>  <SCORE.INTER.ROT>
0

>  <SCORE.INTER.SOLV>
3.39879

>  <SCORE.INTER.VDW>
-20.5227

>  <SCORE.INTER.norm>
-2.36846

>  <SCORE.INTRA>
0

>  <SCORE.INTRA.DIHEDRAL>
0

>  <SCORE.INTRA.DIHEDRAL.0>
0

>  <SCORE.INTRA.POLAR>
0

>  <SCORE.INTRA.POLAR.0>
0

>  <SCORE.INTRA.REPUL>
0

>  <SCORE.INTRA.REPUL.0>
0

>  <SCORE.INTRA.SOLV>
0

>  <SCORE.INTRA.SOLV.lig_0>
-4.1818

>  <SCORE.INTRA.VDW>
0

>  <SCORE.INTRA.VDW.0>
0

>  <SCORE.INTRA.norm>
0

>  <SCORE.RESTR>
0

>  <SCORE.RESTR.CAVITY>
0

>  <SCORE.RESTR.norm>
0

>  <SCORE.SYSTEM>
0

>  <SCORE.SYSTEM.CONST>
0

>  <SCORE.SYSTEM.DIHEDRAL>
0

>  <SCORE.SYSTEM.SOLV>
0

>  <SCORE.SYSTEM.norm>
0

>  <SCORE.heavy>
10

>  <SCORE.norm>
-2.36846

>  <RMSD>
1.214

$$$$
ligand
 OpenBabel11021811503D
libRbt.so/2013.1/901 2013/11/27
 10 11  0  0  0  0  0  0  0  0999 V2000
   19.0138   -4.6602    2.5229 N   0  0  0  0  0  0  0  0  0  0  0  0
   18.0001   -5.2817    3.0960 C   0  0  0  0  0  0  0  0  0  0  0  0
   16.9324   -4.5297    3.5972 N   0  0  0  0  0  0  0  0  0  0  0  0
   16.9559   -3.1928    3.5053 C   0  0  0  0  0  0  0  0  0  0  0  0
   17.9837   -2.5714    2.9317 C   0  0  0  0  0  0  0  0  0  0  0  0
   19.0031   -3.2643    2.4298 C   0  0  0  0  0  0  0  0  0  0  0  0
   19.9388   -2.6900    1.8753 O   0  0  0  0  0  0  0  0  0  0  0  0
   17.7811   -1.2617    3.0456 N   0  0  0  0  0  0  0  0  0  0  0  0
   16.6298   -1.0717    3.6823 C   0  0  0  0  0  0  0  0  0  0  0  0
   16.1169   -2.2673    3.9589 N   0  0  0  0  0  0  0  0  0  0  0  0
  1  2  1  0  0  0  0
  1  6  1  0  0  0  0
  2  3  2  0  0  0  0
  3  4  1  0  0  0  0
  4  5  2  0  0  0  0
  4 10  1  0  0  0  0
  5  6  1  0  0  0  0
  5  8  1  0  0  0  0
  6  7  2  0  0  0  0
  8  9  1  0  0  0  0
  9 10  2  0  0  0  0
M  END
>  <CHROM.1>
17.87644045,-3.07341986,3.04166225,0.73232362,-0.49931993,3.10077952

>  <Name>
ligand

>  <RI>
0

>  <Rbt.Current_Directory>
/home/itssahil/PROJECTS/Mol_Feturizer/New_Systems/rnas/4NYD

>  <Rbt.Executable>
rbdock ($Id: //depot/dev/client3/rdock/2013.1/src/exe/rbdock.cxx#4 $)

>  <Rbt.Library>
libRbt.so (2013.1, Build901 2013/11/27)

>  <Rbt.Parameter_File>
/export/apps/rDock/src/rDock_2013.1_src/data/scripts/dock_solv.prm

>  <Rbt.Receptor>
prm/pocket_docking_3.prm

>  <SCORE>
-23.6845

>  <SCORE.INTER>
-23.6845

>  <SCORE.INTER.CONST>
1

>  <SCORE.INTER.POLAR>
0

>  <SCORE.INTER.ROT>
0

>  <SCORE.INTER.SOLV>
3.39732

>  <SCORE.INTER.VDW>
-20.5221

>  <SCORE.INTER.norm>
-2.36845

>  <SCORE.INTRA>
0

>  <SCORE.INTRA.DIHEDRAL>
0

>  <SCORE.INTRA.DIHEDRAL.0>
0

>  <SCORE.INTRA.POLAR>
0

>  <SCORE.INTRA.POLAR.0>
0

>  <SCORE.INTRA.REPUL>
0

>  <SCORE.INTRA.REPUL.0>
0

>  <SCORE.INTRA.SOLV>
0

>  <SCORE.INTRA.SOLV.lig_0>
-4.1818

>  <SCORE.INTRA.VDW>
0

>  <SCORE.INTRA.VDW.0>
0

>  <SCORE.INTRA.norm>
0

>  <SCORE.RESTR>
0

>  <SCORE.RESTR.CAVITY>
0

>  <SCORE.RESTR.norm>
0

>  <SCORE.SYSTEM>
0

>  <SCORE.SYSTEM.CONST>
0

>  <SCORE.SYSTEM.DIHEDRAL>
0

>  <SCORE.SYSTEM.SOLV>
0

>  <SCORE.SYSTEM.norm>
0

>  <SCORE.heavy>
10

>  <SCORE.norm>
-2.36845

>  <RMSD>
1.217

$$$$
ligand
 OpenBabel11021811503D
libRbt.so/2013.1/901 2013/11/27
 10 11  0  0  0  0  0  0  0  0999 V2000
   18.9161   -4.7733    2.5560 N   0  0  0  0  0  0  0  0  0  0  0  0
   17.8690   -5.2806    3.1795 C   0  0  0  0  0  0  0  0  0  0  0  0
   16.8686   -4.4212    3.6457 N   0  0  0  0  0  0  0  0  0  0  0  0
   16.9894   -3.0981    3.4697 C   0  0  0  0  0  0  0  0  0  0  0  0
   18.0504   -2.5920    2.8456 C   0  0  0  0  0  0  0  0  0  0  0  0
   19.0071   -3.3889    2.3756 C   0  0  0  0  0  0  0  0  0  0  0  0
   19.9731   -2.9217    1.7746 O   0  0  0  0  0  0  0  0  0  0  0  0
   17.9473   -1.2663    2.8795 N   0  0  0  0  0  0  0  0  0  0  0  0
   16.8242   -0.9516    3.5171 C   0  0  0  0  0  0  0  0  0  0  0  0
   16.2290   -2.0860    3.8746 N   0  0  0  0  0  0  0  0  0  0  0  0
  1  2  1  0  0  0  0
  1  6  1  0  0  0  0
  2  3  2  0  0  0  0
  3  4  1  0  0  0  0
  4  5  2  0  0  0  0
  4 10  1  0  0  0  0
  5  6  1  0  0  0  0
  5  8  1  0  0  0  0
  6  7  2  0  0  0  0
  8  9  1  0  0  0  0
  9 10  2  0  0  0  0
M  END
>  <CHROM.1>
17.90821298,-3.07679525,2.98817120,0.81672254,-0.51785782,3.07951124

>  <Name>
ligand

>  <RI>
0

>  <Rbt.Current_Directory>
/home/itssahil/PROJECTS/Mol_Feturizer/New_Systems/rnas/4NYD

>  <Rbt.Executable>
rbdock ($Id: //depot/dev/client3/rdock/2013.1/src/exe/rbdock.cxx#4 $)

>  <Rbt.Library>
libRbt.so (2013.1, Build901 2013/11/27)

>  <Rbt.Parameter_File>
/export/apps/rDock/src/rDock_2013.1_src/data/scripts/dock_solv.prm

>  <Rbt.Receptor>
prm/pocket_docking_6.prm

>  <SCORE>
-23.6972

>  <SCORE.INTER>
-23.6972

>  <SCORE.INTER.CONST>
1

>  <SCORE.INTER.POLAR>
0

>  <SCORE.INTER.ROT>
0

>  <SCORE.INTER.SOLV>
3.34493

>  <SCORE.INTER.VDW>
-20.5131

>  <SCORE.INTER.norm>
-2.36972

>  <SCORE.INTRA>
0

>  <SCORE.INTRA.DIHEDRAL>
0

>  <SCORE.INTRA.DIHEDRAL.0>
0

>  <SCORE.INTRA.POLAR>
0

>  <SCORE.INTRA.POLAR.0>
0

>  <SCORE.INTRA.REPUL>
0

>  <SCORE.INTRA.REPUL.0>
0

>  <SCORE.INTRA.SOLV>
0

>  <SCORE.INTRA.SOLV.lig_0>
-4.1818

>  <SCORE.INTRA.VDW>
0

>  <SCORE.INTRA.VDW.0>
0

>  <SCORE.INTRA.norm>
0

>  <SCORE.RESTR>
0

>  <SCORE.RESTR.CAVITY>
0

>  <SCORE.RESTR.norm>
0

>  <SCORE.SYSTEM>
0

>  <SCORE.SYSTEM.CONST>
0

>  <SCORE.SYSTEM.DIHEDRAL>
0

>  <SCORE.SYSTEM.SOLV>
0

>  <SCORE.SYSTEM.norm>
0

>  <SCORE.heavy>
10

>  <SCORE.norm>
-2.36972

>  <RMSD>
1.218

$$$$
ligand
 OpenBabel11021811503D
libRbt.so/2013.1/901 2013/11/27
 10 11  0  0  0  0  0  0  0  0999 V2000
   18.9158   -4.7586    2.4950 N   0  0  0  0  0  0  0  0  0  0  0  0
   17.8620   -5.3067    3.0706 C   0  0  0  0  0  0  0  0  0  0  0  0
   16.8464   -4.4812    3.5646 N   0  0  0  0  0  0  0  0  0  0  0  0
   16.9595   -3.1497    3.4633 C   0  0  0  0  0  0  0  0  0  0  0  0
   18.0274   -2.6027    2.8872 C   0  0  0  0  0  0  0  0  0  0  0  0
   18.9988   -3.3658    2.3920 C   0  0  0  0  0  0  0  0  0  0  0  0
   19.9716   -2.8596    1.8351 O   0  0  0  0  0  0  0  0  0  0  0  0
   17.9129   -1.2815    2.9914 N   0  0  0  0  0  0  0  0  0  0  0  0
   16.7760   -1.0102    3.6246 C   0  0  0  0  0  0  0  0  0  0  0  0
   16.1839   -2.1667    3.9088 N   0  0  0  0  0  0  0  0  0  0  0  0
  1  2  1  0  0  0  0
  1  6  1  0  0  0  0
  2  3  2  0  0  0  0
  3  4  1  0  0  0  0
  4  5  2  0  0  0  0
  4 10  1  0  0  0  0
  5  6  1  0  0  0  0
  5  8  1  0  0  0  0
  6  7  2  0  0  0  0
  8  9  1  0  0  0  0
  9 10  2  0  0  0  0
M  END
>  <CHROM.1>
17.88662134,-3.09552348,3.00046690,0.80873115,-0.49950246,3.13024147

>  <Name>
ligand

>  <RI>
0

>  <Rbt.Current_Directory>
/home/itssahil/PROJECTS/Mol_Feturizer/New_Systems/rnas/4NYD

>  <Rbt.Executable>
rbdock ($Id: //depot/dev/client3/rdock/2013.1/src/exe/rbdock.cxx#4 $)

>  <Rbt.Library>
libRbt.so (2013.1, Build901 2013/11/27)

>  <Rbt.Parameter_File>
/export/apps/rDock/src/rDock_2013.1_src/data/scripts/dock_solv.prm

>  <Rbt.Receptor>
prm/pocket_docking_8.prm

>  <SCORE>
-23.7334

>  <SCORE.INTER>
-23.7334

>  <SCORE.INTER.CONST>
1

>  <SCORE.INTER.POLAR>
0

>  <SCORE.INTER.ROT>
0

>  <SCORE.INTER.SOLV>
3.38701

>  <SCORE.INTER.VDW>
-20.5513

>  <SCORE.INTER.norm>
-2.37334

>  <SCORE.INTRA>
0

>  <SCORE.INTRA.DIHEDRAL>
0

>  <SCORE.INTRA.DIHEDRAL.0>
0

>  <SCORE.INTRA.POLAR>
0

>  <SCORE.INTRA.POLAR.0>
0

>  <SCORE.INTRA.REPUL>
0

>  <SCORE.INTRA.REPUL.0>
0

>  <SCORE.INTRA.SOLV>
0

>  <SCORE.INTRA.SOLV.lig_0>
-4.1818

>  <SCORE.INTRA.VDW>
0

>  <SCORE.INTRA.VDW.0>
0

>  <SCORE.INTRA.norm>
0

>  <SCORE.RESTR>
0

>  <SCORE.RESTR.CAVITY>
0

>  <SCORE.RESTR.norm>
0

>  <SCORE.SYSTEM>
0

>  <SCORE.SYSTEM.CONST>
0

>  <SCORE.SYSTEM.DIHEDRAL>
0

>  <SCORE.SYSTEM.SOLV>
0

>  <SCORE.SYSTEM.norm>
0

>  <SCORE.heavy>
10

>  <SCORE.norm>
-2.37334

>  <RMSD>
1.219

$$$$
ligand
 OpenBabel11021811503D
libRbt.so/2013.1/901 2013/11/27
 10 11  0  0  0  0  0  0  0  0999 V2000
   18.9186   -4.7671    2.5739 N   0  0  0  0  0  0  0  0  0  0  0  0
   17.8684   -5.2718    3.1941 C   0  0  0  0  0  0  0  0  0  0  0  0
   16.8660   -4.4104    3.6525 N   0  0  0  0  0  0  0  0  0  0  0  0
   16.9882   -3.0879    3.4724 C   0  0  0  0  0  0  0  0  0  0  0  0
   18.0524   -2.5844    2.8517 C   0  0  0  0  0  0  0  0  0  0  0  0
   19.0110   -3.3833    2.3890 C   0  0  0  0  0  0  0  0  0  0  0  0
   19.9801   -2.9186    1.7910 O   0  0  0  0  0  0  0  0  0  0  0  0
   17.9496   -1.2586    2.8804 N   0  0  0  0  0  0  0  0  0  0  0  0
   16.8235   -0.9412    3.5115 C   0  0  0  0  0  0  0  0  0  0  0  0
   16.2263   -2.0742    3.8701 N   0  0  0  0  0  0  0  0  0  0  0  0
  1  2  1  0  0  0  0
  1  6  1  0  0  0  0
  2  3  2  0  0  0  0
  3  4  1  0  0  0  0
  4  5  2  0  0  0  0
  4 10  1  0  0  0  0
  5  6  1  0  0  0  0
  5  8  1  0  0  0  0
  6  7  2  0  0  0  0
  8  9  1  0  0  0  0
  9 10  2  0  0  0  0
M  END
>  <CHROM.1>
17.90931888,-3.06868260,2.99521418,0.81748612,-0.51309114,3.07638947

>  <Name>
ligand

>  <RI>
0

>  <Rbt.Current_Directory>
/home/itssahil/PROJECTS/Mol_Feturizer/New_Systems/rnas/4NYD

>  <Rbt.Executable>
rbdock ($Id: //depot/dev/client3/rdock/2013.1/src/exe/rbdock.cxx#4 $)

>  <Rbt.Library>
libRbt.so (2013.1, Build901 2013/11/27)

>  <Rbt.Parameter_File>
/export/apps/rDock/src/rDock_2013.1_src/data/scripts/dock_solv.prm

>  <Rbt.Receptor>
prm/pocket_docking_6.prm

>  <SCORE>
-23.6991

>  <SCORE.INTER>
-23.6991

>  <SCORE.INTER.CONST>
1

>  <SCORE.INTER.POLAR>
0

>  <SCORE.INTER.ROT>
0

>  <SCORE.INTER.SOLV>
3.34794

>  <SCORE.INTER.VDW>
-20.5154

>  <SCORE.INTER.norm>
-2.36991

>  <SCORE.INTRA>
0

>  <SCORE.INTRA.DIHEDRAL>
0

>  <SCORE.INTRA.DIHEDRAL.0>
0

>  <SCORE.INTRA.POLAR>
0

>  <SCORE.INTRA.POLAR.0>
0

>  <SCORE.INTRA.REPUL>
0

>  <SCORE.INTRA.REPUL.0>
0

>  <SCORE.INTRA.SOLV>
0

>  <SCORE.INTRA.SOLV.lig_0>
-4.1818

>  <SCORE.INTRA.VDW>
0

>  <SCORE.INTRA.VDW.0>
0

>  <SCORE.INTRA.norm>
0

>  <SCORE.RESTR>
0

>  <SCORE.RESTR.CAVITY>
0

>  <SCORE.RESTR.norm>
0

>  <SCORE.SYSTEM>
0

>  <SCORE.SYSTEM.CONST>
0

>  <SCORE.SYSTEM.DIHEDRAL>
0

>  <SCORE.SYSTEM.SOLV>
0

>  <SCORE.SYSTEM.norm>
0

>  <SCORE.heavy>
10

>  <SCORE.norm>
-2.36991

>  <RMSD>
1.220

$$$$
ligand
 OpenBabel11021811503D
libRbt.so/2013.1/901 2013/11/27
 10 11  0  0  0  0  0  0  0  0999 V2000
   18.9279   -4.7198    2.5540 N   0  0  0  0  0  0  0  0  0  0  0  0
   17.8717   -5.2524    3.1399 C   0  0  0  0  0  0  0  0  0  0  0  0
   16.8504   -4.4145    3.6002 N   0  0  0  0  0  0  0  0  0  0  0  0
   16.9604   -3.0866    3.4568 C   0  0  0  0  0  0  0  0  0  0  0  0
   18.0306   -2.5551    2.8706 C   0  0  0  0  0  0  0  0  0  0  0  0
   19.0075   -3.3308    2.4068 C   0  0  0  0  0  0  0  0  0  0  0  0
   19.9826   -2.8397    1.8404 O   0  0  0  0  0  0  0  0  0  0  0  0
   17.9115   -1.2317    2.9313 N   0  0  0  0  0  0  0  0  0  0  0  0
   16.7696   -0.9436    3.5479 C   0  0  0  0  0  0  0  0  0  0  0  0
   16.1789   -2.0922    3.8652 N   0  0  0  0  0  0  0  0  0  0  0  0
  1  2  1  0  0  0  0
  1  6  1  0  0  0  0
  2  3  2  0  0  0  0
  3  4  1  0  0  0  0
  4  5  2  0  0  0  0
  4 10  1  0  0  0  0
  5  6  1  0  0  0  0
  5  8  1  0  0  0  0
  6  7  2  0  0  0  0
  8  9  1  0  0  0  0
  9 10  2  0  0  0  0
M  END
>  <CHROM.1>
17.89045387,-3.04450934,2.99871353,0.80553264,-0.49264854,3.09650112

>  <Name>
ligand

>  <RI>
0

>  <Rbt.Current_Directory>
/home/itssahil/PROJECTS/Mol_Feturizer/New_Systems/rnas/4NYD

>  <Rbt.Executable>
rbdock ($Id: //depot/dev/client3/rdock/2013.1/src/exe/rbdock.cxx#4 $)

>  <Rbt.Library>
libRbt.so (2013.1, Build901 2013/11/27)

>  <Rbt.Parameter_File>
/export/apps/rDock/src/rDock_2013.1_src/data/scripts/dock_solv.prm

>  <Rbt.Receptor>
prm/pocket_docking_7.prm

>  <SCORE>
-23.6407

>  <SCORE.INTER>
-23.6407

>  <SCORE.INTER.CONST>
1

>  <SCORE.INTER.POLAR>
0

>  <SCORE.INTER.ROT>
0

>  <SCORE.INTER.SOLV>
3.35424

>  <SCORE.INTER.VDW>
-20.4786

>  <SCORE.INTER.norm>
-2.36407

>  <SCORE.INTRA>
0

>  <SCORE.INTRA.DIHEDRAL>
0

>  <SCORE.INTRA.DIHEDRAL.0>
0

>  <SCORE.INTRA.POLAR>
0

>  <SCORE.INTRA.POLAR.0>
0

>  <SCORE.INTRA.REPUL>
0

>  <SCORE.INTRA.REPUL.0>
0

>  <SCORE.INTRA.SOLV>
0

>  <SCORE.INTRA.SOLV.lig_0>
-4.1818

>  <SCORE.INTRA.VDW>
0

>  <SCORE.INTRA.VDW.0>
0

>  <SCORE.INTRA.norm>
0

>  <SCORE.RESTR>
0

>  <SCORE.RESTR.CAVITY>
0

>  <SCORE.RESTR.norm>
0

>  <SCORE.SYSTEM>
0

>  <SCORE.SYSTEM.CONST>
0

>  <SCORE.SYSTEM.DIHEDRAL>
0

>  <SCORE.SYSTEM.SOLV>
0

>  <SCORE.SYSTEM.norm>
0

>  <SCORE.heavy>
10

>  <SCORE.norm>
-2.36407

>  <RMSD>
1.220

$$$$
ligand
 OpenBabel11021811503D
libRbt.so/2013.1/901 2013/11/27
 10 11  0  0  0  0  0  0  0  0999 V2000
   18.9523   -4.7629    2.5714 N   0  0  0  0  0  0  0  0  0  0  0  0
   17.9224   -5.3000    3.1984 C   0  0  0  0  0  0  0  0  0  0  0  0
   16.9010   -4.4693    3.6712 N   0  0  0  0  0  0  0  0  0  0  0  0
   16.9849   -3.1430    3.4979 C   0  0  0  0  0  0  0  0  0  0  0  0
   18.0288   -2.6067    2.8702 C   0  0  0  0  0  0  0  0  0  0  0  0
   19.0048   -3.3761    2.3940 C   0  0  0  0  0  0  0  0  0  0  0  0
   19.9549   -2.8813    1.7898 O   0  0  0  0  0  0  0  0  0  0  0  0
   17.8897   -1.2844    2.9078 N   0  0  0  0  0  0  0  0  0  0  0  0
   16.7614   -1.0019    3.5513 C   0  0  0  0  0  0  0  0  0  0  0  0
   16.1990   -2.1531    3.9087 N   0  0  0  0  0  0  0  0  0  0  0  0
  1  2  1  0  0  0  0
  1  6  1  0  0  0  0
  2  3  2  0  0  0  0
  3  4  1  0  0  0  0
  4  5  2  0  0  0  0
  4 10  1  0  0  0  0
  5  6  1  0  0  0  0
  5  8  1  0  0  0  0
  6  7  2  0  0  0  0
  8  9  1  0  0  0  0
  9 10  2  0  0  0  0
M  END
>  <CHROM.1>
17.90056499,-3.09554114,3.01224127,0.78499614,-0.52049620,3.06615775

>  <Name>
ligand

>  <RI>
0

>  <Rbt.Current_Directory>
/home/itssahil/PROJECTS/Mol_Feturizer/New_Systems/rnas/4NYD

>  <Rbt.Executable>
rbdock ($Id: //depot/dev/client3/rdock/2013.1/src/exe/rbdock.cxx#4 $)

>  <Rbt.Library>
libRbt.so (2013.1, Build901 2013/11/27)

>  <Rbt.Parameter_File>
/export/apps/rDock/src/rDock_2013.1_src/data/scripts/dock_solv.prm

>  <Rbt.Receptor>
prm/blind_docking_100.prm

>  <SCORE>
-23.6845

>  <SCORE.INTER>
-23.6845

>  <SCORE.INTER.CONST>
1

>  <SCORE.INTER.POLAR>
0

>  <SCORE.INTER.ROT>
0

>  <SCORE.INTER.SOLV>
3.3574

>  <SCORE.INTER.VDW>
-20.5088

>  <SCORE.INTER.norm>
-2.36845

>  <SCORE.INTRA>
0

>  <SCORE.INTRA.DIHEDRAL>
0

>  <SCORE.INTRA.DIHEDRAL.0>
0

>  <SCORE.INTRA.POLAR>
0

>  <SCORE.INTRA.POLAR.0>
0

>  <SCORE.INTRA.REPUL>
0

>  <SCORE.INTRA.REPUL.0>
0

>  <SCORE.INTRA.SOLV>
0

>  <SCORE.INTRA.SOLV.lig_0>
-4.1818

>  <SCORE.INTRA.VDW>
0

>  <SCORE.INTRA.VDW.0>
0

>  <SCORE.INTRA.norm>
0

>  <SCORE.RESTR>
0

>  <SCORE.RESTR.CAVITY>
0

>  <SCORE.RESTR.norm>
0

>  <SCORE.SYSTEM>
0

>  <SCORE.SYSTEM.CONST>
0

>  <SCORE.SYSTEM.DIHEDRAL>
0

>  <SCORE.SYSTEM.SOLV>
0

>  <SCORE.SYSTEM.norm>
0

>  <SCORE.heavy>
10

>  <SCORE.norm>
-2.36845

>  <RMSD>
1.221

$$$$
ligand
 OpenBabel11021811503D
libRbt.so/2013.1/901 2013/11/27
 10 11  0  0  0  0  0  0  0  0999 V2000
   18.9181   -4.7766    2.5790 N   0  0  0  0  0  0  0  0  0  0  0  0
   17.8662   -5.2781    3.1991 C   0  0  0  0  0  0  0  0  0  0  0  0
   16.8629   -4.4142    3.6508 N   0  0  0  0  0  0  0  0  0  0  0  0
   16.9858   -3.0927    3.4646 C   0  0  0  0  0  0  0  0  0  0  0  0
   18.0517   -2.5925    2.8440 C   0  0  0  0  0  0  0  0  0  0  0  0
   19.0113   -3.3938    2.3876 C   0  0  0  0  0  0  0  0  0  0  0  0
   19.9819   -2.9322    1.7897 O   0  0  0  0  0  0  0  0  0  0  0  0
   17.9491   -1.2665    2.8659 N   0  0  0  0  0  0  0  0  0  0  0  0
   16.8216   -0.9458    3.4928 C   0  0  0  0  0  0  0  0  0  0  0  0
   16.2232   -2.0769    3.8554 N   0  0  0  0  0  0  0  0  0  0  0  0
  1  2  1  0  0  0  0
  1  6  1  0  0  0  0
  2  3  2  0  0  0  0
  3  4  1  0  0  0  0
  4  5  2  0  0  0  0
  4 10  1  0  0  0  0
  5  6  1  0  0  0  0
  5  8  1  0  0  0  0
  6  7  2  0  0  0  0
  8  9  1  0  0  0  0
  9 10  2  0  0  0  0
M  END
>  <CHROM.1>
17.90814843,-3.07597148,2.98953971,0.81793504,-0.51065000,3.07170276

>  <Name>
ligand

>  <RI>
0

>  <Rbt.Current_Directory>
/home/itssahil/PROJECTS/Mol_Feturizer/New_Systems/rnas/4NYD

>  <Rbt.Executable>
rbdock ($Id: //depot/dev/client3/rdock/2013.1/src/exe/rbdock.cxx#4 $)

>  <Rbt.Library>
libRbt.so (2013.1, Build901 2013/11/27)

>  <Rbt.Parameter_File>
/export/apps/rDock/src/rDock_2013.1_src/data/scripts/dock_solv.prm

>  <Rbt.Receptor>
prm/pocket_docking_6.prm

>  <SCORE>
-23.6953

>  <SCORE.INTER>
-23.6953

>  <SCORE.INTER.CONST>
1

>  <SCORE.INTER.POLAR>
0

>  <SCORE.INTER.ROT>
0

>  <SCORE.INTER.SOLV>
3.3342

>  <SCORE.INTER.VDW>
-20.5083

>  <SCORE.INTER.norm>
-2.36953

>  <SCORE.INTRA>
0

>  <SCORE.INTRA.DIHEDRAL>
0

>  <SCORE.INTRA.DIHEDRAL.0>
0

>  <SCORE.INTRA.POLAR>
0

>  <SCORE.INTRA.POLAR.0>
0

>  <SCORE.INTRA.REPUL>
0

>  <SCORE.INTRA.REPUL.0>
0

>  <SCORE.INTRA.SOLV>
0

>  <SCORE.INTRA.SOLV.lig_0>
-4.1818

>  <SCORE.INTRA.VDW>
0

>  <SCORE.INTRA.VDW.0>
0

>  <SCORE.INTRA.norm>
0

>  <SCORE.RESTR>
0

>  <SCORE.RESTR.CAVITY>
0

>  <SCORE.RESTR.norm>
0

>  <SCORE.SYSTEM>
0

>  <SCORE.SYSTEM.CONST>
0

>  <SCORE.SYSTEM.DIHEDRAL>
0

>  <SCORE.SYSTEM.SOLV>
0

>  <SCORE.SYSTEM.norm>
0

>  <SCORE.heavy>
10

>  <SCORE.norm>
-2.36953

>  <RMSD>
1.221

$$$$
ligand
 OpenBabel11021811503D
libRbt.so/2013.1/901 2013/11/27
 10 11  0  0  0  0  0  0  0  0999 V2000
   18.9428   -4.7233    2.5391 N   0  0  0  0  0  0  0  0  0  0  0  0
   17.9170   -5.2707    3.1638 C   0  0  0  0  0  0  0  0  0  0  0  0
   16.8981   -4.4480    3.6559 N   0  0  0  0  0  0  0  0  0  0  0  0
   16.9803   -3.1191    3.5029 C   0  0  0  0  0  0  0  0  0  0  0  0
   18.0202   -2.5725    2.8774 C   0  0  0  0  0  0  0  0  0  0  0  0
   18.9935   -3.3339    2.3831 C   0  0  0  0  0  0  0  0  0  0  0  0
   19.9397   -2.8291    1.7809 O   0  0  0  0  0  0  0  0  0  0  0  0
   17.8808   -1.2510    2.9365 N   0  0  0  0  0  0  0  0  0  0  0  0
   16.7563   -0.9793    3.5913 C   0  0  0  0  0  0  0  0  0  0  0  0
   16.1966   -2.1361    3.9340 N   0  0  0  0  0  0  0  0  0  0  0  0
  1  2  1  0  0  0  0
  1  6  1  0  0  0  0
  2  3  2  0  0  0  0
  3  4  1  0  0  0  0
  4  5  2  0  0  0  0
  4 10  1  0  0  0  0
  5  6  1  0  0  0  0
  5  8  1  0  0  0  0
  6  7  2  0  0  0  0
  8  9  1  0  0  0  0
  9 10  2  0  0  0  0
M  END
>  <CHROM.1>
17.89302776,-3.06357328,3.01245115,0.78396396,-0.52659910,3.08132239

>  <Name>
ligand

>  <RI>
0

>  <Rbt.Current_Directory>
/home/itssahil/PROJECTS/Mol_Feturizer/New_Systems/rnas/4NYD

>  <Rbt.Executable>
rbdock ($Id: //depot/dev/client3/rdock/2013.1/src/exe/rbdock.cxx#4 $)

>  <Rbt.Library>
libRbt.so (2013.1, Build901 2013/11/27)

>  <Rbt.Parameter_File>
/export/apps/rDock/src/rDock_2013.1_src/data/scripts/dock_solv.prm

>  <Rbt.Receptor>
prm/pocket_docking_7.prm

>  <SCORE>
-23.6734

>  <SCORE.INTER>
-23.6734

>  <SCORE.INTER.CONST>
1

>  <SCORE.INTER.POLAR>
0

>  <SCORE.INTER.ROT>
0

>  <SCORE.INTER.SOLV>
3.37858

>  <SCORE.INTER.VDW>
-20.5085

>  <SCORE.INTER.norm>
-2.36734

>  <SCORE.INTRA>
0

>  <SCORE.INTRA.DIHEDRAL>
0

>  <SCORE.INTRA.DIHEDRAL.0>
0

>  <SCORE.INTRA.POLAR>
0

>  <SCORE.INTRA.POLAR.0>
0

>  <SCORE.INTRA.REPUL>
0

>  <SCORE.INTRA.REPUL.0>
0

>  <SCORE.INTRA.SOLV>
0

>  <SCORE.INTRA.SOLV.lig_0>
-4.1818

>  <SCORE.INTRA.VDW>
0

>  <SCORE.INTRA.VDW.0>
0

>  <SCORE.INTRA.norm>
0

>  <SCORE.RESTR>
0

>  <SCORE.RESTR.CAVITY>
0

>  <SCORE.RESTR.norm>
0

>  <SCORE.SYSTEM>
0

>  <SCORE.SYSTEM.CONST>
0

>  <SCORE.SYSTEM.DIHEDRAL>
0

>  <SCORE.SYSTEM.SOLV>
0

>  <SCORE.SYSTEM.norm>
0

>  <SCORE.heavy>
10

>  <SCORE.norm>
-2.36734

>  <RMSD>
1.222

$$$$
ligand
 OpenBabel11021811503D
libRbt.so/2013.1/901 2013/11/27
 10 11  0  0  0  0  0  0  0  0999 V2000
   18.9336   -4.7646    2.5666 N   0  0  0  0  0  0  0  0  0  0  0  0
   17.9021   -5.2885    3.2020 C   0  0  0  0  0  0  0  0  0  0  0  0
   16.8902   -4.4458    3.6741 N   0  0  0  0  0  0  0  0  0  0  0  0
   16.9847   -3.1214    3.4914 C   0  0  0  0  0  0  0  0  0  0  0  0
   18.0302   -2.5985    2.8552 C   0  0  0  0  0  0  0  0  0  0  0  0
   18.9972   -3.3795    2.3795 C   0  0  0  0  0  0  0  0  0  0  0  0
   19.9486   -2.8970    1.7675 O   0  0  0  0  0  0  0  0  0  0  0  0
   17.9027   -1.2747    2.8845 N   0  0  0  0  0  0  0  0  0  0  0  0
   16.7800   -0.9782    3.5314 C   0  0  0  0  0  0  0  0  0  0  0  0
   16.2094   -2.1220    3.8993 N   0  0  0  0  0  0  0  0  0  0  0  0
  1  2  1  0  0  0  0
  1  6  1  0  0  0  0
  2  3  2  0  0  0  0
  3  4  1  0  0  0  0
  4  5  2  0  0  0  0
  4 10  1  0  0  0  0
  5  6  1  0  0  0  0
  5  8  1  0  0  0  0
  6  7  2  0  0  0  0
  8  9  1  0  0  0  0
  9 10  2  0  0  0  0
M  END
>  <CHROM.1>
17.89840763,-3.08519328,3.00113294,0.79455602,-0.52593227,3.06420032

>  <Name>
ligand

>  <RI>
0

>  <Rbt.Current_Directory>
/home/itssahil/PROJECTS/Mol_Feturizer/New_Systems/rnas/4NYD

>  <Rbt.Executable>
rbdock ($Id: //depot/dev/client3/rdock/2013.1/src/exe/rbdock.cxx#4 $)

>  <Rbt.Library>
libRbt.so (2013.1, Build901 2013/11/27)

>  <Rbt.Parameter_File>
/export/apps/rDock/src/rDock_2013.1_src/data/scripts/dock_solv.prm

>  <Rbt.Receptor>
prm/blind_docking_100.prm

>  <SCORE>
-23.6747

>  <SCORE.INTER>
-23.6747

>  <SCORE.INTER.CONST>
1

>  <SCORE.INTER.POLAR>
0

>  <SCORE.INTER.ROT>
0

>  <SCORE.INTER.SOLV>
3.35054

>  <SCORE.INTER.VDW>
-20.5

>  <SCORE.INTER.norm>
-2.36747

>  <SCORE.INTRA>
0

>  <SCORE.INTRA.DIHEDRAL>
0

>  <SCORE.INTRA.DIHEDRAL.0>
0

>  <SCORE.INTRA.POLAR>
0

>  <SCORE.INTRA.POLAR.0>
0

>  <SCORE.INTRA.REPUL>
0

>  <SCORE.INTRA.REPUL.0>
0

>  <SCORE.INTRA.SOLV>
0

>  <SCORE.INTRA.SOLV.lig_0>
-4.1818

>  <SCORE.INTRA.VDW>
0

>  <SCORE.INTRA.VDW.0>
0

>  <SCORE.INTRA.norm>
0

>  <SCORE.RESTR>
0

>  <SCORE.RESTR.CAVITY>
0

>  <SCORE.RESTR.norm>
0

>  <SCORE.SYSTEM>
0

>  <SCORE.SYSTEM.CONST>
0

>  <SCORE.SYSTEM.DIHEDRAL>
0

>  <SCORE.SYSTEM.SOLV>
0

>  <SCORE.SYSTEM.norm>
0

>  <SCORE.heavy>
10

>  <SCORE.norm>
-2.36747

>  <RMSD>
1.225

$$$$
ligand
 OpenBabel11021811503D
libRbt.so/2013.1/901 2013/11/27
 10 11  0  0  0  0  0  0  0  0999 V2000
   18.9837   -4.6889    2.4781 N   0  0  0  0  0  0  0  0  0  0  0  0
   17.9784   -5.3071    3.0693 C   0  0  0  0  0  0  0  0  0  0  0  0
   16.9219   -4.5516    3.5888 N   0  0  0  0  0  0  0  0  0  0  0  0
   16.9477   -3.2149    3.4957 C   0  0  0  0  0  0  0  0  0  0  0  0
   17.9671   -2.5969    2.9038 C   0  0  0  0  0  0  0  0  0  0  0  0
   18.9755   -3.2930    2.3844 C   0  0  0  0  0  0  0  0  0  0  0  0
   19.9029   -2.7218    1.8132 O   0  0  0  0  0  0  0  0  0  0  0  0
   17.7705   -1.2865    3.0204 N   0  0  0  0  0  0  0  0  0  0  0  0
   16.6311   -1.0927    3.6772 C   0  0  0  0  0  0  0  0  0  0  0  0
   16.1196   -2.2867    3.9635 N   0  0  0  0  0  0  0  0  0  0  0  0
  1  2  1  0  0  0  0
  1  6  1  0  0  0  0
  2  3  2  0  0  0  0
  3  4  1  0  0  0  0
  4  5  2  0  0  0  0
  4 10  1  0  0  0  0
  5  6  1  0  0  0  0
  5  8  1  0  0  0  0
  6  7  2  0  0  0  0
  8  9  1  0  0  0  0
  9 10  2  0  0  0  0
M  END
>  <CHROM.1>
17.86033809,-3.09849791,3.01589172,0.73489600,-0.51703269,3.10148706

>  <Name>
ligand

>  <RI>
0

>  <Rbt.Current_Directory>
/home/itssahil/PROJECTS/Mol_Feturizer/New_Systems/rnas/4NYD

>  <Rbt.Executable>
rbdock ($Id: //depot/dev/client3/rdock/2013.1/src/exe/rbdock.cxx#4 $)

>  <Rbt.Library>
libRbt.so (2013.1, Build901 2013/11/27)

>  <Rbt.Parameter_File>
/export/apps/rDock/src/rDock_2013.1_src/data/scripts/dock_solv.prm

>  <Rbt.Receptor>
prm/blind_docking_40.prm

>  <SCORE>
-23.6581

>  <SCORE.INTER>
-23.6581

>  <SCORE.INTER.CONST>
1

>  <SCORE.INTER.POLAR>
0

>  <SCORE.INTER.ROT>
0

>  <SCORE.INTER.SOLV>
3.39143

>  <SCORE.INTER.VDW>
-20.5025

>  <SCORE.INTER.norm>
-2.36581

>  <SCORE.INTRA>
0

>  <SCORE.INTRA.DIHEDRAL>
0

>  <SCORE.INTRA.DIHEDRAL.0>
0

>  <SCORE.INTRA.POLAR>
0

>  <SCORE.INTRA.POLAR.0>
0

>  <SCORE.INTRA.REPUL>
0

>  <SCORE.INTRA.REPUL.0>
0

>  <SCORE.INTRA.SOLV>
0

>  <SCORE.INTRA.SOLV.lig_0>
-4.1818

>  <SCORE.INTRA.VDW>
0

>  <SCORE.INTRA.VDW.0>
0

>  <SCORE.INTRA.norm>
0

>  <SCORE.RESTR>
0

>  <SCORE.RESTR.CAVITY>
0

>  <SCORE.RESTR.norm>
0

>  <SCORE.SYSTEM>
0

>  <SCORE.SYSTEM.CONST>
0

>  <SCORE.SYSTEM.DIHEDRAL>
0

>  <SCORE.SYSTEM.SOLV>
0

>  <SCORE.SYSTEM.norm>
0

>  <SCORE.heavy>
10

>  <SCORE.norm>
-2.36581

>  <RMSD>
1.225

$$$$
ligand
 OpenBabel11021811503D
libRbt.so/2013.1/901 2013/11/27
 10 11  0  0  0  0  0  0  0  0999 V2000
   18.9180   -4.7801    2.5896 N   0  0  0  0  0  0  0  0  0  0  0  0
   17.8646   -5.2817    3.2069 C   0  0  0  0  0  0  0  0  0  0  0  0
   16.8586   -4.4183    3.6533 N   0  0  0  0  0  0  0  0  0  0  0  0
   16.9804   -3.0970    3.4649 C   0  0  0  0  0  0  0  0  0  0  0  0
   18.0478   -2.5966    2.8472 C   0  0  0  0  0  0  0  0  0  0  0  0
   19.0101   -3.3976    2.3959 C   0  0  0  0  0  0  0  0  0  0  0  0
   19.9823   -2.9358    1.8006 O   0  0  0  0  0  0  0  0  0  0  0  0
   17.9435   -1.2707    2.8662 N   0  0  0  0  0  0  0  0  0  0  0  0
   16.8133   -0.9503    3.4884 C   0  0  0  0  0  0  0  0  0  0  0  0
   16.2150   -2.0814    3.8511 N   0  0  0  0  0  0  0  0  0  0  0  0
  1  2  1  0  0  0  0
  1  6  1  0  0  0  0
  2  3  2  0  0  0  0
  3  4  1  0  0  0  0
  4  5  2  0  0  0  0
  4 10  1  0  0  0  0
  5  6  1  0  0  0  0
  5  8  1  0  0  0  0
  6  7  2  0  0  0  0
  8  9  1  0  0  0  0
  9 10  2  0  0  0  0
M  END
>  <CHROM.1>
17.90441600,-3.07998987,2.99319177,0.81673054,-0.50696025,3.06917903

>  <Name>
ligand

>  <RI>
0

>  <Rbt.Current_Directory>
/home/itssahil/PROJECTS/Mol_Feturizer/New_Systems/rnas/4NYD

>  <Rbt.Executable>
rbdock ($Id: //depot/dev/client3/rdock/2013.1/src/exe/rbdock.cxx#4 $)

>  <Rbt.Library>
libRbt.so (2013.1, Build901 2013/11/27)

>  <Rbt.Parameter_File>
/export/apps/rDock/src/rDock_2013.1_src/data/scripts/dock_solv.prm

>  <Rbt.Receptor>
prm/pocket_docking_5.prm

>  <SCORE>
-23.6858

>  <SCORE.INTER>
-23.6858

>  <SCORE.INTER.CONST>
1

>  <SCORE.INTER.POLAR>
0

>  <SCORE.INTER.ROT>
0

>  <SCORE.INTER.SOLV>
3.33377

>  <SCORE.INTER.VDW>
-20.5018

>  <SCORE.INTER.norm>
-2.36858

>  <SCORE.INTRA>
0

>  <SCORE.INTRA.DIHEDRAL>
0

>  <SCORE.INTRA.DIHEDRAL.0>
0

>  <SCORE.INTRA.POLAR>
0

>  <SCORE.INTRA.POLAR.0>
0

>  <SCORE.INTRA.REPUL>
0

>  <SCORE.INTRA.REPUL.0>
0

>  <SCORE.INTRA.SOLV>
0

>  <SCORE.INTRA.SOLV.lig_0>
-4.1818

>  <SCORE.INTRA.VDW>
0

>  <SCORE.INTRA.VDW.0>
0

>  <SCORE.INTRA.norm>
0

>  <SCORE.RESTR>
0

>  <SCORE.RESTR.CAVITY>
0

>  <SCORE.RESTR.norm>
0

>  <SCORE.SYSTEM>
0

>  <SCORE.SYSTEM.CONST>
0

>  <SCORE.SYSTEM.DIHEDRAL>
0

>  <SCORE.SYSTEM.SOLV>
0

>  <SCORE.SYSTEM.norm>
0

>  <SCORE.heavy>
10

>  <SCORE.norm>
-2.36858

>  <RMSD>
1.225

$$$$
ligand
 OpenBabel11021811503D
libRbt.so/2013.1/901 2013/11/27
 10 11  0  0  0  0  0  0  0  0999 V2000
   18.9350   -4.7677    2.5885 N   0  0  0  0  0  0  0  0  0  0  0  0
   17.8927   -5.2874    3.2096 C   0  0  0  0  0  0  0  0  0  0  0  0
   16.8781   -4.4406    3.6684 N   0  0  0  0  0  0  0  0  0  0  0  0
   16.9808   -3.1166    3.4877 C   0  0  0  0  0  0  0  0  0  0  0  0
   18.0371   -2.5978    2.8661 C   0  0  0  0  0  0  0  0  0  0  0  0
   19.0070   -3.3828    2.4031 C   0  0  0  0  0  0  0  0  0  0  0  0
   19.9688   -2.9041    1.8043 O   0  0  0  0  0  0  0  0  0  0  0  0
   17.9149   -1.2736    2.8943 N   0  0  0  0  0  0  0  0  0  0  0  0
   16.7848   -0.9725    3.5262 C   0  0  0  0  0  0  0  0  0  0  0  0
   16.2044   -2.1140    3.8856 N   0  0  0  0  0  0  0  0  0  0  0  0
  1  2  1  0  0  0  0
  1  6  1  0  0  0  0
  2  3  2  0  0  0  0
  3  4  1  0  0  0  0
  4  5  2  0  0  0  0
  4 10  1  0  0  0  0
  5  6  1  0  0  0  0
  5  8  1  0  0  0  0
  6  7  2  0  0  0  0
  8  9  1  0  0  0  0
  9 10  2  0  0  0  0
M  END
>  <CHROM.1>
17.90122658,-3.08405713,3.00990432,0.80068002,-0.51274951,3.06775260

>  <Name>
ligand

>  <RI>
0

>  <Rbt.Current_Directory>
/home/itssahil/PROJECTS/Mol_Feturizer/New_Systems/rnas/4NYD

>  <Rbt.Executable>
rbdock ($Id: //depot/dev/client3/rdock/2013.1/src/exe/rbdock.cxx#4 $)

>  <Rbt.Library>
libRbt.so (2013.1, Build901 2013/11/27)

>  <Rbt.Parameter_File>
/export/apps/rDock/src/rDock_2013.1_src/data/scripts/dock_solv.prm

>  <Rbt.Receptor>
prm/pocket_docking_6.prm

>  <SCORE>
-23.6871

>  <SCORE.INTER>
-23.6871

>  <SCORE.INTER.CONST>
1

>  <SCORE.INTER.POLAR>
0

>  <SCORE.INTER.ROT>
0

>  <SCORE.INTER.SOLV>
3.35379

>  <SCORE.INTER.VDW>
-20.5093

>  <SCORE.INTER.norm>
-2.36871

>  <SCORE.INTRA>
0

>  <SCORE.INTRA.DIHEDRAL>
0

>  <SCORE.INTRA.DIHEDRAL.0>
0

>  <SCORE.INTRA.POLAR>
0

>  <SCORE.INTRA.POLAR.0>
0

>  <SCORE.INTRA.REPUL>
0

>  <SCORE.INTRA.REPUL.0>
0

>  <SCORE.INTRA.SOLV>
0

>  <SCORE.INTRA.SOLV.lig_0>
-4.1818

>  <SCORE.INTRA.VDW>
0

>  <SCORE.INTRA.VDW.0>
0

>  <SCORE.INTRA.norm>
0

>  <SCORE.RESTR>
0

>  <SCORE.RESTR.CAVITY>
0

>  <SCORE.RESTR.norm>
0

>  <SCORE.SYSTEM>
0

>  <SCORE.SYSTEM.CONST>
0

>  <SCORE.SYSTEM.DIHEDRAL>
0

>  <SCORE.SYSTEM.SOLV>
0

>  <SCORE.SYSTEM.norm>
0

>  <SCORE.heavy>
10

>  <SCORE.norm>
-2.36871

>  <RMSD>
1.226

$$$$
ligand
 OpenBabel11021811503D
libRbt.so/2013.1/901 2013/11/27
 10 11  0  0  0  0  0  0  0  0999 V2000
   18.9116   -4.7823    2.5793 N   0  0  0  0  0  0  0  0  0  0  0  0
   17.8657   -5.2820    3.2108 C   0  0  0  0  0  0  0  0  0  0  0  0
   16.8666   -4.4169    3.6694 N   0  0  0  0  0  0  0  0  0  0  0  0
   16.9875   -3.0960    3.4781 C   0  0  0  0  0  0  0  0  0  0  0  0
   18.0473   -2.5975    2.8459 C   0  0  0  0  0  0  0  0  0  0  0  0
   19.0027   -3.4000    2.3829 C   0  0  0  0  0  0  0  0  0  0  0  0
   19.9675   -2.9400    1.7745 O   0  0  0  0  0  0  0  0  0  0  0  0
   17.9447   -1.2714    2.8649 N   0  0  0  0  0  0  0  0  0  0  0  0
   16.8231   -0.9490    3.5014 C   0  0  0  0  0  0  0  0  0  0  0  0
   16.2284   -2.0791    3.8731 N   0  0  0  0  0  0  0  0  0  0  0  0
  1  2  1  0  0  0  0
  1  6  1  0  0  0  0
  2  3  2  0  0  0  0
  3  4  1  0  0  0  0
  4  5  2  0  0  0  0
  4 10  1  0  0  0  0
  5  6  1  0  0  0  0
  5  8  1  0  0  0  0
  6  7  2  0  0  0  0
  8  9  1  0  0  0  0
  9 10  2  0  0  0  0
M  END
>  <CHROM.1>
17.90525108,-3.08054264,2.99428846,0.81695666,-0.52007557,3.06823319

>  <Name>
ligand

>  <RI>
0

>  <Rbt.Current_Directory>
/home/itssahil/PROJECTS/Mol_Feturizer/New_Systems/rnas/4NYD

>  <Rbt.Executable>
rbdock ($Id: //depot/dev/client3/rdock/2013.1/src/exe/rbdock.cxx#4 $)

>  <Rbt.Library>
libRbt.so (2013.1, Build901 2013/11/27)

>  <Rbt.Parameter_File>
/export/apps/rDock/src/rDock_2013.1_src/data/scripts/dock_solv.prm

>  <Rbt.Receptor>
prm/blind_docking_100.prm

>  <SCORE>
-23.7331

>  <SCORE.INTER>
-23.7331

>  <SCORE.INTER.CONST>
1

>  <SCORE.INTER.POLAR>
0

>  <SCORE.INTER.ROT>
0

>  <SCORE.INTER.SOLV>
3.34292

>  <SCORE.INTER.VDW>
-20.5364

>  <SCORE.INTER.norm>
-2.37331

>  <SCORE.INTRA>
0

>  <SCORE.INTRA.DIHEDRAL>
0

>  <SCORE.INTRA.DIHEDRAL.0>
0

>  <SCORE.INTRA.POLAR>
0

>  <SCORE.INTRA.POLAR.0>
0

>  <SCORE.INTRA.REPUL>
0

>  <SCORE.INTRA.REPUL.0>
0

>  <SCORE.INTRA.SOLV>
0

>  <SCORE.INTRA.SOLV.lig_0>
-4.1818

>  <SCORE.INTRA.VDW>
0

>  <SCORE.INTRA.VDW.0>
0

>  <SCORE.INTRA.norm>
0

>  <SCORE.RESTR>
0

>  <SCORE.RESTR.CAVITY>
0

>  <SCORE.RESTR.norm>
0

>  <SCORE.SYSTEM>
0

>  <SCORE.SYSTEM.CONST>
0

>  <SCORE.SYSTEM.DIHEDRAL>
0

>  <SCORE.SYSTEM.SOLV>
0

>  <SCORE.SYSTEM.norm>
0

>  <SCORE.heavy>
10

>  <SCORE.norm>
-2.37331

>  <RMSD>
1.227

$$$$
ligand
 OpenBabel11021811503D
libRbt.so/2013.1/901 2013/11/27
 10 11  0  0  0  0  0  0  0  0999 V2000
   18.9311   -4.7507    2.5570 N   0  0  0  0  0  0  0  0  0  0  0  0
   17.9023   -5.2807    3.1917 C   0  0  0  0  0  0  0  0  0  0  0  0
   16.8902   -4.4430    3.6723 N   0  0  0  0  0  0  0  0  0  0  0  0
   16.9819   -3.1173    3.4983 C   0  0  0  0  0  0  0  0  0  0  0  0
   18.0247   -2.5882    2.8627 C   0  0  0  0  0  0  0  0  0  0  0  0
   18.9917   -3.3643    2.3791 C   0  0  0  0  0  0  0  0  0  0  0  0
   19.9406   -2.8760    1.7676 O   0  0  0  0  0  0  0  0  0  0  0  0
   17.8950   -1.2649    2.9013 N   0  0  0  0  0  0  0  0  0  0  0  0
   16.7735   -0.9747    3.5534 C   0  0  0  0  0  0  0  0  0  0  0  0
   16.2060   -2.1219    3.9150 N   0  0  0  0  0  0  0  0  0  0  0  0
  1  2  1  0  0  0  0
  1  6  1  0  0  0  0
  2  3  2  0  0  0  0
  3  4  1  0  0  0  0
  4  5  2  0  0  0  0
  4 10  1  0  0  0  0
  5  6  1  0  0  0  0
  5  8  1  0  0  0  0
  6  7  2  0  0  0  0
  8  9  1  0  0  0  0
  9 10  2  0  0  0  0
M  END
>  <CHROM.1>
17.89416106,-3.07610271,3.00571478,0.79227179,-0.52860230,3.06979334

>  <Name>
ligand

>  <RI>
0

>  <Rbt.Current_Directory>
/home/itssahil/PROJECTS/Mol_Feturizer/New_Systems/rnas/4NYD

>  <Rbt.Executable>
rbdock ($Id: //depot/dev/client3/rdock/2013.1/src/exe/rbdock.cxx#4 $)

>  <Rbt.Library>
libRbt.so (2013.1, Build901 2013/11/27)

>  <Rbt.Parameter_File>
/export/apps/rDock/src/rDock_2013.1_src/data/scripts/dock_solv.prm

>  <Rbt.Receptor>
prm/pocket_docking_3.prm

>  <SCORE>
-23.6763

>  <SCORE.INTER>
-23.6763

>  <SCORE.INTER.CONST>
1

>  <SCORE.INTER.POLAR>
0

>  <SCORE.INTER.ROT>
0

>  <SCORE.INTER.SOLV>
3.36391

>  <SCORE.INTER.VDW>
-20.5055

>  <SCORE.INTER.norm>
-2.36763

>  <SCORE.INTRA>
0

>  <SCORE.INTRA.DIHEDRAL>
0

>  <SCORE.INTRA.DIHEDRAL.0>
0

>  <SCORE.INTRA.POLAR>
0

>  <SCORE.INTRA.POLAR.0>
0

>  <SCORE.INTRA.REPUL>
0

>  <SCORE.INTRA.REPUL.0>
0

>  <SCORE.INTRA.SOLV>
0

>  <SCORE.INTRA.SOLV.lig_0>
-4.1818

>  <SCORE.INTRA.VDW>
0

>  <SCORE.INTRA.VDW.0>
0

>  <SCORE.INTRA.norm>
0

>  <SCORE.RESTR>
0

>  <SCORE.RESTR.CAVITY>
0

>  <SCORE.RESTR.norm>
0

>  <SCORE.SYSTEM>
0

>  <SCORE.SYSTEM.CONST>
0

>  <SCORE.SYSTEM.DIHEDRAL>
0

>  <SCORE.SYSTEM.SOLV>
0

>  <SCORE.SYSTEM.norm>
0

>  <SCORE.heavy>
10

>  <SCORE.norm>
-2.36763

>  <RMSD>
1.227

$$$$
ligand
 OpenBabel11021811503D
libRbt.so/2013.1/901 2013/11/27
 10 11  0  0  0  0  0  0  0  0999 V2000
   18.8955   -4.7839    2.5779 N   0  0  0  0  0  0  0  0  0  0  0  0
   17.8293   -5.2746    3.1817 C   0  0  0  0  0  0  0  0  0  0  0  0
   16.8319   -4.3999    3.6255 N   0  0  0  0  0  0  0  0  0  0  0  0
   16.9747   -3.0791    3.4482 C   0  0  0  0  0  0  0  0  0  0  0  0
   18.0550   -2.5899    2.8441 C   0  0  0  0  0  0  0  0  0  0  0  0
   19.0096   -3.4015    2.3955 C   0  0  0  0  0  0  0  0  0  0  0  0
   19.9938   -2.9497    1.8126 O   0  0  0  0  0  0  0  0  0  0  0  0
   17.9698   -1.2627    2.8722 N   0  0  0  0  0  0  0  0  0  0  0  0
   16.8387   -0.9304    3.4864 C   0  0  0  0  0  0  0  0  0  0  0  0
   16.2207   -2.0554    3.8351 N   0  0  0  0  0  0  0  0  0  0  0  0
  1  2  1  0  0  0  0
  1  6  1  0  0  0  0
  2  3  2  0  0  0  0
  3  4  1  0  0  0  0
  4  5  2  0  0  0  0
  4 10  1  0  0  0  0
  5  6  1  0  0  0  0
  5  8  1  0  0  0  0
  6  7  2  0  0  0  0
  8  9  1  0  0  0  0
  9 10  2  0  0  0  0
M  END
>  <CHROM.1>
17.90316639,-3.07219051,2.98508580,0.83408122,-0.49876473,3.08504853

>  <Name>
ligand

>  <RI>
0

>  <Rbt.Current_Directory>
/home/itssahil/PROJECTS/Mol_Feturizer/New_Systems/rnas/4NYD

>  <Rbt.Executable>
rbdock ($Id: //depot/dev/client3/rdock/2013.1/src/exe/rbdock.cxx#4 $)

>  <Rbt.Library>
libRbt.so (2013.1, Build901 2013/11/27)

>  <Rbt.Parameter_File>
/export/apps/rDock/src/rDock_2013.1_src/data/scripts/dock_solv.prm

>  <Rbt.Receptor>
prm/pocket_docking_3.prm

>  <SCORE>
-23.6902

>  <SCORE.INTER>
-23.6902

>  <SCORE.INTER.CONST>
1

>  <SCORE.INTER.POLAR>
0

>  <SCORE.INTER.ROT>
0

>  <SCORE.INTER.SOLV>
3.33673

>  <SCORE.INTER.VDW>
-20.5057

>  <SCORE.INTER.norm>
-2.36902

>  <SCORE.INTRA>
0

>  <SCORE.INTRA.DIHEDRAL>
0

>  <SCORE.INTRA.DIHEDRAL.0>
0

>  <SCORE.INTRA.POLAR>
0

>  <SCORE.INTRA.POLAR.0>
0

>  <SCORE.INTRA.REPUL>
0

>  <SCORE.INTRA.REPUL.0>
0

>  <SCORE.INTRA.SOLV>
0

>  <SCORE.INTRA.SOLV.lig_0>
-4.1818

>  <SCORE.INTRA.VDW>
0

>  <SCORE.INTRA.VDW.0>
0

>  <SCORE.INTRA.norm>
0

>  <SCORE.RESTR>
0

>  <SCORE.RESTR.CAVITY>
0

>  <SCORE.RESTR.norm>
0

>  <SCORE.SYSTEM>
0

>  <SCORE.SYSTEM.CONST>
0

>  <SCORE.SYSTEM.DIHEDRAL>
0

>  <SCORE.SYSTEM.SOLV>
0

>  <SCORE.SYSTEM.norm>
0

>  <SCORE.heavy>
10

>  <SCORE.norm>
-2.36902

>  <RMSD>
1.227

$$$$
ligand
 OpenBabel11021811503D
libRbt.so/2013.1/901 2013/11/27
 10 11  0  0  0  0  0  0  0  0999 V2000
   18.9096   -4.7898    2.5802 N   0  0  0  0  0  0  0  0  0  0  0  0
   17.8633   -5.2868    3.2130 C   0  0  0  0  0  0  0  0  0  0  0  0
   16.8650   -4.4196    3.6692 N   0  0  0  0  0  0  0  0  0  0  0  0
   16.9872   -3.0993    3.4745 C   0  0  0  0  0  0  0  0  0  0  0  0
   18.0475   -2.6034    2.8411 C   0  0  0  0  0  0  0  0  0  0  0  0
   19.0022   -3.4082    2.3803 C   0  0  0  0  0  0  0  0  0  0  0  0
   19.9675   -2.9507    1.7707 O   0  0  0  0  0  0  0  0  0  0  0  0
   17.9462   -1.2772    2.8566 N   0  0  0  0  0  0  0  0  0  0  0  0
   16.8249   -0.9521    3.4922 C   0  0  0  0  0  0  0  0  0  0  0  0
   16.2290   -2.0806    3.8668 N   0  0  0  0  0  0  0  0  0  0  0  0
  1  2  1  0  0  0  0
  1  6  1  0  0  0  0
  2  3  2  0  0  0  0
  3  4  1  0  0  0  0
  4  5  2  0  0  0  0
  4 10  1  0  0  0  0
  5  6  1  0  0  0  0
  5  8  1  0  0  0  0
  6  7  2  0  0  0  0
  8  9  1  0  0  0  0
  9 10  2  0  0  0  0
M  END
>  <CHROM.1>
17.90498330,-3.08599446,2.99072654,0.81810221,-0.52007985,3.06621237

>  <Name>
ligand

>  <RI>
0

>  <Rbt.Current_Directory>
/home/itssahil/PROJECTS/Mol_Feturizer/New_Systems/rnas/4NYD

>  <Rbt.Executable>
rbdock ($Id: //depot/dev/client3/rdock/2013.1/src/exe/rbdock.cxx#4 $)

>  <Rbt.Library>
libRbt.so (2013.1, Build901 2013/11/27)

>  <Rbt.Parameter_File>
/export/apps/rDock/src/rDock_2013.1_src/data/scripts/dock_solv.prm

>  <Rbt.Receptor>
prm/pocket_docking_6.prm

>  <SCORE>
-23.7291

>  <SCORE.INTER>
-23.7291

>  <SCORE.INTER.CONST>
1

>  <SCORE.INTER.POLAR>
0

>  <SCORE.INTER.ROT>
0

>  <SCORE.INTER.SOLV>
3.33605

>  <SCORE.INTER.VDW>
-20.5314

>  <SCORE.INTER.norm>
-2.37291

>  <SCORE.INTRA>
0

>  <SCORE.INTRA.DIHEDRAL>
0

>  <SCORE.INTRA.DIHEDRAL.0>
0

>  <SCORE.INTRA.POLAR>
0

>  <SCORE.INTRA.POLAR.0>
0

>  <SCORE.INTRA.REPUL>
0

>  <SCORE.INTRA.REPUL.0>
0

>  <SCORE.INTRA.SOLV>
0

>  <SCORE.INTRA.SOLV.lig_0>
-4.1818

>  <SCORE.INTRA.VDW>
0

>  <SCORE.INTRA.VDW.0>
0

>  <SCORE.INTRA.norm>
0

>  <SCORE.RESTR>
0

>  <SCORE.RESTR.CAVITY>
0

>  <SCORE.RESTR.norm>
0

>  <SCORE.SYSTEM>
0

>  <SCORE.SYSTEM.CONST>
0

>  <SCORE.SYSTEM.DIHEDRAL>
0

>  <SCORE.SYSTEM.SOLV>
0

>  <SCORE.SYSTEM.norm>
0

>  <SCORE.heavy>
10

>  <SCORE.norm>
-2.37291

>  <RMSD>
1.228

$$$$
ligand
 OpenBabel11021811503D
libRbt.so/2013.1/901 2013/11/27
 10 11  0  0  0  0  0  0  0  0999 V2000
   18.9146   -4.7759    2.5870 N   0  0  0  0  0  0  0  0  0  0  0  0
   17.8666   -5.2773    3.2136 C   0  0  0  0  0  0  0  0  0  0  0  0
   16.8647   -4.4138    3.6688 N   0  0  0  0  0  0  0  0  0  0  0  0
   16.9850   -3.0925    3.4793 C   0  0  0  0  0  0  0  0  0  0  0  0
   18.0469   -2.5923    2.8521 C   0  0  0  0  0  0  0  0  0  0  0  0
   19.0051   -3.3934    2.3923 C   0  0  0  0  0  0  0  0  0  0  0  0
   19.9720   -2.9317    1.7885 O   0  0  0  0  0  0  0  0  0  0  0  0
   17.9429   -1.2663    2.8720 N   0  0  0  0  0  0  0  0  0  0  0  0
   16.8183   -0.9458    3.5041 C   0  0  0  0  0  0  0  0  0  0  0  0
   16.2232   -2.0768    3.8722 N   0  0  0  0  0  0  0  0  0  0  0  0
  1  2  1  0  0  0  0
  1  6  1  0  0  0  0
  2  3  2  0  0  0  0
  3  4  1  0  0  0  0
  4  5  2  0  0  0  0
  4 10  1  0  0  0  0
  5  6  1  0  0  0  0
  5  8  1  0  0  0  0
  6  7  2  0  0  0  0
  8  9  1  0  0  0  0
  9 10  2  0  0  0  0
M  END
>  <CHROM.1>
17.90477072,-3.07563145,2.99942795,0.81611804,-0.51580505,3.06883197

>  <Name>
ligand

>  <RI>
0

>  <Rbt.Current_Directory>
/home/itssahil/PROJECTS/Mol_Feturizer/New_Systems/rnas/4NYD

>  <Rbt.Executable>
rbdock ($Id: //depot/dev/client3/rdock/2013.1/src/exe/rbdock.cxx#4 $)

>  <Rbt.Library>
libRbt.so (2013.1, Build901 2013/11/27)

>  <Rbt.Parameter_File>
/export/apps/rDock/src/rDock_2013.1_src/data/scripts/dock_solv.prm

>  <Rbt.Receptor>
prm/pocket_docking_8.prm

>  <SCORE>
-23.7316

>  <SCORE.INTER>
-23.7316

>  <SCORE.INTER.CONST>
1

>  <SCORE.INTER.POLAR>
0

>  <SCORE.INTER.ROT>
0

>  <SCORE.INTER.SOLV>
3.34724

>  <SCORE.INTER.VDW>
-20.5368

>  <SCORE.INTER.norm>
-2.37316

>  <SCORE.INTRA>
0

>  <SCORE.INTRA.DIHEDRAL>
0

>  <SCORE.INTRA.DIHEDRAL.0>
0

>  <SCORE.INTRA.POLAR>
0

>  <SCORE.INTRA.POLAR.0>
0

>  <SCORE.INTRA.REPUL>
0

>  <SCORE.INTRA.REPUL.0>
0

>  <SCORE.INTRA.SOLV>
0

>  <SCORE.INTRA.SOLV.lig_0>
-4.1818

>  <SCORE.INTRA.VDW>
0

>  <SCORE.INTRA.VDW.0>
0

>  <SCORE.INTRA.norm>
0

>  <SCORE.RESTR>
0

>  <SCORE.RESTR.CAVITY>
0

>  <SCORE.RESTR.norm>
0

>  <SCORE.SYSTEM>
0

>  <SCORE.SYSTEM.CONST>
0

>  <SCORE.SYSTEM.DIHEDRAL>
0

>  <SCORE.SYSTEM.SOLV>
0

>  <SCORE.SYSTEM.norm>
0

>  <SCORE.heavy>
10

>  <SCORE.norm>
-2.37316

>  <RMSD>
1.228

$$$$
ligand
 OpenBabel11021811503D
libRbt.so/2013.1/901 2013/11/27
 10 11  0  0  0  0  0  0  0  0999 V2000
   18.9085   -4.7763    2.5462 N   0  0  0  0  0  0  0  0  0  0  0  0
   17.8751   -5.2897    3.1871 C   0  0  0  0  0  0  0  0  0  0  0  0
   16.8757   -4.4365    3.6669 N   0  0  0  0  0  0  0  0  0  0  0  0
   16.9840   -3.1130    3.4858 C   0  0  0  0  0  0  0  0  0  0  0  0
   18.0314   -2.6007    2.8440 C   0  0  0  0  0  0  0  0  0  0  0  0
   18.9865   -3.3917    2.3610 C   0  0  0  0  0  0  0  0  0  0  0  0
   19.9395   -2.9189    1.7439 O   0  0  0  0  0  0  0  0  0  0  0  0
   17.9190   -1.2757    2.8763 N   0  0  0  0  0  0  0  0  0  0  0  0
   16.8037   -0.9677    3.5307 C   0  0  0  0  0  0  0  0  0  0  0  0
   16.2226   -2.1056    3.9002 N   0  0  0  0  0  0  0  0  0  0  0  0
  1  2  1  0  0  0  0
  1  6  1  0  0  0  0
  2  3  2  0  0  0  0
  3  4  1  0  0  0  0
  4  5  2  0  0  0  0
  4 10  1  0  0  0  0
  5  6  1  0  0  0  0
  5  8  1  0  0  0  0
  6  7  2  0  0  0  0
  8  9  1  0  0  0  0
  9 10  2  0  0  0  0
M  END
>  <CHROM.1>
17.89503384,-3.08616979,2.98995113,0.80702831,-0.53295628,3.07220919

>  <Name>
ligand

>  <RI>
0

>  <Rbt.Current_Directory>
/home/itssahil/PROJECTS/Mol_Feturizer/New_Systems/rnas/4NYD

>  <Rbt.Executable>
rbdock ($Id: //depot/dev/client3/rdock/2013.1/src/exe/rbdock.cxx#4 $)

>  <Rbt.Library>
libRbt.so (2013.1, Build901 2013/11/27)

>  <Rbt.Parameter_File>
/export/apps/rDock/src/rDock_2013.1_src/data/scripts/dock_solv.prm

>  <Rbt.Receptor>
prm/blind_docking_40.prm

>  <SCORE>
-23.667

>  <SCORE.INTER>
-23.667

>  <SCORE.INTER.CONST>
1

>  <SCORE.INTER.POLAR>
0

>  <SCORE.INTER.ROT>
0

>  <SCORE.INTER.SOLV>
3.35254

>  <SCORE.INTER.VDW>
-20.4955

>  <SCORE.INTER.norm>
-2.3667

>  <SCORE.INTRA>
0

>  <SCORE.INTRA.DIHEDRAL>
0

>  <SCORE.INTRA.DIHEDRAL.0>
0

>  <SCORE.INTRA.POLAR>
0

>  <SCORE.INTRA.POLAR.0>
0

>  <SCORE.INTRA.REPUL>
0

>  <SCORE.INTRA.REPUL.0>
0

>  <SCORE.INTRA.SOLV>
0

>  <SCORE.INTRA.SOLV.lig_0>
-4.1818

>  <SCORE.INTRA.VDW>
0

>  <SCORE.INTRA.VDW.0>
0

>  <SCORE.INTRA.norm>
0

>  <SCORE.RESTR>
0

>  <SCORE.RESTR.CAVITY>
0

>  <SCORE.RESTR.norm>
0

>  <SCORE.SYSTEM>
0

>  <SCORE.SYSTEM.CONST>
0

>  <SCORE.SYSTEM.DIHEDRAL>
0

>  <SCORE.SYSTEM.SOLV>
0

>  <SCORE.SYSTEM.norm>
0

>  <SCORE.heavy>
10

>  <SCORE.norm>
-2.3667

>  <RMSD>
1.229

$$$$
ligand
 OpenBabel11021811503D
libRbt.so/2013.1/901 2013/11/27
 10 11  0  0  0  0  0  0  0  0999 V2000
   18.9120   -4.7796    2.5871 N   0  0  0  0  0  0  0  0  0  0  0  0
   17.8640   -5.2789    3.2153 C   0  0  0  0  0  0  0  0  0  0  0  0
   16.8639   -4.4135    3.6709 N   0  0  0  0  0  0  0  0  0  0  0  0
   16.9859   -3.0926    3.4802 C   0  0  0  0  0  0  0  0  0  0  0  0
   18.0479   -2.5944    2.8514 C   0  0  0  0  0  0  0  0  0  0  0  0
   19.0044   -3.3974    2.3912 C   0  0  0  0  0  0  0  0  0  0  0  0
   19.9713   -2.9377    1.7858 O   0  0  0  0  0  0  0  0  0  0  0  0
   17.9459   -1.2683    2.8702 N   0  0  0  0  0  0  0  0  0  0  0  0
   16.8225   -0.9455    3.5034 C   0  0  0  0  0  0  0  0  0  0  0  0
   16.2261   -2.0754    3.8730 N   0  0  0  0  0  0  0  0  0  0  0  0
  1  2  1  0  0  0  0
  1  6  1  0  0  0  0
  2  3  2  0  0  0  0
  3  4  1  0  0  0  0
  4  5  2  0  0  0  0
  4 10  1  0  0  0  0
  5  6  1  0  0  0  0
  5  8  1  0  0  0  0
  6  7  2  0  0  0  0
  8  9  1  0  0  0  0
  9 10  2  0  0  0  0
M  END
>  <CHROM.1>
17.90521351,-3.07746207,2.99924262,0.81774556,-0.51704373,3.06878176

>  <Name>
ligand

>  <RI>
0

>  <Rbt.Current_Directory>
/home/itssahil/PROJECTS/Mol_Feturizer/New_Systems/rnas/4NYD

>  <Rbt.Executable>
rbdock ($Id: //depot/dev/client3/rdock/2013.1/src/exe/rbdock.cxx#4 $)

>  <Rbt.Library>
libRbt.so (2013.1, Build901 2013/11/27)

>  <Rbt.Parameter_File>
/export/apps/rDock/src/rDock_2013.1_src/data/scripts/dock_solv.prm

>  <Rbt.Receptor>
prm/blind_docking_80.prm

>  <SCORE>
-23.7301

>  <SCORE.INTER>
-23.7301

>  <SCORE.INTER.CONST>
1

>  <SCORE.INTER.POLAR>
0

>  <SCORE.INTER.ROT>
0

>  <SCORE.INTER.SOLV>
3.3479

>  <SCORE.INTER.VDW>
-20.536

>  <SCORE.INTER.norm>
-2.37301

>  <SCORE.INTRA>
0

>  <SCORE.INTRA.DIHEDRAL>
0

>  <SCORE.INTRA.DIHEDRAL.0>
0

>  <SCORE.INTRA.POLAR>
0

>  <SCORE.INTRA.POLAR.0>
0

>  <SCORE.INTRA.REPUL>
0

>  <SCORE.INTRA.REPUL.0>
0

>  <SCORE.INTRA.SOLV>
0

>  <SCORE.INTRA.SOLV.lig_0>
-4.1818

>  <SCORE.INTRA.VDW>
0

>  <SCORE.INTRA.VDW.0>
0

>  <SCORE.INTRA.norm>
0

>  <SCORE.RESTR>
0

>  <SCORE.RESTR.CAVITY>
0

>  <SCORE.RESTR.norm>
0

>  <SCORE.SYSTEM>
0

>  <SCORE.SYSTEM.CONST>
0

>  <SCORE.SYSTEM.DIHEDRAL>
0

>  <SCORE.SYSTEM.SOLV>
0

>  <SCORE.SYSTEM.norm>
0

>  <SCORE.heavy>
10

>  <SCORE.norm>
-2.37301

>  <RMSD>
1.229

$$$$
ligand
 OpenBabel11021811503D
libRbt.so/2013.1/901 2013/11/27
 10 11  0  0  0  0  0  0  0  0999 V2000
   18.9594   -4.7310    2.5620 N   0  0  0  0  0  0  0  0  0  0  0  0
   17.9348   -5.2941    3.1747 C   0  0  0  0  0  0  0  0  0  0  0  0
   16.9043   -4.4861    3.6667 N   0  0  0  0  0  0  0  0  0  0  0  0
   16.9742   -3.1552    3.5259 C   0  0  0  0  0  0  0  0  0  0  0  0
   18.0128   -2.5927    2.9125 C   0  0  0  0  0  0  0  0  0  0  0  0
   18.9972   -3.3398    2.4185 C   0  0  0  0  0  0  0  0  0  0  0  0
   19.9424   -2.8203    1.8274 O   0  0  0  0  0  0  0  0  0  0  0  0
   17.8596   -1.2732    2.9821 N   0  0  0  0  0  0  0  0  0  0  0  0
   16.7278   -1.0185    3.6313 C   0  0  0  0  0  0  0  0  0  0  0  0
   16.1776   -2.1839    3.9600 N   0  0  0  0  0  0  0  0  0  0  0  0
  1  2  1  0  0  0  0
  1  6  1  0  0  0  0
  2  3  2  0  0  0  0
  3  4  1  0  0  0  0
  4  5  2  0  0  0  0
  4 10  1  0  0  0  0
  5  6  1  0  0  0  0
  5  8  1  0  0  0  0
  6  7  2  0  0  0  0
  8  9  1  0  0  0  0
  9 10  2  0  0  0  0
M  END
>  <CHROM.1>
17.88961755,-3.08613375,3.04239904,0.77282179,-0.51902471,3.08450261

>  <Name>
ligand

>  <RI>
0

>  <Rbt.Current_Directory>
/home/itssahil/PROJECTS/Mol_Feturizer/New_Systems/rnas/4NYD

>  <Rbt.Executable>
rbdock ($Id: //depot/dev/client3/rdock/2013.1/src/exe/rbdock.cxx#4 $)

>  <Rbt.Library>
libRbt.so (2013.1, Build901 2013/11/27)

>  <Rbt.Parameter_File>
/export/apps/rDock/src/rDock_2013.1_src/data/scripts/dock_solv.prm

>  <Rbt.Receptor>
prm/blind_docking_80.prm

>  <SCORE>
-23.6632

>  <SCORE.INTER>
-23.6632

>  <SCORE.INTER.CONST>
1

>  <SCORE.INTER.POLAR>
0

>  <SCORE.INTER.ROT>
0

>  <SCORE.INTER.SOLV>
3.40481

>  <SCORE.INTER.VDW>
-20.5104

>  <SCORE.INTER.norm>
-2.36632

>  <SCORE.INTRA>
0

>  <SCORE.INTRA.DIHEDRAL>
0

>  <SCORE.INTRA.DIHEDRAL.0>
0

>  <SCORE.INTRA.POLAR>
0

>  <SCORE.INTRA.POLAR.0>
0

>  <SCORE.INTRA.REPUL>
0

>  <SCORE.INTRA.REPUL.0>
0

>  <SCORE.INTRA.SOLV>
0

>  <SCORE.INTRA.SOLV.lig_0>
-4.1818

>  <SCORE.INTRA.VDW>
0

>  <SCORE.INTRA.VDW.0>
0

>  <SCORE.INTRA.norm>
0

>  <SCORE.RESTR>
0

>  <SCORE.RESTR.CAVITY>
0

>  <SCORE.RESTR.norm>
0

>  <SCORE.SYSTEM>
0

>  <SCORE.SYSTEM.CONST>
0

>  <SCORE.SYSTEM.DIHEDRAL>
0

>  <SCORE.SYSTEM.SOLV>
0

>  <SCORE.SYSTEM.norm>
0

>  <SCORE.heavy>
10

>  <SCORE.norm>
-2.36632

>  <RMSD>
1.230

$$$$
ligand
 OpenBabel11021811503D
libRbt.so/2013.1/901 2013/11/27
 10 11  0  0  0  0  0  0  0  0999 V2000
   18.9180   -4.7628    2.6019 N   0  0  0  0  0  0  0  0  0  0  0  0
   17.8667   -5.2654    3.2218 C   0  0  0  0  0  0  0  0  0  0  0  0
   16.8620   -4.4028    3.6726 N   0  0  0  0  0  0  0  0  0  0  0  0
   16.9830   -3.0812    3.4858 C   0  0  0  0  0  0  0  0  0  0  0  0
   18.0484   -2.5798    2.8653 C   0  0  0  0  0  0  0  0  0  0  0  0
   19.0093   -3.3800    2.4098 C   0  0  0  0  0  0  0  0  0  0  0  0
   19.9795   -2.9173    1.8121 O   0  0  0  0  0  0  0  0  0  0  0  0
   17.9439   -1.2539    2.8866 N   0  0  0  0  0  0  0  0  0  0  0  0
   16.8157   -0.9345    3.5128 C   0  0  0  0  0  0  0  0  0  0  0  0
   16.2187   -2.0663    3.8758 N   0  0  0  0  0  0  0  0  0  0  0  0
  1  2  1  0  0  0  0
  1  6  1  0  0  0  0
  2  3  2  0  0  0  0
  3  4  1  0  0  0  0
  4  5  2  0  0  0  0
  4 10  1  0  0  0  0
  5  6  1  0  0  0  0
  5  8  1  0  0  0  0
  6  7  2  0  0  0  0
  8  9  1  0  0  0  0
  9 10  2  0  0  0  0
M  END
>  <CHROM.1>
17.90549690,-3.06339765,3.01111245,0.81631813,-0.51015391,3.07039428

>  <Name>
ligand

>  <RI>
0

>  <Rbt.Current_Directory>
/home/itssahil/PROJECTS/Mol_Feturizer/New_Systems/rnas/4NYD

>  <Rbt.Executable>
rbdock ($Id: //depot/dev/client3/rdock/2013.1/src/exe/rbdock.cxx#4 $)

>  <Rbt.Library>
libRbt.so (2013.1, Build901 2013/11/27)

>  <Rbt.Parameter_File>
/export/apps/rDock/src/rDock_2013.1_src/data/scripts/dock_solv.prm

>  <Rbt.Receptor>
prm/blind_docking_40.prm

>  <SCORE>
-23.6889

>  <SCORE.INTER>
-23.6889

>  <SCORE.INTER.CONST>
1

>  <SCORE.INTER.POLAR>
0

>  <SCORE.INTER.ROT>
0

>  <SCORE.INTER.SOLV>
3.36111

>  <SCORE.INTER.VDW>
-20.513

>  <SCORE.INTER.norm>
-2.36889

>  <SCORE.INTRA>
0

>  <SCORE.INTRA.DIHEDRAL>
0

>  <SCORE.INTRA.DIHEDRAL.0>
0

>  <SCORE.INTRA.POLAR>
0

>  <SCORE.INTRA.POLAR.0>
0

>  <SCORE.INTRA.REPUL>
0

>  <SCORE.INTRA.REPUL.0>
0

>  <SCORE.INTRA.SOLV>
0

>  <SCORE.INTRA.SOLV.lig_0>
-4.1818

>  <SCORE.INTRA.VDW>
0

>  <SCORE.INTRA.VDW.0>
0

>  <SCORE.INTRA.norm>
0

>  <SCORE.RESTR>
0

>  <SCORE.RESTR.CAVITY>
0

>  <SCORE.RESTR.norm>
0

>  <SCORE.SYSTEM>
0

>  <SCORE.SYSTEM.CONST>
0

>  <SCORE.SYSTEM.DIHEDRAL>
0

>  <SCORE.SYSTEM.SOLV>
0

>  <SCORE.SYSTEM.norm>
0

>  <SCORE.heavy>
10

>  <SCORE.norm>
-2.36889

>  <RMSD>
1.231

$$$$
ligand
 OpenBabel11021811503D
libRbt.so/2013.1/901 2013/11/27
 10 11  0  0  0  0  0  0  0  0999 V2000
   18.9064   -4.7364    2.5696 N   0  0  0  0  0  0  0  0  0  0  0  0
   17.8745   -5.2342    3.2252 C   0  0  0  0  0  0  0  0  0  0  0  0
   16.8756   -4.3698    3.6856 N   0  0  0  0  0  0  0  0  0  0  0  0
   16.9829   -3.0512    3.4715 C   0  0  0  0  0  0  0  0  0  0  0  0
   18.0287   -2.5545    2.8152 C   0  0  0  0  0  0  0  0  0  0  0  0
   18.9833   -3.3569    2.3501 C   0  0  0  0  0  0  0  0  0  0  0  0
   19.9349   -2.8991    1.7195 O   0  0  0  0  0  0  0  0  0  0  0  0
   17.9158   -1.2292    2.8147 N   0  0  0  0  0  0  0  0  0  0  0  0
   16.8016   -0.9055    3.4635 C   0  0  0  0  0  0  0  0  0  0  0  0
   16.2218   -2.0341    3.8622 N   0  0  0  0  0  0  0  0  0  0  0  0
  1  2  1  0  0  0  0
  1  6  1  0  0  0  0
  2  3  2  0  0  0  0
  3  4  1  0  0  0  0
  4  5  2  0  0  0  0
  4 10  1  0  0  0  0
  5  6  1  0  0  0  0
  5  8  1  0  0  0  0
  6  7  2  0  0  0  0
  8  9  1  0  0  0  0
  9 10  2  0  0  0  0
M  END
>  <CHROM.1>
17.89291683,-3.03626703,2.97333656,0.80628730,-0.53487839,3.04700057

>  <Name>
ligand

>  <RI>
0

>  <Rbt.Current_Directory>
/home/itssahil/PROJECTS/Mol_Feturizer/New_Systems/rnas/4NYD

>  <Rbt.Executable>
rbdock ($Id: //depot/dev/client3/rdock/2013.1/src/exe/rbdock.cxx#4 $)

>  <Rbt.Library>
libRbt.so (2013.1, Build901 2013/11/27)

>  <Rbt.Parameter_File>
/export/apps/rDock/src/rDock_2013.1_src/data/scripts/dock_solv.prm

>  <Rbt.Receptor>
prm/blind_docking_100.prm

>  <SCORE>
-23.7009

>  <SCORE.INTER>
-23.7009

>  <SCORE.INTER.CONST>
1

>  <SCORE.INTER.POLAR>
0

>  <SCORE.INTER.ROT>
0

>  <SCORE.INTER.SOLV>
3.31699

>  <SCORE.INTER.VDW>
-20.5063

>  <SCORE.INTER.norm>
-2.37009

>  <SCORE.INTRA>
0

>  <SCORE.INTRA.DIHEDRAL>
0

>  <SCORE.INTRA.DIHEDRAL.0>
0

>  <SCORE.INTRA.POLAR>
0

>  <SCORE.INTRA.POLAR.0>
0

>  <SCORE.INTRA.REPUL>
0

>  <SCORE.INTRA.REPUL.0>
0

>  <SCORE.INTRA.SOLV>
0

>  <SCORE.INTRA.SOLV.lig_0>
-4.1818

>  <SCORE.INTRA.VDW>
0

>  <SCORE.INTRA.VDW.0>
0

>  <SCORE.INTRA.norm>
0

>  <SCORE.RESTR>
0

>  <SCORE.RESTR.CAVITY>
0

>  <SCORE.RESTR.norm>
0

>  <SCORE.SYSTEM>
0

>  <SCORE.SYSTEM.CONST>
0

>  <SCORE.SYSTEM.DIHEDRAL>
0

>  <SCORE.SYSTEM.SOLV>
0

>  <SCORE.SYSTEM.norm>
0

>  <SCORE.heavy>
10

>  <SCORE.norm>
-2.37009

>  <RMSD>
1.232

$$$$
ligand
 OpenBabel11021811503D
libRbt.so/2013.1/901 2013/11/27
 10 11  0  0  0  0  0  0  0  0999 V2000
   18.9903   -4.6606    2.5038 N   0  0  0  0  0  0  0  0  0  0  0  0
   17.9841   -5.2831    3.0890 C   0  0  0  0  0  0  0  0  0  0  0  0
   16.9205   -4.5323    3.6008 N   0  0  0  0  0  0  0  0  0  0  0  0
   16.9404   -3.1956    3.5065 C   0  0  0  0  0  0  0  0  0  0  0  0
   17.9606   -2.5731    2.9208 C   0  0  0  0  0  0  0  0  0  0  0  0
   18.9759   -3.2648    2.4087 C   0  0  0  0  0  0  0  0  0  0  0  0
   19.9042   -2.6896    1.8431 O   0  0  0  0  0  0  0  0  0  0  0  0
   17.7568   -1.2636    3.0348 N   0  0  0  0  0  0  0  0  0  0  0  0
   16.6122   -1.0748    3.6838 C   0  0  0  0  0  0  0  0  0  0  0  0
   16.1047   -2.2709    3.9679 N   0  0  0  0  0  0  0  0  0  0  0  0
  1  2  1  0  0  0  0
  1  6  1  0  0  0  0
  2  3  2  0  0  0  0
  3  4  1  0  0  0  0
  4  5  2  0  0  0  0
  4 10  1  0  0  0  0
  5  6  1  0  0  0  0
  5  8  1  0  0  0  0
  6  7  2  0  0  0  0
  8  9  1  0  0  0  0
  9 10  2  0  0  0  0
M  END
>  <CHROM.1>
17.85558209,-3.07514009,3.03265543,0.72959413,-0.51020869,3.09790709

>  <Name>
ligand

>  <RI>
0

>  <Rbt.Current_Directory>
/home/itssahil/PROJECTS/Mol_Feturizer/New_Systems/rnas/4NYD

>  <Rbt.Executable>
rbdock ($Id: //depot/dev/client3/rdock/2013.1/src/exe/rbdock.cxx#4 $)

>  <Rbt.Library>
libRbt.so (2013.1, Build901 2013/11/27)

>  <Rbt.Parameter_File>
/export/apps/rDock/src/rDock_2013.1_src/data/scripts/dock_solv.prm

>  <Rbt.Receptor>
prm/blind_docking_100.prm

>  <SCORE>
-23.7021

>  <SCORE.INTER>
-23.7021

>  <SCORE.INTER.CONST>
1

>  <SCORE.INTER.POLAR>
0

>  <SCORE.INTER.ROT>
0

>  <SCORE.INTER.SOLV>
3.39718

>  <SCORE.INTER.VDW>
-20.5338

>  <SCORE.INTER.norm>
-2.37021

>  <SCORE.INTRA>
0

>  <SCORE.INTRA.DIHEDRAL>
0

>  <SCORE.INTRA.DIHEDRAL.0>
0

>  <SCORE.INTRA.POLAR>
0

>  <SCORE.INTRA.POLAR.0>
0

>  <SCORE.INTRA.REPUL>
0

>  <SCORE.INTRA.REPUL.0>
0

>  <SCORE.INTRA.SOLV>
0

>  <SCORE.INTRA.SOLV.lig_0>
-4.1818

>  <SCORE.INTRA.VDW>
0

>  <SCORE.INTRA.VDW.0>
0

>  <SCORE.INTRA.norm>
0

>  <SCORE.RESTR>
0

>  <SCORE.RESTR.CAVITY>
0

>  <SCORE.RESTR.norm>
0

>  <SCORE.SYSTEM>
0

>  <SCORE.SYSTEM.CONST>
0

>  <SCORE.SYSTEM.DIHEDRAL>
0

>  <SCORE.SYSTEM.SOLV>
0

>  <SCORE.SYSTEM.norm>
0

>  <SCORE.heavy>
10

>  <SCORE.norm>
-2.37021

>  <RMSD>
1.232

$$$$
ligand
 OpenBabel11021811503D
libRbt.so/2013.1/901 2013/11/27
 10 11  0  0  0  0  0  0  0  0999 V2000
   18.9272   -4.7310    2.5865 N   0  0  0  0  0  0  0  0  0  0  0  0
   17.8770   -5.2572    3.1886 C   0  0  0  0  0  0  0  0  0  0  0  0
   16.8585   -4.4148    3.6467 N   0  0  0  0  0  0  0  0  0  0  0  0
   16.9652   -3.0887    3.4848 C   0  0  0  0  0  0  0  0  0  0  0  0
   18.0295   -2.5635    2.8824 C   0  0  0  0  0  0  0  0  0  0  0  0
   19.0035   -3.3440    2.4203 C   0  0  0  0  0  0  0  0  0  0  0  0
   19.9729   -2.8590    1.8391 O   0  0  0  0  0  0  0  0  0  0  0  0
   17.9090   -1.2396    2.9267 N   0  0  0  0  0  0  0  0  0  0  0  0
   16.7721   -0.9450    3.5494 C   0  0  0  0  0  0  0  0  0  0  0  0
   16.1858   -2.0901    3.8869 N   0  0  0  0  0  0  0  0  0  0  0  0
  1  2  1  0  0  0  0
  1  6  1  0  0  0  0
  2  3  2  0  0  0  0
  3  4  1  0  0  0  0
  4  5  2  0  0  0  0
  4 10  1  0  0  0  0
  5  6  1  0  0  0  0
  5  8  1  0  0  0  0
  6  7  2  0  0  0  0
  8  9  1  0  0  0  0
  9 10  2  0  0  0  0
M  END
>  <CHROM.1>
17.89120611,-3.05139767,3.01816909,0.80340000,-0.50127779,3.08231217

>  <Name>
ligand

>  <RI>
0

>  <Rbt.Current_Directory>
/home/itssahil/PROJECTS/Mol_Feturizer/New_Systems/rnas/4NYD

>  <Rbt.Executable>
rbdock ($Id: //depot/dev/client3/rdock/2013.1/src/exe/rbdock.cxx#4 $)

>  <Rbt.Library>
libRbt.so (2013.1, Build901 2013/11/27)

>  <Rbt.Parameter_File>
/export/apps/rDock/src/rDock_2013.1_src/data/scripts/dock_solv.prm

>  <Rbt.Receptor>
prm/blind_docking_60.prm

>  <SCORE>
-23.6605

>  <SCORE.INTER>
-23.6605

>  <SCORE.INTER.CONST>
1

>  <SCORE.INTER.POLAR>
0

>  <SCORE.INTER.ROT>
0

>  <SCORE.INTER.SOLV>
3.37093

>  <SCORE.INTER.VDW>
-20.4973

>  <SCORE.INTER.norm>
-2.36605

>  <SCORE.INTRA>
0

>  <SCORE.INTRA.DIHEDRAL>
0

>  <SCORE.INTRA.DIHEDRAL.0>
0

>  <SCORE.INTRA.POLAR>
0

>  <SCORE.INTRA.POLAR.0>
0

>  <SCORE.INTRA.REPUL>
0

>  <SCORE.INTRA.REPUL.0>
0

>  <SCORE.INTRA.SOLV>
0

>  <SCORE.INTRA.SOLV.lig_0>
-4.1818

>  <SCORE.INTRA.VDW>
0

>  <SCORE.INTRA.VDW.0>
0

>  <SCORE.INTRA.norm>
0

>  <SCORE.RESTR>
0

>  <SCORE.RESTR.CAVITY>
0

>  <SCORE.RESTR.norm>
0

>  <SCORE.SYSTEM>
0

>  <SCORE.SYSTEM.CONST>
0

>  <SCORE.SYSTEM.DIHEDRAL>
0

>  <SCORE.SYSTEM.SOLV>
0

>  <SCORE.SYSTEM.norm>
0

>  <SCORE.heavy>
10

>  <SCORE.norm>
-2.36605

>  <RMSD>
1.232

$$$$
ligand
 OpenBabel11021811503D
libRbt.so/2013.1/901 2013/11/27
 10 11  0  0  0  0  0  0  0  0999 V2000
   18.9917   -4.6501    2.4721 N   0  0  0  0  0  0  0  0  0  0  0  0
   18.0041   -5.2833    3.0771 C   0  0  0  0  0  0  0  0  0  0  0  0
   16.9431   -4.5439    3.6103 N   0  0  0  0  0  0  0  0  0  0  0  0
   16.9470   -3.2070    3.5161 C   0  0  0  0  0  0  0  0  0  0  0  0
   17.9486   -2.5737    2.9102 C   0  0  0  0  0  0  0  0  0  0  0  0
   18.9606   -3.2545    2.3777 C   0  0  0  0  0  0  0  0  0  0  0  0
   19.8713   -2.6695    1.7937 O   0  0  0  0  0  0  0  0  0  0  0  0
   17.7332   -1.2664    3.0286 N   0  0  0  0  0  0  0  0  0  0  0  0
   16.5999   -1.0898    3.7005 C   0  0  0  0  0  0  0  0  0  0  0  0
   16.1109   -2.2913    3.9944 N   0  0  0  0  0  0  0  0  0  0  0  0
  1  2  1  0  0  0  0
  1  6  1  0  0  0  0
  2  3  2  0  0  0  0
  3  4  1  0  0  0  0
  4  5  2  0  0  0  0
  4 10  1  0  0  0  0
  5  6  1  0  0  0  0
  5  8  1  0  0  0  0
  6  7  2  0  0  0  0
  8  9  1  0  0  0  0
  9 10  2  0  0  0  0
M  END
>  <CHROM.1>
17.85112306,-3.07680582,3.02397240,0.71631283,-0.52974266,3.09148988

>  <Name>
ligand

>  <RI>
0

>  <Rbt.Current_Directory>
/home/itssahil/PROJECTS/Mol_Feturizer/New_Systems/rnas/4NYD

>  <Rbt.Executable>
rbdock ($Id: //depot/dev/client3/rdock/2013.1/src/exe/rbdock.cxx#4 $)

>  <Rbt.Library>
libRbt.so (2013.1, Build901 2013/11/27)

>  <Rbt.Parameter_File>
/export/apps/rDock/src/rDock_2013.1_src/data/scripts/dock_solv.prm

>  <Rbt.Receptor>
prm/blind_docking_60.prm

>  <SCORE>
-23.7339

>  <SCORE.INTER>
-23.7339

>  <SCORE.INTER.CONST>
1

>  <SCORE.INTER.POLAR>
0

>  <SCORE.INTER.ROT>
0

>  <SCORE.INTER.SOLV>
3.39889

>  <SCORE.INTER.VDW>
-20.5555

>  <SCORE.INTER.norm>
-2.37339

>  <SCORE.INTRA>
0

>  <SCORE.INTRA.DIHEDRAL>
0

>  <SCORE.INTRA.DIHEDRAL.0>
0

>  <SCORE.INTRA.POLAR>
0

>  <SCORE.INTRA.POLAR.0>
0

>  <SCORE.INTRA.REPUL>
0

>  <SCORE.INTRA.REPUL.0>
0

>  <SCORE.INTRA.SOLV>
0

>  <SCORE.INTRA.SOLV.lig_0>
-4.1818

>  <SCORE.INTRA.VDW>
0

>  <SCORE.INTRA.VDW.0>
0

>  <SCORE.INTRA.norm>
0

>  <SCORE.RESTR>
0

>  <SCORE.RESTR.CAVITY>
0

>  <SCORE.RESTR.norm>
0

>  <SCORE.SYSTEM>
0

>  <SCORE.SYSTEM.CONST>
0

>  <SCORE.SYSTEM.DIHEDRAL>
0

>  <SCORE.SYSTEM.SOLV>
0

>  <SCORE.SYSTEM.norm>
0

>  <SCORE.heavy>
10

>  <SCORE.norm>
-2.37339

>  <RMSD>
1.233

$$$$
ligand
 OpenBabel11021811503D
libRbt.so/2013.1/901 2013/11/27
 10 11  0  0  0  0  0  0  0  0999 V2000
   18.9831   -4.6644    2.4780 N   0  0  0  0  0  0  0  0  0  0  0  0
   17.9867   -5.2899    3.0766 C   0  0  0  0  0  0  0  0  0  0  0  0
   16.9294   -4.5419    3.6053 N   0  0  0  0  0  0  0  0  0  0  0  0
   16.9456   -3.2050    3.5134 C   0  0  0  0  0  0  0  0  0  0  0  0
   17.9561   -2.5796    2.9141 C   0  0  0  0  0  0  0  0  0  0  0  0
   18.9650   -3.2685    2.3859 C   0  0  0  0  0  0  0  0  0  0  0  0
   19.8840   -2.6906    1.8080 O   0  0  0  0  0  0  0  0  0  0  0  0
   17.7518   -1.2707    3.0337 N   0  0  0  0  0  0  0  0  0  0  0  0
   16.6164   -1.0851    3.6997 C   0  0  0  0  0  0  0  0  0  0  0  0
   16.1151   -2.2827    3.9888 N   0  0  0  0  0  0  0  0  0  0  0  0
  1  2  1  0  0  0  0
  1  6  1  0  0  0  0
  2  3  2  0  0  0  0
  3  4  1  0  0  0  0
  4  5  2  0  0  0  0
  4 10  1  0  0  0  0
  5  6  1  0  0  0  0
  5  8  1  0  0  0  0
  6  7  2  0  0  0  0
  8  9  1  0  0  0  0
  9 10  2  0  0  0  0
M  END
>  <CHROM.1>
17.85358677,-3.08202958,3.02650695,0.72689493,-0.52470597,3.09855706

>  <Name>
ligand

>  <RI>
0

>  <Rbt.Current_Directory>
/home/itssahil/PROJECTS/Mol_Feturizer/New_Systems/rnas/4NYD

>  <Rbt.Executable>
rbdock ($Id: //depot/dev/client3/rdock/2013.1/src/exe/rbdock.cxx#4 $)

>  <Rbt.Library>
libRbt.so (2013.1, Build901 2013/11/27)

>  <Rbt.Parameter_File>
/export/apps/rDock/src/rDock_2013.1_src/data/scripts/dock_solv.prm

>  <Rbt.Receptor>
prm/blind_docking_60.prm

>  <SCORE>
-23.6976

>  <SCORE.INTER>
-23.6976

>  <SCORE.INTER.CONST>
1

>  <SCORE.INTER.POLAR>
0

>  <SCORE.INTER.ROT>
0

>  <SCORE.INTER.SOLV>
3.4055

>  <SCORE.INTER.VDW>
-20.5336

>  <SCORE.INTER.norm>
-2.36976

>  <SCORE.INTRA>
0

>  <SCORE.INTRA.DIHEDRAL>
0

>  <SCORE.INTRA.DIHEDRAL.0>
0

>  <SCORE.INTRA.POLAR>
0

>  <SCORE.INTRA.POLAR.0>
0

>  <SCORE.INTRA.REPUL>
0

>  <SCORE.INTRA.REPUL.0>
0

>  <SCORE.INTRA.SOLV>
0

>  <SCORE.INTRA.SOLV.lig_0>
-4.1818

>  <SCORE.INTRA.VDW>
0

>  <SCORE.INTRA.VDW.0>
0

>  <SCORE.INTRA.norm>
0

>  <SCORE.RESTR>
0

>  <SCORE.RESTR.CAVITY>
0

>  <SCORE.RESTR.norm>
0

>  <SCORE.SYSTEM>
0

>  <SCORE.SYSTEM.CONST>
0

>  <SCORE.SYSTEM.DIHEDRAL>
0

>  <SCORE.SYSTEM.SOLV>
0

>  <SCORE.SYSTEM.norm>
0

>  <SCORE.heavy>
10

>  <SCORE.norm>
-2.36976

>  <RMSD>
1.233

$$$$
ligand
 OpenBabel11021811503D
libRbt.so/2013.1/901 2013/11/27
 10 11  0  0  0  0  0  0  0  0999 V2000
   18.9655   -4.6711    2.4309 N   0  0  0  0  0  0  0  0  0  0  0  0
   17.9802   -5.2977    3.0465 C   0  0  0  0  0  0  0  0  0  0  0  0
   16.9337   -4.5506    3.5976 N   0  0  0  0  0  0  0  0  0  0  0  0
   16.9492   -3.2134    3.5094 C   0  0  0  0  0  0  0  0  0  0  0  0
   17.9485   -2.5869    2.8927 C   0  0  0  0  0  0  0  0  0  0  0  0
   18.9466   -3.2749    2.3434 C   0  0  0  0  0  0  0  0  0  0  0  0
   19.8548   -2.6959    1.7497 O   0  0  0  0  0  0  0  0  0  0  0  0
   17.7473   -1.2782    3.0201 N   0  0  0  0  0  0  0  0  0  0  0  0
   16.6250   -1.0939    3.7082 C   0  0  0  0  0  0  0  0  0  0  0  0
   16.1285   -2.2920    4.0032 N   0  0  0  0  0  0  0  0  0  0  0  0
  1  2  1  0  0  0  0
  1  6  1  0  0  0  0
  2  3  2  0  0  0  0
  3  4  1  0  0  0  0
  4  5  2  0  0  0  0
  4 10  1  0  0  0  0
  5  6  1  0  0  0  0
  5  8  1  0  0  0  0
  6  7  2  0  0  0  0
  8  9  1  0  0  0  0
  9 10  2  0  0  0  0
M  END
>  <CHROM.1>
17.84773265,-3.08960715,3.00556164,0.72676098,-0.54380577,3.10146048

>  <Name>
ligand

>  <RI>
0

>  <Rbt.Current_Directory>
/home/itssahil/PROJECTS/Mol_Feturizer/New_Systems/rnas/4NYD

>  <Rbt.Executable>
rbdock ($Id: //depot/dev/client3/rdock/2013.1/src/exe/rbdock.cxx#4 $)

>  <Rbt.Library>
libRbt.so (2013.1, Build901 2013/11/27)

>  <Rbt.Parameter_File>
/export/apps/rDock/src/rDock_2013.1_src/data/scripts/dock_solv.prm

>  <Rbt.Receptor>
prm/pocket_docking_3.prm

>  <SCORE>
-23.7004

>  <SCORE.INTER>
-23.7004

>  <SCORE.INTER.CONST>
1

>  <SCORE.INTER.POLAR>
0

>  <SCORE.INTER.ROT>
0

>  <SCORE.INTER.SOLV>
3.41092

>  <SCORE.INTER.VDW>
-20.5372

>  <SCORE.INTER.norm>
-2.37004

>  <SCORE.INTRA>
0

>  <SCORE.INTRA.DIHEDRAL>
0

>  <SCORE.INTRA.DIHEDRAL.0>
0

>  <SCORE.INTRA.POLAR>
0

>  <SCORE.INTRA.POLAR.0>
0

>  <SCORE.INTRA.REPUL>
0

>  <SCORE.INTRA.REPUL.0>
0

>  <SCORE.INTRA.SOLV>
0

>  <SCORE.INTRA.SOLV.lig_0>
-4.1818

>  <SCORE.INTRA.VDW>
0

>  <SCORE.INTRA.VDW.0>
0

>  <SCORE.INTRA.norm>
0

>  <SCORE.RESTR>
0

>  <SCORE.RESTR.CAVITY>
0

>  <SCORE.RESTR.norm>
0

>  <SCORE.SYSTEM>
0

>  <SCORE.SYSTEM.CONST>
0

>  <SCORE.SYSTEM.DIHEDRAL>
0

>  <SCORE.SYSTEM.SOLV>
0

>  <SCORE.SYSTEM.norm>
0

>  <SCORE.heavy>
10

>  <SCORE.norm>
-2.37004

>  <RMSD>
1.233

$$$$
ligand
 OpenBabel11021811503D
libRbt.so/2013.1/901 2013/11/27
 10 11  0  0  0  0  0  0  0  0999 V2000
   18.9315   -4.7328    2.5648 N   0  0  0  0  0  0  0  0  0  0  0  0
   17.9019   -5.2694    3.1927 C   0  0  0  0  0  0  0  0  0  0  0  0
   16.8856   -4.4373    3.6740 N   0  0  0  0  0  0  0  0  0  0  0  0
   16.9741   -3.1104    3.5078 C   0  0  0  0  0  0  0  0  0  0  0  0
   18.0178   -2.5747    2.8793 C   0  0  0  0  0  0  0  0  0  0  0  0
   18.9888   -3.3453    2.3950 C   0  0  0  0  0  0  0  0  0  0  0  0
   19.9386   -2.8508    1.7899 O   0  0  0  0  0  0  0  0  0  0  0  0
   17.8841   -1.2521    2.9248 N   0  0  0  0  0  0  0  0  0  0  0  0
   16.7593   -0.9688    3.5742 C   0  0  0  0  0  0  0  0  0  0  0  0
   16.1938   -2.1196    3.9272 N   0  0  0  0  0  0  0  0  0  0  0  0
  1  2  1  0  0  0  0
  1  6  1  0  0  0  0
  2  3  2  0  0  0  0
  3  4  1  0  0  0  0
  4  5  2  0  0  0  0
  4 10  1  0  0  0  0
  5  6  1  0  0  0  0
  5  8  1  0  0  0  0
  6  7  2  0  0  0  0
  8  9  1  0  0  0  0
  9 10  2  0  0  0  0
M  END
>  <CHROM.1>
17.88810715,-3.06380798,3.01900561,0.78926052,-0.52458443,3.07391396

>  <Name>
ligand

>  <RI>
0

>  <Rbt.Current_Directory>
/home/itssahil/PROJECTS/Mol_Feturizer/New_Systems/rnas/4NYD

>  <Rbt.Executable>
rbdock ($Id: //depot/dev/client3/rdock/2013.1/src/exe/rbdock.cxx#4 $)

>  <Rbt.Library>
libRbt.so (2013.1, Build901 2013/11/27)

>  <Rbt.Parameter_File>
/export/apps/rDock/src/rDock_2013.1_src/data/scripts/dock_solv.prm

>  <Rbt.Receptor>
prm/pocket_docking_3.prm

>  <SCORE>
-23.6735

>  <SCORE.INTER>
-23.6735

>  <SCORE.INTER.CONST>
1

>  <SCORE.INTER.POLAR>
0

>  <SCORE.INTER.ROT>
0

>  <SCORE.INTER.SOLV>
3.37871

>  <SCORE.INTER.VDW>
-20.5086

>  <SCORE.INTER.norm>
-2.36735

>  <SCORE.INTRA>
0

>  <SCORE.INTRA.DIHEDRAL>
0

>  <SCORE.INTRA.DIHEDRAL.0>
0

>  <SCORE.INTRA.POLAR>
0

>  <SCORE.INTRA.POLAR.0>
0

>  <SCORE.INTRA.REPUL>
0

>  <SCORE.INTRA.REPUL.0>
0

>  <SCORE.INTRA.SOLV>
0

>  <SCORE.INTRA.SOLV.lig_0>
-4.1818

>  <SCORE.INTRA.VDW>
0

>  <SCORE.INTRA.VDW.0>
0

>  <SCORE.INTRA.norm>
0

>  <SCORE.RESTR>
0

>  <SCORE.RESTR.CAVITY>
0

>  <SCORE.RESTR.norm>
0

>  <SCORE.SYSTEM>
0

>  <SCORE.SYSTEM.CONST>
0

>  <SCORE.SYSTEM.DIHEDRAL>
0

>  <SCORE.SYSTEM.SOLV>
0

>  <SCORE.SYSTEM.norm>
0

>  <SCORE.heavy>
10

>  <SCORE.norm>
-2.36735

>  <RMSD>
1.234

$$$$
ligand
 OpenBabel11021811503D
libRbt.so/2013.1/901 2013/11/27
 10 11  0  0  0  0  0  0  0  0999 V2000
   18.9167   -4.7533    2.5350 N   0  0  0  0  0  0  0  0  0  0  0  0
   17.8945   -5.2861    3.1781 C   0  0  0  0  0  0  0  0  0  0  0  0
   16.8872   -4.4505    3.6722 N   0  0  0  0  0  0  0  0  0  0  0  0
   16.9769   -3.1241    3.5026 C   0  0  0  0  0  0  0  0  0  0  0  0
   18.0131   -2.5923    2.8586 C   0  0  0  0  0  0  0  0  0  0  0  0
   18.9753   -3.3662    2.3621 C   0  0  0  0  0  0  0  0  0  0  0  0
   19.9178   -2.8752    1.7430 O   0  0  0  0  0  0  0  0  0  0  0  0
   17.8836   -1.2692    2.9038 N   0  0  0  0  0  0  0  0  0  0  0  0
   16.7687   -0.9819    3.5684 C   0  0  0  0  0  0  0  0  0  0  0  0
   16.2051   -2.1307    3.9312 N   0  0  0  0  0  0  0  0  0  0  0  0
  1  2  1  0  0  0  0
  1  6  1  0  0  0  0
  2  3  2  0  0  0  0
  3  4  1  0  0  0  0
  4  5  2  0  0  0  0
  4 10  1  0  0  0  0
  5  6  1  0  0  0  0
  5  8  1  0  0  0  0
  6  7  2  0  0  0  0
  8  9  1  0  0  0  0
  9 10  2  0  0  0  0
M  END
>  <CHROM.1>
17.88412570,-3.08078286,3.00097810,0.79121939,-0.53871396,3.07327706

>  <Name>
ligand

>  <RI>
0

>  <Rbt.Current_Directory>
/home/itssahil/PROJECTS/Mol_Feturizer/New_Systems/rnas/4NYD

>  <Rbt.Executable>
rbdock ($Id: //depot/dev/client3/rdock/2013.1/src/exe/rbdock.cxx#4 $)

>  <Rbt.Library>
libRbt.so (2013.1, Build901 2013/11/27)

>  <Rbt.Parameter_File>
/export/apps/rDock/src/rDock_2013.1_src/data/scripts/dock_solv.prm

>  <Rbt.Receptor>
prm/pocket_docking_7.prm

>  <SCORE>
-23.7025

>  <SCORE.INTER>
-23.7025

>  <SCORE.INTER.CONST>
1

>  <SCORE.INTER.POLAR>
0

>  <SCORE.INTER.ROT>
0

>  <SCORE.INTER.SOLV>
3.37133

>  <SCORE.INTER.VDW>
-20.5254

>  <SCORE.INTER.norm>
-2.37025

>  <SCORE.INTRA>
0

>  <SCORE.INTRA.DIHEDRAL>
0

>  <SCORE.INTRA.DIHEDRAL.0>
0

>  <SCORE.INTRA.POLAR>
0

>  <SCORE.INTRA.POLAR.0>
0

>  <SCORE.INTRA.REPUL>
0

>  <SCORE.INTRA.REPUL.0>
0

>  <SCORE.INTRA.SOLV>
0

>  <SCORE.INTRA.SOLV.lig_0>
-4.1818

>  <SCORE.INTRA.VDW>
0

>  <SCORE.INTRA.VDW.0>
0

>  <SCORE.INTRA.norm>
0

>  <SCORE.RESTR>
0

>  <SCORE.RESTR.CAVITY>
0

>  <SCORE.RESTR.norm>
0

>  <SCORE.SYSTEM>
0

>  <SCORE.SYSTEM.CONST>
0

>  <SCORE.SYSTEM.DIHEDRAL>
0

>  <SCORE.SYSTEM.SOLV>
0

>  <SCORE.SYSTEM.norm>
0

>  <SCORE.heavy>
10

>  <SCORE.norm>
-2.37025

>  <RMSD>
1.234

$$$$
ligand
 OpenBabel11021811503D
libRbt.so/2013.1/901 2013/11/27
 10 11  0  0  0  0  0  0  0  0999 V2000
   18.9163   -4.7769    2.6116 N   0  0  0  0  0  0  0  0  0  0  0  0
   17.8662   -5.2752    3.2372 C   0  0  0  0  0  0  0  0  0  0  0  0
   16.8623   -4.4095    3.6840 N   0  0  0  0  0  0  0  0  0  0  0  0
   16.9829   -3.0893    3.4876 C   0  0  0  0  0  0  0  0  0  0  0  0
   18.0470   -2.5921    2.8615 C   0  0  0  0  0  0  0  0  0  0  0  0
   19.0071   -3.3955    2.4097 C   0  0  0  0  0  0  0  0  0  0  0  0
   19.9760   -2.9369    1.8068 O   0  0  0  0  0  0  0  0  0  0  0  0
   17.9424   -1.2661    2.8736 N   0  0  0  0  0  0  0  0  0  0  0  0
   16.8154   -0.9425    3.4999 C   0  0  0  0  0  0  0  0  0  0  0  0
   16.2193   -2.0717    3.8720 N   0  0  0  0  0  0  0  0  0  0  0  0
  1  2  1  0  0  0  0
  1  6  1  0  0  0  0
  2  3  2  0  0  0  0
  3  4  1  0  0  0  0
  4  5  2  0  0  0  0
  4 10  1  0  0  0  0
  5  6  1  0  0  0  0
  5  8  1  0  0  0  0
  6  7  2  0  0  0  0
  8  9  1  0  0  0  0
  9 10  2  0  0  0  0
M  END
>  <CHROM.1>
17.90442208,-3.07473616,3.01098032,0.81605244,-0.51214477,3.06324293

>  <Name>
ligand

>  <RI>
0

>  <Rbt.Current_Directory>
/home/itssahil/PROJECTS/Mol_Feturizer/New_Systems/rnas/4NYD

>  <Rbt.Executable>
rbdock ($Id: //depot/dev/client3/rdock/2013.1/src/exe/rbdock.cxx#4 $)

>  <Rbt.Library>
libRbt.so (2013.1, Build901 2013/11/27)

>  <Rbt.Parameter_File>
/export/apps/rDock/src/rDock_2013.1_src/data/scripts/dock_solv.prm

>  <Rbt.Receptor>
prm/pocket_docking_7.prm

>  <SCORE>
-23.72

>  <SCORE.INTER>
-23.72

>  <SCORE.INTER.CONST>
1

>  <SCORE.INTER.POLAR>
0

>  <SCORE.INTER.ROT>
0

>  <SCORE.INTER.SOLV>
3.35614

>  <SCORE.INTER.VDW>
-20.532

>  <SCORE.INTER.norm>
-2.372

>  <SCORE.INTRA>
0

>  <SCORE.INTRA.DIHEDRAL>
0

>  <SCORE.INTRA.DIHEDRAL.0>
0

>  <SCORE.INTRA.POLAR>
0

>  <SCORE.INTRA.POLAR.0>
0

>  <SCORE.INTRA.REPUL>
0

>  <SCORE.INTRA.REPUL.0>
0

>  <SCORE.INTRA.SOLV>
0

>  <SCORE.INTRA.SOLV.lig_0>
-4.1818

>  <SCORE.INTRA.VDW>
0

>  <SCORE.INTRA.VDW.0>
0

>  <SCORE.INTRA.norm>
0

>  <SCORE.RESTR>
0

>  <SCORE.RESTR.CAVITY>
0

>  <SCORE.RESTR.norm>
0

>  <SCORE.SYSTEM>
0

>  <SCORE.SYSTEM.CONST>
0

>  <SCORE.SYSTEM.DIHEDRAL>
0

>  <SCORE.SYSTEM.SOLV>
0

>  <SCORE.SYSTEM.norm>
0

>  <SCORE.heavy>
10

>  <SCORE.norm>
-2.372

>  <RMSD>
1.234

$$$$
ligand
 OpenBabel11021811503D
libRbt.so/2013.1/901 2013/11/27
 10 11  0  0  0  0  0  0  0  0999 V2000
   18.9898   -4.6546    2.5054 N   0  0  0  0  0  0  0  0  0  0  0  0
   17.9821   -5.2795    3.0854 C   0  0  0  0  0  0  0  0  0  0  0  0
   16.9187   -4.5305    3.6003 N   0  0  0  0  0  0  0  0  0  0  0  0
   16.9404   -3.1932    3.5142 C   0  0  0  0  0  0  0  0  0  0  0  0
   17.9622   -2.5685    2.9336 C   0  0  0  0  0  0  0  0  0  0  0  0
   18.9773   -3.2583    2.4187 C   0  0  0  0  0  0  0  0  0  0  0  0
   19.9071   -2.6809    1.8579 O   0  0  0  0  0  0  0  0  0  0  0  0
   17.7598   -1.2595    3.0553 N   0  0  0  0  0  0  0  0  0  0  0  0
   16.6145   -1.0731    3.7039 C   0  0  0  0  0  0  0  0  0  0  0  0
   16.1052   -2.2704    3.9800 N   0  0  0  0  0  0  0  0  0  0  0  0
  1  2  1  0  0  0  0
  1  6  1  0  0  0  0
  2  3  2  0  0  0  0
  3  4  1  0  0  0  0
  4  5  2  0  0  0  0
  4 10  1  0  0  0  0
  5  6  1  0  0  0  0
  5  8  1  0  0  0  0
  6  7  2  0  0  0  0
  8  9  1  0  0  0  0
  9 10  2  0  0  0  0
M  END
>  <CHROM.1>
17.85635549,-3.07104585,3.04227293,0.73108008,-0.50890516,3.10471439

>  <Name>
ligand

>  <RI>
0

>  <Rbt.Current_Directory>
/home/itssahil/PROJECTS/Mol_Feturizer/New_Systems/rnas/4NYD

>  <Rbt.Executable>
rbdock ($Id: //depot/dev/client3/rdock/2013.1/src/exe/rbdock.cxx#4 $)

>  <Rbt.Library>
libRbt.so (2013.1, Build901 2013/11/27)

>  <Rbt.Parameter_File>
/export/apps/rDock/src/rDock_2013.1_src/data/scripts/dock_solv.prm

>  <Rbt.Receptor>
prm/pocket_docking_7.prm

>  <SCORE>
-23.6922

>  <SCORE.INTER>
-23.6922

>  <SCORE.INTER.CONST>
1

>  <SCORE.INTER.POLAR>
0

>  <SCORE.INTER.ROT>
0

>  <SCORE.INTER.SOLV>
3.412

>  <SCORE.INTER.VDW>
-20.5321

>  <SCORE.INTER.norm>
-2.36922

>  <SCORE.INTRA>
0

>  <SCORE.INTRA.DIHEDRAL>
0

>  <SCORE.INTRA.DIHEDRAL.0>
0

>  <SCORE.INTRA.POLAR>
0

>  <SCORE.INTRA.POLAR.0>
0

>  <SCORE.INTRA.REPUL>
0

>  <SCORE.INTRA.REPUL.0>
0

>  <SCORE.INTRA.SOLV>
0

>  <SCORE.INTRA.SOLV.lig_0>
-4.1818

>  <SCORE.INTRA.VDW>
0

>  <SCORE.INTRA.VDW.0>
0

>  <SCORE.INTRA.norm>
0

>  <SCORE.RESTR>
0

>  <SCORE.RESTR.CAVITY>
0

>  <SCORE.RESTR.norm>
0

>  <SCORE.SYSTEM>
0

>  <SCORE.SYSTEM.CONST>
0

>  <SCORE.SYSTEM.DIHEDRAL>
0

>  <SCORE.SYSTEM.SOLV>
0

>  <SCORE.SYSTEM.norm>
0

>  <SCORE.heavy>
10

>  <SCORE.norm>
-2.36922

>  <RMSD>
1.235

$$$$
ligand
 OpenBabel11021811503D
libRbt.so/2013.1/901 2013/11/27
 10 11  0  0  0  0  0  0  0  0999 V2000
   18.9061   -4.7711    2.5715 N   0  0  0  0  0  0  0  0  0  0  0  0
   17.8666   -5.2790    3.2069 C   0  0  0  0  0  0  0  0  0  0  0  0
   16.8663   -4.4210    3.6763 N   0  0  0  0  0  0  0  0  0  0  0  0
   16.9799   -3.0986    3.4911 C   0  0  0  0  0  0  0  0  0  0  0  0
   18.0334   -2.5918    2.8550 C   0  0  0  0  0  0  0  0  0  0  0  0
   18.9896   -3.3875    2.3818 C   0  0  0  0  0  0  0  0  0  0  0  0
   19.9484   -2.9198    1.7697 O   0  0  0  0  0  0  0  0  0  0  0  0
   17.9247   -1.2663    2.8815 N   0  0  0  0  0  0  0  0  0  0  0  0
   16.8057   -0.9526    3.5267 C   0  0  0  0  0  0  0  0  0  0  0  0
   16.2185   -2.0873    3.8962 N   0  0  0  0  0  0  0  0  0  0  0  0
  1  2  1  0  0  0  0
  1  6  1  0  0  0  0
  2  3  2  0  0  0  0
  3  4  1  0  0  0  0
  4  5  2  0  0  0  0
  4 10  1  0  0  0  0
  5  6  1  0  0  0  0
  5  8  1  0  0  0  0
  6  7  2  0  0  0  0
  8  9  1  0  0  0  0
  9 10  2  0  0  0  0
M  END
>  <CHROM.1>
17.89450780,-3.07629075,3.00168622,0.81106542,-0.52599786,3.07052330

>  <Name>
ligand

>  <RI>
0

>  <Rbt.Current_Directory>
/home/itssahil/PROJECTS/Mol_Feturizer/New_Systems/rnas/4NYD

>  <Rbt.Executable>
rbdock ($Id: //depot/dev/client3/rdock/2013.1/src/exe/rbdock.cxx#4 $)

>  <Rbt.Library>
libRbt.so (2013.1, Build901 2013/11/27)

>  <Rbt.Parameter_File>
/export/apps/rDock/src/rDock_2013.1_src/data/scripts/dock_solv.prm

>  <Rbt.Receptor>
prm/blind_docking_60.prm

>  <SCORE>
-23.707

>  <SCORE.INTER>
-23.707

>  <SCORE.INTER.CONST>
1

>  <SCORE.INTER.POLAR>
0

>  <SCORE.INTER.ROT>
0

>  <SCORE.INTER.SOLV>
3.35902

>  <SCORE.INTER.VDW>
-20.5243

>  <SCORE.INTER.norm>
-2.3707

>  <SCORE.INTRA>
0

>  <SCORE.INTRA.DIHEDRAL>
0

>  <SCORE.INTRA.DIHEDRAL.0>
0

>  <SCORE.INTRA.POLAR>
0

>  <SCORE.INTRA.POLAR.0>
0

>  <SCORE.INTRA.REPUL>
0

>  <SCORE.INTRA.REPUL.0>
0

>  <SCORE.INTRA.SOLV>
0

>  <SCORE.INTRA.SOLV.lig_0>
-4.1818

>  <SCORE.INTRA.VDW>
0

>  <SCORE.INTRA.VDW.0>
0

>  <SCORE.INTRA.norm>
0

>  <SCORE.RESTR>
0

>  <SCORE.RESTR.CAVITY>
0

>  <SCORE.RESTR.norm>
0

>  <SCORE.SYSTEM>
0

>  <SCORE.SYSTEM.CONST>
0

>  <SCORE.SYSTEM.DIHEDRAL>
0

>  <SCORE.SYSTEM.SOLV>
0

>  <SCORE.SYSTEM.norm>
0

>  <SCORE.heavy>
10

>  <SCORE.norm>
-2.3707

>  <RMSD>
1.236

$$$$
ligand
 OpenBabel11021811503D
libRbt.so/2013.1/901 2013/11/27
 10 11  0  0  0  0  0  0  0  0999 V2000
   18.9004   -4.7695    2.5455 N   0  0  0  0  0  0  0  0  0  0  0  0
   17.8668   -5.2850    3.1845 C   0  0  0  0  0  0  0  0  0  0  0  0
   16.8676   -4.4333    3.6674 N   0  0  0  0  0  0  0  0  0  0  0  0
   16.9763   -3.1092    3.4916 C   0  0  0  0  0  0  0  0  0  0  0  0
   18.0239   -2.5947    2.8518 C   0  0  0  0  0  0  0  0  0  0  0  0
   18.9788   -3.3842    2.3658 C   0  0  0  0  0  0  0  0  0  0  0  0
   19.9320   -2.9093    1.7505 O   0  0  0  0  0  0  0  0  0  0  0  0
   17.9120   -1.2698    2.8892 N   0  0  0  0  0  0  0  0  0  0  0  0
   16.7967   -0.9640    3.5448 C   0  0  0  0  0  0  0  0  0  0  0  0
   16.2152   -2.1031    3.9098 N   0  0  0  0  0  0  0  0  0  0  0  0
  1  2  1  0  0  0  0
  1  6  1  0  0  0  0
  2  3  2  0  0  0  0
  3  4  1  0  0  0  0
  4  5  2  0  0  0  0
  4 10  1  0  0  0  0
  5  6  1  0  0  0  0
  5  8  1  0  0  0  0
  6  7  2  0  0  0  0
  8  9  1  0  0  0  0
  9 10  2  0  0  0  0
M  END
>  <CHROM.1>
17.88740462,-3.08072585,2.99582488,0.80740624,-0.53292424,3.07627331

>  <Name>
ligand

>  <RI>
0

>  <Rbt.Current_Directory>
/home/itssahil/PROJECTS/Mol_Feturizer/New_Systems/rnas/4NYD

>  <Rbt.Executable>
rbdock ($Id: //depot/dev/client3/rdock/2013.1/src/exe/rbdock.cxx#4 $)

>  <Rbt.Library>
libRbt.so (2013.1, Build901 2013/11/27)

>  <Rbt.Parameter_File>
/export/apps/rDock/src/rDock_2013.1_src/data/scripts/dock_solv.prm

>  <Rbt.Receptor>
prm/pocket_docking_7.prm

>  <SCORE>
-23.6993

>  <SCORE.INTER>
-23.6993

>  <SCORE.INTER.CONST>
1

>  <SCORE.INTER.POLAR>
0

>  <SCORE.INTER.ROT>
0

>  <SCORE.INTER.SOLV>
3.36401

>  <SCORE.INTER.VDW>
-20.5209

>  <SCORE.INTER.norm>
-2.36993

>  <SCORE.INTRA>
0

>  <SCORE.INTRA.DIHEDRAL>
0

>  <SCORE.INTRA.DIHEDRAL.0>
0

>  <SCORE.INTRA.POLAR>
0

>  <SCORE.INTRA.POLAR.0>
0

>  <SCORE.INTRA.REPUL>
0

>  <SCORE.INTRA.REPUL.0>
0

>  <SCORE.INTRA.SOLV>
0

>  <SCORE.INTRA.SOLV.lig_0>
-4.1818

>  <SCORE.INTRA.VDW>
0

>  <SCORE.INTRA.VDW.0>
0

>  <SCORE.INTRA.norm>
0

>  <SCORE.RESTR>
0

>  <SCORE.RESTR.CAVITY>
0

>  <SCORE.RESTR.norm>
0

>  <SCORE.SYSTEM>
0

>  <SCORE.SYSTEM.CONST>
0

>  <SCORE.SYSTEM.DIHEDRAL>
0

>  <SCORE.SYSTEM.SOLV>
0

>  <SCORE.SYSTEM.norm>
0

>  <SCORE.heavy>
10

>  <SCORE.norm>
-2.36993

>  <RMSD>
1.236

$$$$
ligand
 OpenBabel11021811503D
libRbt.so/2013.1/901 2013/11/27
 10 11  0  0  0  0  0  0  0  0999 V2000
   18.9044   -4.7338    2.5728 N   0  0  0  0  0  0  0  0  0  0  0  0
   17.8727   -5.2320    3.2283 C   0  0  0  0  0  0  0  0  0  0  0  0
   16.8735   -4.3679    3.6887 N   0  0  0  0  0  0  0  0  0  0  0  0
   16.9803   -3.0492    3.4747 C   0  0  0  0  0  0  0  0  0  0  0  0
   18.0260   -2.5522    2.8183 C   0  0  0  0  0  0  0  0  0  0  0  0
   18.9808   -3.3542    2.3532 C   0  0  0  0  0  0  0  0  0  0  0  0
   19.9322   -2.8961    1.7226 O   0  0  0  0  0  0  0  0  0  0  0  0
   17.9126   -1.2269    2.8179 N   0  0  0  0  0  0  0  0  0  0  0  0
   16.7983   -0.9036    3.4667 C   0  0  0  0  0  0  0  0  0  0  0  0
   16.2189   -2.0324    3.8654 N   0  0  0  0  0  0  0  0  0  0  0  0
  1  2  1  0  0  0  0
  1  6  1  0  0  0  0
  2  3  2  0  0  0  0
  3  4  1  0  0  0  0
  4  5  2  0  0  0  0
  4 10  1  0  0  0  0
  5  6  1  0  0  0  0
  5  8  1  0  0  0  0
  6  7  2  0  0  0  0
  8  9  1  0  0  0  0
  9 10  2  0  0  0  0
M  END
>  <CHROM.1>
17.89033520,-3.03398099,2.97646496,0.80590153,-0.53486911,3.04680257

>  <Name>
ligand

>  <RI>
0

>  <Rbt.Current_Directory>
/home/itssahil/PROJECTS/Mol_Feturizer/New_Systems/rnas/4NYD

>  <Rbt.Executable>
rbdock ($Id: //depot/dev/client3/rdock/2013.1/src/exe/rbdock.cxx#4 $)

>  <Rbt.Library>
libRbt.so (2013.1, Build901 2013/11/27)

>  <Rbt.Parameter_File>
/export/apps/rDock/src/rDock_2013.1_src/data/scripts/dock_solv.prm

>  <Rbt.Receptor>
prm/pocket_docking_8.prm

>  <SCORE>
-23.7008

>  <SCORE.INTER>
-23.7008

>  <SCORE.INTER.CONST>
1

>  <SCORE.INTER.POLAR>
0

>  <SCORE.INTER.ROT>
0

>  <SCORE.INTER.SOLV>
3.3207

>  <SCORE.INTER.VDW>
-20.5074

>  <SCORE.INTER.norm>
-2.37008

>  <SCORE.INTRA>
0

>  <SCORE.INTRA.DIHEDRAL>
0

>  <SCORE.INTRA.DIHEDRAL.0>
0

>  <SCORE.INTRA.POLAR>
0

>  <SCORE.INTRA.POLAR.0>
0

>  <SCORE.INTRA.REPUL>
0

>  <SCORE.INTRA.REPUL.0>
0

>  <SCORE.INTRA.SOLV>
0

>  <SCORE.INTRA.SOLV.lig_0>
-4.1818

>  <SCORE.INTRA.VDW>
0

>  <SCORE.INTRA.VDW.0>
0

>  <SCORE.INTRA.norm>
0

>  <SCORE.RESTR>
0

>  <SCORE.RESTR.CAVITY>
0

>  <SCORE.RESTR.norm>
0

>  <SCORE.SYSTEM>
0

>  <SCORE.SYSTEM.CONST>
0

>  <SCORE.SYSTEM.DIHEDRAL>
0

>  <SCORE.SYSTEM.SOLV>
0

>  <SCORE.SYSTEM.norm>
0

>  <SCORE.heavy>
10

>  <SCORE.norm>
-2.37008

>  <RMSD>
1.236

$$$$
ligand
 OpenBabel11021811503D
libRbt.so/2013.1/901 2013/11/27
 10 11  0  0  0  0  0  0  0  0999 V2000
   18.8974   -4.7402    2.5651 N   0  0  0  0  0  0  0  0  0  0  0  0
   17.8657   -5.2374    3.2214 C   0  0  0  0  0  0  0  0  0  0  0  0
   16.8698   -4.3719    3.6862 N   0  0  0  0  0  0  0  0  0  0  0  0
   16.9797   -3.0529    3.4755 C   0  0  0  0  0  0  0  0  0  0  0  0
   18.0254   -2.5569    2.8184 C   0  0  0  0  0  0  0  0  0  0  0  0
   18.9772   -3.3602    2.3491 C   0  0  0  0  0  0  0  0  0  0  0  0
   19.9285   -2.9029    1.7178 O   0  0  0  0  0  0  0  0  0  0  0  0
   17.9155   -1.2313    2.8218 N   0  0  0  0  0  0  0  0  0  0  0  0
   16.8034   -0.9068    3.4738 C   0  0  0  0  0  0  0  0  0  0  0  0
   16.2218   -2.0352    3.8706 N   0  0  0  0  0  0  0  0  0  0  0  0
  1  2  1  0  0  0  0
  1  6  1  0  0  0  0
  2  3  2  0  0  0  0
  3  4  1  0  0  0  0
  4  5  2  0  0  0  0
  4 10  1  0  0  0  0
  5  6  1  0  0  0  0
  5  8  1  0  0  0  0
  6  7  2  0  0  0  0
  8  9  1  0  0  0  0
  9 10  2  0  0  0  0
M  END
>  <CHROM.1>
17.88876900,-3.03875203,2.97551060,0.80877826,-0.53713997,3.05101244

>  <Name>
ligand

>  <RI>
0

>  <Rbt.Current_Directory>
/home/itssahil/PROJECTS/Mol_Feturizer/New_Systems/rnas/4NYD

>  <Rbt.Executable>
rbdock ($Id: //depot/dev/client3/rdock/2013.1/src/exe/rbdock.cxx#4 $)

>  <Rbt.Library>
libRbt.so (2013.1, Build901 2013/11/27)

>  <Rbt.Parameter_File>
/export/apps/rDock/src/rDock_2013.1_src/data/scripts/dock_solv.prm

>  <Rbt.Receptor>
prm/blind_docking_100.prm

>  <SCORE>
-23.6986

>  <SCORE.INTER>
-23.6986

>  <SCORE.INTER.CONST>
1

>  <SCORE.INTER.POLAR>
0

>  <SCORE.INTER.ROT>
0

>  <SCORE.INTER.SOLV>
3.32566

>  <SCORE.INTER.VDW>
-20.5076

>  <SCORE.INTER.norm>
-2.36986

>  <SCORE.INTRA>
0

>  <SCORE.INTRA.DIHEDRAL>
0

>  <SCORE.INTRA.DIHEDRAL.0>
0

>  <SCORE.INTRA.POLAR>
0

>  <SCORE.INTRA.POLAR.0>
0

>  <SCORE.INTRA.REPUL>
0

>  <SCORE.INTRA.REPUL.0>
0

>  <SCORE.INTRA.SOLV>
0

>  <SCORE.INTRA.SOLV.lig_0>
-4.1818

>  <SCORE.INTRA.VDW>
0

>  <SCORE.INTRA.VDW.0>
0

>  <SCORE.INTRA.norm>
0

>  <SCORE.RESTR>
0

>  <SCORE.RESTR.CAVITY>
0

>  <SCORE.RESTR.norm>
0

>  <SCORE.SYSTEM>
0

>  <SCORE.SYSTEM.CONST>
0

>  <SCORE.SYSTEM.DIHEDRAL>
0

>  <SCORE.SYSTEM.SOLV>
0

>  <SCORE.SYSTEM.norm>
0

>  <SCORE.heavy>
10

>  <SCORE.norm>
-2.36986

>  <RMSD>
1.237

$$$$
ligand
 OpenBabel11021811503D
libRbt.so/2013.1/901 2013/11/27
 10 11  0  0  0  0  0  0  0  0999 V2000
   18.9012   -4.7420    2.5721 N   0  0  0  0  0  0  0  0  0  0  0  0
   17.8686   -5.2388    3.2273 C   0  0  0  0  0  0  0  0  0  0  0  0
   16.8707   -4.3733    3.6877 N   0  0  0  0  0  0  0  0  0  0  0  0
   16.9795   -3.0547    3.4741 C   0  0  0  0  0  0  0  0  0  0  0  0
   18.0261   -2.5591    2.8180 C   0  0  0  0  0  0  0  0  0  0  0  0
   18.9799   -3.3625    2.3529 C   0  0  0  0  0  0  0  0  0  0  0  0
   19.9321   -2.9056    1.7226 O   0  0  0  0  0  0  0  0  0  0  0  0
   17.9148   -1.2336    2.8180 N   0  0  0  0  0  0  0  0  0  0  0  0
   16.8008   -0.9088    3.4666 C   0  0  0  0  0  0  0  0  0  0  0  0
   16.2196   -2.0368    3.8649 N   0  0  0  0  0  0  0  0  0  0  0  0
  1  2  1  0  0  0  0
  1  6  1  0  0  0  0
  2  3  2  0  0  0  0
  3  4  1  0  0  0  0
  4  5  2  0  0  0  0
  4 10  1  0  0  0  0
  5  6  1  0  0  0  0
  5  8  1  0  0  0  0
  6  7  2  0  0  0  0
  8  9  1  0  0  0  0
  9 10  2  0  0  0  0
M  END
>  <CHROM.1>
17.88970024,-3.04072813,2.97604121,0.80771087,-0.53478707,3.04801855

>  <Name>
ligand

>  <RI>
0

>  <Rbt.Current_Directory>
/home/itssahil/PROJECTS/Mol_Feturizer/New_Systems/rnas/4NYD

>  <Rbt.Executable>
rbdock ($Id: //depot/dev/client3/rdock/2013.1/src/exe/rbdock.cxx#4 $)

>  <Rbt.Library>
libRbt.so (2013.1, Build901 2013/11/27)

>  <Rbt.Parameter_File>
/export/apps/rDock/src/rDock_2013.1_src/data/scripts/dock_solv.prm

>  <Rbt.Receptor>
prm/pocket_docking_4.prm

>  <SCORE>
-23.6988

>  <SCORE.INTER>
-23.6988

>  <SCORE.INTER.CONST>
1

>  <SCORE.INTER.POLAR>
0

>  <SCORE.INTER.ROT>
0

>  <SCORE.INTER.SOLV>
3.32076

>  <SCORE.INTER.VDW>
-20.5061

>  <SCORE.INTER.norm>
-2.36988

>  <SCORE.INTRA>
0

>  <SCORE.INTRA.DIHEDRAL>
0

>  <SCORE.INTRA.DIHEDRAL.0>
0

>  <SCORE.INTRA.POLAR>
0

>  <SCORE.INTRA.POLAR.0>
0

>  <SCORE.INTRA.REPUL>
0

>  <SCORE.INTRA.REPUL.0>
0

>  <SCORE.INTRA.SOLV>
0

>  <SCORE.INTRA.SOLV.lig_0>
-4.1818

>  <SCORE.INTRA.VDW>
0

>  <SCORE.INTRA.VDW.0>
0

>  <SCORE.INTRA.norm>
0

>  <SCORE.RESTR>
0

>  <SCORE.RESTR.CAVITY>
0

>  <SCORE.RESTR.norm>
0

>  <SCORE.SYSTEM>
0

>  <SCORE.SYSTEM.CONST>
0

>  <SCORE.SYSTEM.DIHEDRAL>
0

>  <SCORE.SYSTEM.SOLV>
0

>  <SCORE.SYSTEM.norm>
0

>  <SCORE.heavy>
10

>  <SCORE.norm>
-2.36988

>  <RMSD>
1.237

$$$$
ligand
 OpenBabel11021811503D
libRbt.so/2013.1/901 2013/11/27
 10 11  0  0  0  0  0  0  0  0999 V2000
   18.9046   -4.7340    2.5771 N   0  0  0  0  0  0  0  0  0  0  0  0
   17.8739   -5.2337    3.2331 C   0  0  0  0  0  0  0  0  0  0  0  0
   16.8732   -4.3712    3.6931 N   0  0  0  0  0  0  0  0  0  0  0  0
   16.9776   -3.0524    3.4784 C   0  0  0  0  0  0  0  0  0  0  0  0
   18.0224   -2.5538    2.8217 C   0  0  0  0  0  0  0  0  0  0  0  0
   18.9786   -3.3543    2.3569 C   0  0  0  0  0  0  0  0  0  0  0  0
   19.9291   -2.8948    1.7260 O   0  0  0  0  0  0  0  0  0  0  0  0
   17.9066   -1.2287    2.8207 N   0  0  0  0  0  0  0  0  0  0  0  0
   16.7917   -0.9071    3.4694 C   0  0  0  0  0  0  0  0  0  0  0  0
   16.2144   -2.0368    3.8687 N   0  0  0  0  0  0  0  0  0  0  0  0
  1  2  1  0  0  0  0
  1  6  1  0  0  0  0
  2  3  2  0  0  0  0
  3  4  1  0  0  0  0
  4  5  2  0  0  0  0
  4 10  1  0  0  0  0
  5  6  1  0  0  0  0
  5  8  1  0  0  0  0
  6  7  2  0  0  0  0
  8  9  1  0  0  0  0
  9 10  2  0  0  0  0
M  END
>  <CHROM.1>
17.88757149,-3.03576288,2.98014065,0.80380350,-0.53477088,3.04526559

>  <Name>
ligand

>  <RI>
0

>  <Rbt.Current_Directory>
/home/itssahil/PROJECTS/Mol_Feturizer/New_Systems/rnas/4NYD

>  <Rbt.Executable>
rbdock ($Id: //depot/dev/client3/rdock/2013.1/src/exe/rbdock.cxx#4 $)

>  <Rbt.Library>
libRbt.so (2013.1, Build901 2013/11/27)

>  <Rbt.Parameter_File>
/export/apps/rDock/src/rDock_2013.1_src/data/scripts/dock_solv.prm

>  <Rbt.Receptor>
prm/blind_docking_100.prm

>  <SCORE>
-23.7

>  <SCORE.INTER>
-23.7

>  <SCORE.INTER.CONST>
1

>  <SCORE.INTER.POLAR>
0

>  <SCORE.INTER.ROT>
0

>  <SCORE.INTER.SOLV>
3.3231

>  <SCORE.INTER.VDW>
-20.5077

>  <SCORE.INTER.norm>
-2.37

>  <SCORE.INTRA>
0

>  <SCORE.INTRA.DIHEDRAL>
0

>  <SCORE.INTRA.DIHEDRAL.0>
0

>  <SCORE.INTRA.POLAR>
0

>  <SCORE.INTRA.POLAR.0>
0

>  <SCORE.INTRA.REPUL>
0

>  <SCORE.INTRA.REPUL.0>
0

>  <SCORE.INTRA.SOLV>
0

>  <SCORE.INTRA.SOLV.lig_0>
-4.1818

>  <SCORE.INTRA.VDW>
0

>  <SCORE.INTRA.VDW.0>
0

>  <SCORE.INTRA.norm>
0

>  <SCORE.RESTR>
0

>  <SCORE.RESTR.CAVITY>
0

>  <SCORE.RESTR.norm>
0

>  <SCORE.SYSTEM>
0

>  <SCORE.SYSTEM.CONST>
0

>  <SCORE.SYSTEM.DIHEDRAL>
0

>  <SCORE.SYSTEM.SOLV>
0

>  <SCORE.SYSTEM.norm>
0

>  <SCORE.heavy>
10

>  <SCORE.norm>
-2.37

>  <RMSD>
1.239

$$$$
ligand
 OpenBabel11021811503D
libRbt.so/2013.1/901 2013/11/27
 10 11  0  0  0  0  0  0  0  0999 V2000
   18.8971   -4.7439    2.5856 N   0  0  0  0  0  0  0  0  0  0  0  0
   17.8591   -5.2353    3.2362 C   0  0  0  0  0  0  0  0  0  0  0  0
   16.8622   -4.3650    3.6897 N   0  0  0  0  0  0  0  0  0  0  0  0
   16.9774   -3.0473    3.4743 C   0  0  0  0  0  0  0  0  0  0  0  0
   18.0295   -2.5570    2.8229 C   0  0  0  0  0  0  0  0  0  0  0  0
   18.9825   -3.3651    2.3643 C   0  0  0  0  0  0  0  0  0  0  0  0
   19.9398   -2.9132    1.7384 O   0  0  0  0  0  0  0  0  0  0  0  0
   17.9234   -1.2311    2.8199 N   0  0  0  0  0  0  0  0  0  0  0  0
   16.8073   -0.9007    3.4619 C   0  0  0  0  0  0  0  0  0  0  0  0
   16.2195   -2.0257    3.8592 N   0  0  0  0  0  0  0  0  0  0  0  0
  1  2  1  0  0  0  0
  1  6  1  0  0  0  0
  2  3  2  0  0  0  0
  3  4  1  0  0  0  0
  4  5  2  0  0  0  0
  4 10  1  0  0  0  0
  5  6  1  0  0  0  0
  5  8  1  0  0  0  0
  6  7  2  0  0  0  0
  8  9  1  0  0  0  0
  9 10  2  0  0  0  0
M  END
>  <CHROM.1>
17.89027475,-3.03784706,2.98109187,0.81286811,-0.52985064,3.04879068

>  <Name>
ligand

>  <RI>
0

>  <Rbt.Current_Directory>
/home/itssahil/PROJECTS/Mol_Feturizer/New_Systems/rnas/4NYD

>  <Rbt.Executable>
rbdock ($Id: //depot/dev/client3/rdock/2013.1/src/exe/rbdock.cxx#4 $)

>  <Rbt.Library>
libRbt.so (2013.1, Build901 2013/11/27)

>  <Rbt.Parameter_File>
/export/apps/rDock/src/rDock_2013.1_src/data/scripts/dock_solv.prm

>  <Rbt.Receptor>
prm/pocket_docking_6.prm

>  <SCORE>
-23.6964

>  <SCORE.INTER>
-23.6964

>  <SCORE.INTER.CONST>
1

>  <SCORE.INTER.POLAR>
0

>  <SCORE.INTER.ROT>
0

>  <SCORE.INTER.SOLV>
3.32304

>  <SCORE.INTER.VDW>
-20.5053

>  <SCORE.INTER.norm>
-2.36964

>  <SCORE.INTRA>
0

>  <SCORE.INTRA.DIHEDRAL>
0

>  <SCORE.INTRA.DIHEDRAL.0>
0

>  <SCORE.INTRA.POLAR>
0

>  <SCORE.INTRA.POLAR.0>
0

>  <SCORE.INTRA.REPUL>
0

>  <SCORE.INTRA.REPUL.0>
0

>  <SCORE.INTRA.SOLV>
0

>  <SCORE.INTRA.SOLV.lig_0>
-4.1818

>  <SCORE.INTRA.VDW>
0

>  <SCORE.INTRA.VDW.0>
0

>  <SCORE.INTRA.norm>
0

>  <SCORE.RESTR>
0

>  <SCORE.RESTR.CAVITY>
0

>  <SCORE.RESTR.norm>
0

>  <SCORE.SYSTEM>
0

>  <SCORE.SYSTEM.CONST>
0

>  <SCORE.SYSTEM.DIHEDRAL>
0

>  <SCORE.SYSTEM.SOLV>
0

>  <SCORE.SYSTEM.norm>
0

>  <SCORE.heavy>
10

>  <SCORE.norm>
-2.36964

>  <RMSD>
1.240

$$$$
ligand
 OpenBabel11021811503D
libRbt.so/2013.1/901 2013/11/27
 10 11  0  0  0  0  0  0  0  0999 V2000
   18.9110   -4.7431    2.5417 N   0  0  0  0  0  0  0  0  0  0  0  0
   17.8881   -5.2797    3.1805 C   0  0  0  0  0  0  0  0  0  0  0  0
   16.8786   -4.4473    3.6755 N   0  0  0  0  0  0  0  0  0  0  0  0
   16.9668   -3.1202    3.5111 C   0  0  0  0  0  0  0  0  0  0  0  0
   18.0037   -2.5845    2.8713 C   0  0  0  0  0  0  0  0  0  0  0  0
   18.9680   -3.3553    2.3740 C   0  0  0  0  0  0  0  0  0  0  0  0
   19.9112   -2.8607    1.7589 O   0  0  0  0  0  0  0  0  0  0  0  0
   17.8722   -1.2618    2.9212 N   0  0  0  0  0  0  0  0  0  0  0  0
   16.7556   -0.9785    3.5844 C   0  0  0  0  0  0  0  0  0  0  0  0
   16.1927   -2.1293    3.9417 N   0  0  0  0  0  0  0  0  0  0  0  0
  1  2  1  0  0  0  0
  1  6  1  0  0  0  0
  2  3  2  0  0  0  0
  3  4  1  0  0  0  0
  4  5  2  0  0  0  0
  4 10  1  0  0  0  0
  5  6  1  0  0  0  0
  5  8  1  0  0  0  0
  6  7  2  0  0  0  0
  8  9  1  0  0  0  0
  9 10  2  0  0  0  0
M  END
>  <CHROM.1>
17.87506575,-3.07371459,3.01158926,0.78980152,-0.53643420,3.07627104

>  <Name>
ligand

>  <RI>
0

>  <Rbt.Current_Directory>
/home/itssahil/PROJECTS/Mol_Feturizer/New_Systems/rnas/4NYD

>  <Rbt.Executable>
rbdock ($Id: //depot/dev/client3/rdock/2013.1/src/exe/rbdock.cxx#4 $)

>  <Rbt.Library>
libRbt.so (2013.1, Build901 2013/11/27)

>  <Rbt.Parameter_File>
/export/apps/rDock/src/rDock_2013.1_src/data/scripts/dock_solv.prm

>  <Rbt.Receptor>
prm/blind_docking_80.prm

>  <SCORE>
-23.7353

>  <SCORE.INTER>
-23.7353

>  <SCORE.INTER.CONST>
1

>  <SCORE.INTER.POLAR>
0

>  <SCORE.INTER.ROT>
0

>  <SCORE.INTER.SOLV>
3.38425

>  <SCORE.INTER.VDW>
-20.5516

>  <SCORE.INTER.norm>
-2.37353

>  <SCORE.INTRA>
0

>  <SCORE.INTRA.DIHEDRAL>
0

>  <SCORE.INTRA.DIHEDRAL.0>
0

>  <SCORE.INTRA.POLAR>
0

>  <SCORE.INTRA.POLAR.0>
0

>  <SCORE.INTRA.REPUL>
0

>  <SCORE.INTRA.REPUL.0>
0

>  <SCORE.INTRA.SOLV>
0

>  <SCORE.INTRA.SOLV.lig_0>
-4.1818

>  <SCORE.INTRA.VDW>
0

>  <SCORE.INTRA.VDW.0>
0

>  <SCORE.INTRA.norm>
0

>  <SCORE.RESTR>
0

>  <SCORE.RESTR.CAVITY>
0

>  <SCORE.RESTR.norm>
0

>  <SCORE.SYSTEM>
0

>  <SCORE.SYSTEM.CONST>
0

>  <SCORE.SYSTEM.DIHEDRAL>
0

>  <SCORE.SYSTEM.SOLV>
0

>  <SCORE.SYSTEM.norm>
0

>  <SCORE.heavy>
10

>  <SCORE.norm>
-2.37353

>  <RMSD>
1.243

$$$$
ligand
 OpenBabel11021811503D
libRbt.so/2013.1/901 2013/11/27
 10 11  0  0  0  0  0  0  0  0999 V2000
   18.8877   -4.7434    2.5784 N   0  0  0  0  0  0  0  0  0  0  0  0
   17.8461   -5.2344    3.2236 C   0  0  0  0  0  0  0  0  0  0  0  0
   16.8502   -4.3631    3.6773 N   0  0  0  0  0  0  0  0  0  0  0  0
   16.9700   -3.0448    3.4675 C   0  0  0  0  0  0  0  0  0  0  0  0
   18.0256   -2.5551    2.8216 C   0  0  0  0  0  0  0  0  0  0  0  0
   18.9777   -3.3640    2.3629 C   0  0  0  0  0  0  0  0  0  0  0  0
   19.9385   -2.9124    1.7418 O   0  0  0  0  0  0  0  0  0  0  0  0
   17.9233   -1.2288    2.8235 N   0  0  0  0  0  0  0  0  0  0  0  0
   16.8061   -0.8977    3.4632 C   0  0  0  0  0  0  0  0  0  0  0  0
   16.2137   -2.0226    3.8540 N   0  0  0  0  0  0  0  0  0  0  0  0
  1  2  1  0  0  0  0
  1  6  1  0  0  0  0
  2  3  2  0  0  0  0
  3  4  1  0  0  0  0
  4  5  2  0  0  0  0
  4 10  1  0  0  0  0
  5  6  1  0  0  0  0
  5  8  1  0  0  0  0
  6  7  2  0  0  0  0
  8  9  1  0  0  0  0
  9 10  2  0  0  0  0
M  END
>  <CHROM.1>
17.88446006,-3.03607780,2.97735463,0.81657090,-0.52684721,3.05466189

>  <Name>
ligand

>  <RI>
0

>  <Rbt.Current_Directory>
/home/itssahil/PROJECTS/Mol_Feturizer/New_Systems/rnas/4NYD

>  <Rbt.Executable>
rbdock ($Id: //depot/dev/client3/rdock/2013.1/src/exe/rbdock.cxx#4 $)

>  <Rbt.Library>
libRbt.so (2013.1, Build901 2013/11/27)

>  <Rbt.Parameter_File>
/export/apps/rDock/src/rDock_2013.1_src/data/scripts/dock_solv.prm

>  <Rbt.Receptor>
prm/pocket_docking_3.prm

>  <SCORE>
-23.6915

>  <SCORE.INTER>
-23.6915

>  <SCORE.INTER.CONST>
1

>  <SCORE.INTER.POLAR>
0

>  <SCORE.INTER.ROT>
0

>  <SCORE.INTER.SOLV>
3.32355

>  <SCORE.INTER.VDW>
-20.5022

>  <SCORE.INTER.norm>
-2.36915

>  <SCORE.INTRA>
0

>  <SCORE.INTRA.DIHEDRAL>
0

>  <SCORE.INTRA.DIHEDRAL.0>
0

>  <SCORE.INTRA.POLAR>
0

>  <SCORE.INTRA.POLAR.0>
0

>  <SCORE.INTRA.REPUL>
0

>  <SCORE.INTRA.REPUL.0>
0

>  <SCORE.INTRA.SOLV>
0

>  <SCORE.INTRA.SOLV.lig_0>
-4.1818

>  <SCORE.INTRA.VDW>
0

>  <SCORE.INTRA.VDW.0>
0

>  <SCORE.INTRA.norm>
0

>  <SCORE.RESTR>
0

>  <SCORE.RESTR.CAVITY>
0

>  <SCORE.RESTR.norm>
0

>  <SCORE.SYSTEM>
0

>  <SCORE.SYSTEM.CONST>
0

>  <SCORE.SYSTEM.DIHEDRAL>
0

>  <SCORE.SYSTEM.SOLV>
0

>  <SCORE.SYSTEM.norm>
0

>  <SCORE.heavy>
10

>  <SCORE.norm>
-2.36915

>  <RMSD>
1.243

$$$$
ligand
 OpenBabel11021811503D
libRbt.so/2013.1/901 2013/11/27
 10 11  0  0  0  0  0  0  0  0999 V2000
   18.8998   -4.7554    2.5468 N   0  0  0  0  0  0  0  0  0  0  0  0
   17.8649   -5.2925    3.1656 C   0  0  0  0  0  0  0  0  0  0  0  0
   16.8536   -4.4593    3.6555 N   0  0  0  0  0  0  0  0  0  0  0  0
   16.9521   -3.1310    3.5066 C   0  0  0  0  0  0  0  0  0  0  0  0
   18.0009   -2.5949    2.8871 C   0  0  0  0  0  0  0  0  0  0  0  0
   18.9674   -3.3663    2.3949 C   0  0  0  0  0  0  0  0  0  0  0  0
   19.9221   -2.8710    1.7982 O   0  0  0  0  0  0  0  0  0  0  0  0
   17.8767   -1.2721    2.9493 N   0  0  0  0  0  0  0  0  0  0  0  0
   16.7526   -0.9890    3.6000 C   0  0  0  0  0  0  0  0  0  0  0  0
   16.1780   -2.1401    3.9371 N   0  0  0  0  0  0  0  0  0  0  0  0
  1  2  1  0  0  0  0
  1  6  1  0  0  0  0
  2  3  2  0  0  0  0
  3  4  1  0  0  0  0
  4  5  2  0  0  0  0
  4 10  1  0  0  0  0
  5  6  1  0  0  0  0
  5  8  1  0  0  0  0
  6  7  2  0  0  0  0
  8  9  1  0  0  0  0
  9 10  2  0  0  0  0
M  END
>  <CHROM.1>
17.86744117,-3.08484123,3.02025076,0.79774493,-0.52294340,3.09098119

>  <Name>
ligand

>  <RI>
0

>  <Rbt.Current_Directory>
/home/itssahil/PROJECTS/Mol_Feturizer/New_Systems/rnas/4NYD

>  <Rbt.Executable>
rbdock ($Id: //depot/dev/client3/rdock/2013.1/src/exe/rbdock.cxx#4 $)

>  <Rbt.Library>
libRbt.so (2013.1, Build901 2013/11/27)

>  <Rbt.Parameter_File>
/export/apps/rDock/src/rDock_2013.1_src/data/scripts/dock_solv.prm

>  <Rbt.Receptor>
prm/pocket_docking_7.prm

>  <SCORE>
-23.7282

>  <SCORE.INTER>
-23.7282

>  <SCORE.INTER.CONST>
1

>  <SCORE.INTER.POLAR>
0

>  <SCORE.INTER.ROT>
0

>  <SCORE.INTER.SOLV>
3.39507

>  <SCORE.INTER.VDW>
-20.5505

>  <SCORE.INTER.norm>
-2.37282

>  <SCORE.INTRA>
0

>  <SCORE.INTRA.DIHEDRAL>
0

>  <SCORE.INTRA.DIHEDRAL.0>
0

>  <SCORE.INTRA.POLAR>
0

>  <SCORE.INTRA.POLAR.0>
0

>  <SCORE.INTRA.REPUL>
0

>  <SCORE.INTRA.REPUL.0>
0

>  <SCORE.INTRA.SOLV>
0

>  <SCORE.INTRA.SOLV.lig_0>
-4.1818

>  <SCORE.INTRA.VDW>
0

>  <SCORE.INTRA.VDW.0>
0

>  <SCORE.INTRA.norm>
0

>  <SCORE.RESTR>
0

>  <SCORE.RESTR.CAVITY>
0

>  <SCORE.RESTR.norm>
0

>  <SCORE.SYSTEM>
0

>  <SCORE.SYSTEM.CONST>
0

>  <SCORE.SYSTEM.DIHEDRAL>
0

>  <SCORE.SYSTEM.SOLV>
0

>  <SCORE.SYSTEM.norm>
0

>  <SCORE.heavy>
10

>  <SCORE.norm>
-2.37282

>  <RMSD>
1.251

$$$$
ligand
 OpenBabel11021811503D
libRbt.so/2013.1/901 2013/11/27
 10 11  0  0  0  0  0  0  0  0999 V2000
   19.4920   -4.2726    2.0975 N   0  0  0  0  0  0  0  0  0  0  0  0
   19.8863   -3.0382    1.8462 C   0  0  0  0  0  0  0  0  0  0  0  0
   19.1301   -1.9667    2.3329 N   0  0  0  0  0  0  0  0  0  0  0  0
   18.0111   -2.2021    3.0320 C   0  0  0  0  0  0  0  0  0  0  0  0
   17.6154   -3.4490    3.2769 C   0  0  0  0  0  0  0  0  0  0  0  0
   18.3268   -4.4862    2.8417 C   0  0  0  0  0  0  0  0  0  0  0  0
   17.9746   -5.6375    3.0929 O   0  0  0  0  0  0  0  0  0  0  0  0
   16.4502   -3.3871    3.9156 N   0  0  0  0  0  0  0  0  0  0  0  0
   16.1273   -2.1069    4.0708 C   0  0  0  0  0  0  0  0  0  0  0  0
   17.0978   -1.3753    3.5306 N   0  0  0  0  0  0  0  0  0  0  0  0
  1  2  1  0  0  0  0
  1  6  1  0  0  0  0
  2  3  2  0  0  0  0
  3  4  1  0  0  0  0
  4  5  2  0  0  0  0
  4 10  1  0  0  0  0
  5  6  1  0  0  0  0
  5  8  1  0  0  0  0
  6  7  2  0  0  0  0
  8  9  1  0  0  0  0
  9 10  2  0  0  0  0
M  END
>  <CHROM.1>
18.01195438,-3.23931812,3.00432409,-0.68166414,0.53946406,-0.01697056

>  <Name>
ligand

>  <RI>
0

>  <Rbt.Current_Directory>
/home/itssahil/PROJECTS/Mol_Feturizer/New_Systems/rnas/4NYD

>  <Rbt.Executable>
rbdock ($Id: //depot/dev/client3/rdock/2013.1/src/exe/rbdock.cxx#4 $)

>  <Rbt.Library>
libRbt.so (2013.1, Build901 2013/11/27)

>  <Rbt.Parameter_File>
/export/apps/rDock/src/rDock_2013.1_src/data/scripts/dock_solv.prm

>  <Rbt.Receptor>
prm/blind_docking_100.prm

>  <SCORE>
-21.2848

>  <SCORE.INTER>
-21.2848

>  <SCORE.INTER.CONST>
1

>  <SCORE.INTER.POLAR>
0

>  <SCORE.INTER.ROT>
0

>  <SCORE.INTER.SOLV>
4.15484

>  <SCORE.INTER.VDW>
-19.1748

>  <SCORE.INTER.norm>
-2.12848

>  <SCORE.INTRA>
0

>  <SCORE.INTRA.DIHEDRAL>
0

>  <SCORE.INTRA.DIHEDRAL.0>
0

>  <SCORE.INTRA.POLAR>
0

>  <SCORE.INTRA.POLAR.0>
0

>  <SCORE.INTRA.REPUL>
0

>  <SCORE.INTRA.REPUL.0>
0

>  <SCORE.INTRA.SOLV>
0

>  <SCORE.INTRA.SOLV.lig_0>
-4.1818

>  <SCORE.INTRA.VDW>
0

>  <SCORE.INTRA.VDW.0>
0

>  <SCORE.INTRA.norm>
0

>  <SCORE.RESTR>
0

>  <SCORE.RESTR.CAVITY>
0

>  <SCORE.RESTR.norm>
0

>  <SCORE.SYSTEM>
0

>  <SCORE.SYSTEM.CONST>
0

>  <SCORE.SYSTEM.DIHEDRAL>
0

>  <SCORE.SYSTEM.SOLV>
0

>  <SCORE.SYSTEM.norm>
0

>  <SCORE.heavy>
10

>  <SCORE.norm>
-2.12848

>  <RMSD>
2.510

$$$$
ligand
 OpenBabel11021811503D
libRbt.so/2013.1/901 2013/11/27
 10 11  0  0  0  0  0  0  0  0999 V2000
   19.4769   -4.2050    2.1223 N   0  0  0  0  0  0  0  0  0  0  0  0
   19.8759   -2.9714    1.8743 C   0  0  0  0  0  0  0  0  0  0  0  0
   19.1239   -1.8984    2.3641 N   0  0  0  0  0  0  0  0  0  0  0  0
   18.0042   -2.1313    3.0628 C   0  0  0  0  0  0  0  0  0  0  0  0
   17.6037   -3.3774    3.3044 C   0  0  0  0  0  0  0  0  0  0  0  0
   18.3110   -4.4161    2.8662 C   0  0  0  0  0  0  0  0  0  0  0  0
   17.9544   -5.5668    3.1143 O   0  0  0  0  0  0  0  0  0  0  0  0
   16.4390   -3.3127    3.9435 N   0  0  0  0  0  0  0  0  0  0  0  0
   16.1211   -2.0318    4.1024 C   0  0  0  0  0  0  0  0  0  0  0  0
   17.0943   -1.3024    3.5640 N   0  0  0  0  0  0  0  0  0  0  0  0
  1  2  1  0  0  0  0
  1  6  1  0  0  0  0
  2  3  2  0  0  0  0
  3  4  1  0  0  0  0
  4  5  2  0  0  0  0
  4 10  1  0  0  0  0
  5  6  1  0  0  0  0
  5  8  1  0  0  0  0
  6  7  2  0  0  0  0
  8  9  1  0  0  0  0
  9 10  2  0  0  0  0
M  END
>  <CHROM.1>
18.00105828,-3.16848385,3.03230717,-0.68616848,0.53977138,-0.01190265

>  <Name>
ligand

>  <RI>
0

>  <Rbt.Current_Directory>
/home/itssahil/PROJECTS/Mol_Feturizer/New_Systems/rnas/4NYD

>  <Rbt.Executable>
rbdock ($Id: //depot/dev/client3/rdock/2013.1/src/exe/rbdock.cxx#4 $)

>  <Rbt.Library>
libRbt.so (2013.1, Build901 2013/11/27)

>  <Rbt.Parameter_File>
/export/apps/rDock/src/rDock_2013.1_src/data/scripts/dock_solv.prm

>  <Rbt.Receptor>
prm/blind_docking_80.prm

>  <SCORE>
-21.2952

>  <SCORE.INTER>
-21.2952

>  <SCORE.INTER.CONST>
1

>  <SCORE.INTER.POLAR>
0

>  <SCORE.INTER.ROT>
0

>  <SCORE.INTER.SOLV>
4.19529

>  <SCORE.INTER.VDW>
-19.1952

>  <SCORE.INTER.norm>
-2.12952

>  <SCORE.INTRA>
0

>  <SCORE.INTRA.DIHEDRAL>
0

>  <SCORE.INTRA.DIHEDRAL.0>
0

>  <SCORE.INTRA.POLAR>
0

>  <SCORE.INTRA.POLAR.0>
0

>  <SCORE.INTRA.REPUL>
0

>  <SCORE.INTRA.REPUL.0>
0

>  <SCORE.INTRA.SOLV>
0

>  <SCORE.INTRA.SOLV.lig_0>
-4.1818

>  <SCORE.INTRA.VDW>
0

>  <SCORE.INTRA.VDW.0>
0

>  <SCORE.INTRA.norm>
0

>  <SCORE.RESTR>
0

>  <SCORE.RESTR.CAVITY>
0

>  <SCORE.RESTR.norm>
0

>  <SCORE.SYSTEM>
0

>  <SCORE.SYSTEM.CONST>
0

>  <SCORE.SYSTEM.DIHEDRAL>
0

>  <SCORE.SYSTEM.SOLV>
0

>  <SCORE.SYSTEM.norm>
0

>  <SCORE.heavy>
10

>  <SCORE.norm>
-2.12952

>  <RMSD>
2.516

$$$$
ligand
 OpenBabel11021811503D
libRbt.so/2013.1/901 2013/11/27
 10 11  0  0  0  0  0  0  0  0999 V2000
   19.3880   -4.0703    2.2666 N   0  0  0  0  0  0  0  0  0  0  0  0
   19.8477   -2.8910    1.8923 C   0  0  0  0  0  0  0  0  0  0  0  0
   19.1212   -1.7401    2.2157 N   0  0  0  0  0  0  0  0  0  0  0  0
   17.9648   -1.8465    2.8847 C   0  0  0  0  0  0  0  0  0  0  0  0
   17.5033   -3.0389    3.2541 C   0  0  0  0  0  0  0  0  0  0  0  0
   18.1844   -4.1479    2.9757 C   0  0  0  0  0  0  0  0  0  0  0  0
   17.7705   -5.2465    3.3422 O   0  0  0  0  0  0  0  0  0  0  0  0
   16.3166   -2.8555    3.8265 N   0  0  0  0  0  0  0  0  0  0  0  0
   16.0458   -1.5541    3.8170 C   0  0  0  0  0  0  0  0  0  0  0  0
   17.0699   -0.9307    3.2411 N   0  0  0  0  0  0  0  0  0  0  0  0
  1  2  1  0  0  0  0
  1  6  1  0  0  0  0
  2  3  2  0  0  0  0
  3  4  1  0  0  0  0
  4  5  2  0  0  0  0
  4 10  1  0  0  0  0
  5  6  1  0  0  0  0
  5  8  1  0  0  0  0
  6  7  2  0  0  0  0
  8  9  1  0  0  0  0
  9 10  2  0  0  0  0
M  END
>  <CHROM.1>
17.91985732,-2.87889535,2.97771095,-0.73392471,0.49823459,-0.10843540

>  <Name>
ligand

>  <RI>
0

>  <Rbt.Current_Directory>
/home/itssahil/PROJECTS/Mol_Feturizer/New_Systems/rnas/4NYD

>  <Rbt.Executable>
rbdock ($Id: //depot/dev/client3/rdock/2013.1/src/exe/rbdock.cxx#4 $)

>  <Rbt.Library>
libRbt.so (2013.1, Build901 2013/11/27)

>  <Rbt.Parameter_File>
/export/apps/rDock/src/rDock_2013.1_src/data/scripts/dock_solv.prm

>  <Rbt.Receptor>
prm/blind_docking_80.prm

>  <SCORE>
-21.2352

>  <SCORE.INTER>
-21.2352

>  <SCORE.INTER.CONST>
1

>  <SCORE.INTER.POLAR>
0

>  <SCORE.INTER.ROT>
0

>  <SCORE.INTER.SOLV>
4.06397

>  <SCORE.INTER.VDW>
-19.1115

>  <SCORE.INTER.norm>
-2.12352

>  <SCORE.INTRA>
0

>  <SCORE.INTRA.DIHEDRAL>
0

>  <SCORE.INTRA.DIHEDRAL.0>
0

>  <SCORE.INTRA.POLAR>
0

>  <SCORE.INTRA.POLAR.0>
0

>  <SCORE.INTRA.REPUL>
0

>  <SCORE.INTRA.REPUL.0>
0

>  <SCORE.INTRA.SOLV>
0

>  <SCORE.INTRA.SOLV.lig_0>
-4.1818

>  <SCORE.INTRA.VDW>
0

>  <SCORE.INTRA.VDW.0>
0

>  <SCORE.INTRA.norm>
0

>  <SCORE.RESTR>
0

>  <SCORE.RESTR.CAVITY>
0

>  <SCORE.RESTR.norm>
0

>  <SCORE.SYSTEM>
0

>  <SCORE.SYSTEM.CONST>
0

>  <SCORE.SYSTEM.DIHEDRAL>
0

>  <SCORE.SYSTEM.SOLV>
0

>  <SCORE.SYSTEM.norm>
0

>  <SCORE.heavy>
10

>  <SCORE.norm>
-2.12352

>  <RMSD>
2.532

$$$$
ligand
 OpenBabel11021811503D
libRbt.so/2013.1/901 2013/11/27
 10 11  0  0  0  0  0  0  0  0999 V2000
   19.2818   -4.0955    2.2660 N   0  0  0  0  0  0  0  0  0  0  0  0
   19.8344   -2.9623    1.8751 C   0  0  0  0  0  0  0  0  0  0  0  0
   19.2070   -1.7520    2.1887 N   0  0  0  0  0  0  0  0  0  0  0  0
   18.0501   -1.7552    2.8652 C   0  0  0  0  0  0  0  0  0  0  0  0
   17.4946   -2.9013    3.2514 C   0  0  0  0  0  0  0  0  0  0  0  0
   18.0806   -4.0656    2.9826 C   0  0  0  0  0  0  0  0  0  0  0  0
   17.5801   -5.1222    3.3645 O   0  0  0  0  0  0  0  0  0  0  0  0
   16.3307   -2.6144    3.8281 N   0  0  0  0  0  0  0  0  0  0  0  0
   16.1677   -1.2953    3.8044 C   0  0  0  0  0  0  0  0  0  0  0  0
   17.2358   -0.7649    3.2156 N   0  0  0  0  0  0  0  0  0  0  0  0
  1  2  1  0  0  0  0
  1  6  1  0  0  0  0
  2  3  2  0  0  0  0
  3  4  1  0  0  0  0
  4  5  2  0  0  0  0
  4 10  1  0  0  0  0
  5  6  1  0  0  0  0
  5  8  1  0  0  0  0
  6  7  2  0  0  0  0
  8  9  1  0  0  0  0
  9 10  2  0  0  0  0
M  END
>  <CHROM.1>
17.92112307,-2.77927661,2.97083996,-0.82692972,0.51172016,-0.07516682

>  <Name>
ligand

>  <RI>
0

>  <Rbt.Current_Directory>
/home/itssahil/PROJECTS/Mol_Feturizer/New_Systems/rnas/4NYD

>  <Rbt.Executable>
rbdock ($Id: //depot/dev/client3/rdock/2013.1/src/exe/rbdock.cxx#4 $)

>  <Rbt.Library>
libRbt.so (2013.1, Build901 2013/11/27)

>  <Rbt.Parameter_File>
/export/apps/rDock/src/rDock_2013.1_src/data/scripts/dock_solv.prm

>  <Rbt.Receptor>
prm/blind_docking_40.prm

>  <SCORE>
-21.5145

>  <SCORE.INTER>
-21.5145

>  <SCORE.INTER.CONST>
1

>  <SCORE.INTER.POLAR>
0

>  <SCORE.INTER.ROT>
0

>  <SCORE.INTER.SOLV>
4.22751

>  <SCORE.INTER.VDW>
-19.3522

>  <SCORE.INTER.norm>
-2.15145

>  <SCORE.INTRA>
0

>  <SCORE.INTRA.DIHEDRAL>
0

>  <SCORE.INTRA.DIHEDRAL.0>
0

>  <SCORE.INTRA.POLAR>
0

>  <SCORE.INTRA.POLAR.0>
0

>  <SCORE.INTRA.REPUL>
0

>  <SCORE.INTRA.REPUL.0>
0

>  <SCORE.INTRA.SOLV>
0

>  <SCORE.INTRA.SOLV.lig_0>
-4.1818

>  <SCORE.INTRA.VDW>
0

>  <SCORE.INTRA.VDW.0>
0

>  <SCORE.INTRA.norm>
0

>  <SCORE.RESTR>
0

>  <SCORE.RESTR.CAVITY>
0

>  <SCORE.RESTR.norm>
0

>  <SCORE.SYSTEM>
0

>  <SCORE.SYSTEM.CONST>
0

>  <SCORE.SYSTEM.DIHEDRAL>
0

>  <SCORE.SYSTEM.SOLV>
0

>  <SCORE.SYSTEM.norm>
0

>  <SCORE.heavy>
10

>  <SCORE.norm>
-2.15145

>  <RMSD>
2.540

$$$$
ligand
 OpenBabel11021811503D
libRbt.so/2013.1/901 2013/11/27
 10 11  0  0  0  0  0  0  0  0999 V2000
   19.2359   -4.1665    2.2816 N   0  0  0  0  0  0  0  0  0  0  0  0
   19.8009   -3.0507    1.8596 C   0  0  0  0  0  0  0  0  0  0  0  0
   19.1946   -1.8245    2.1521 N   0  0  0  0  0  0  0  0  0  0  0  0
   18.0449   -1.7953    2.8404 C   0  0  0  0  0  0  0  0  0  0  0  0
   17.4768   -2.9241    3.2580 C   0  0  0  0  0  0  0  0  0  0  0  0
   18.0428   -4.1027    3.0095 C   0  0  0  0  0  0  0  0  0  0  0  0
   17.5311   -5.1430    3.4203 O   0  0  0  0  0  0  0  0  0  0  0  0
   16.3235   -2.6071    3.8399 N   0  0  0  0  0  0  0  0  0  0  0  0
   16.1795   -1.2866    3.7881 C   0  0  0  0  0  0  0  0  0  0  0  0
   17.2490   -0.7855    3.1766 N   0  0  0  0  0  0  0  0  0  0  0  0
  1  2  1  0  0  0  0
  1  6  1  0  0  0  0
  2  3  2  0  0  0  0
  3  4  1  0  0  0  0
  4  5  2  0  0  0  0
  4 10  1  0  0  0  0
  5  6  1  0  0  0  0
  5  8  1  0  0  0  0
  6  7  2  0  0  0  0
  8  9  1  0  0  0  0
  9 10  2  0  0  0  0
M  END
>  <CHROM.1>
17.90212697,-2.81474317,2.97037111,-0.84285800,0.52328058,-0.08977541

>  <Name>
ligand

>  <RI>
0

>  <Rbt.Current_Directory>
/home/itssahil/PROJECTS/Mol_Feturizer/New_Systems/rnas/4NYD

>  <Rbt.Executable>
rbdock ($Id: //depot/dev/client3/rdock/2013.1/src/exe/rbdock.cxx#4 $)

>  <Rbt.Library>
libRbt.so (2013.1, Build901 2013/11/27)

>  <Rbt.Parameter_File>
/export/apps/rDock/src/rDock_2013.1_src/data/scripts/dock_solv.prm

>  <Rbt.Receptor>
prm/blind_docking_40.prm

>  <SCORE>
-21.5403

>  <SCORE.INTER>
-21.5403

>  <SCORE.INTER.CONST>
1

>  <SCORE.INTER.POLAR>
0

>  <SCORE.INTER.ROT>
0

>  <SCORE.INTER.SOLV>
4.25778

>  <SCORE.INTER.VDW>
-19.3795

>  <SCORE.INTER.norm>
-2.15403

>  <SCORE.INTRA>
0

>  <SCORE.INTRA.DIHEDRAL>
0

>  <SCORE.INTRA.DIHEDRAL.0>
0

>  <SCORE.INTRA.POLAR>
0

>  <SCORE.INTRA.POLAR.0>
0

>  <SCORE.INTRA.REPUL>
0

>  <SCORE.INTRA.REPUL.0>
0

>  <SCORE.INTRA.SOLV>
0

>  <SCORE.INTRA.SOLV.lig_0>
-4.1818

>  <SCORE.INTRA.VDW>
0

>  <SCORE.INTRA.VDW.0>
0

>  <SCORE.INTRA.norm>
0

>  <SCORE.RESTR>
0

>  <SCORE.RESTR.CAVITY>
0

>  <SCORE.RESTR.norm>
0

>  <SCORE.SYSTEM>
0

>  <SCORE.SYSTEM.CONST>
0

>  <SCORE.SYSTEM.DIHEDRAL>
0

>  <SCORE.SYSTEM.SOLV>
0

>  <SCORE.SYSTEM.norm>
0

>  <SCORE.heavy>
10

>  <SCORE.norm>
-2.15403

>  <RMSD>
2.542

$$$$
ligand
 OpenBabel11021811503D
libRbt.so/2013.1/901 2013/11/27
 10 11  0  0  0  0  0  0  0  0999 V2000
   17.5334   -5.2011    3.3752 N   0  0  0  0  0  0  0  0  0  0  0  0
   16.7465   -4.2378    3.8169 C   0  0  0  0  0  0  0  0  0  0  0  0
   17.0612   -2.9077    3.5193 N   0  0  0  0  0  0  0  0  0  0  0  0
   18.1601   -2.6249    2.8061 C   0  0  0  0  0  0  0  0  0  0  0  0
   18.9530   -3.6003    2.3686 C   0  0  0  0  0  0  0  0  0  0  0  0
   18.6661   -4.8750    2.6216 C   0  0  0  0  0  0  0  0  0  0  0  0
   19.3847   -5.7764    2.1927 O   0  0  0  0  0  0  0  0  0  0  0  0
   19.9947   -3.0361    1.7635 N   0  0  0  0  0  0  0  0  0  0  0  0
   19.8456   -1.7164    1.8209 C   0  0  0  0  0  0  0  0  0  0  0  0
   18.7064   -1.4641    2.4592 N   0  0  0  0  0  0  0  0  0  0  0  0
  1  2  1  0  0  0  0
  1  6  1  0  0  0  0
  2  3  2  0  0  0  0
  3  4  1  0  0  0  0
  4  5  2  0  0  0  0
  4 10  1  0  0  0  0
  5  6  1  0  0  0  0
  5  8  1  0  0  0  0
  6  7  2  0  0  0  0
  8  9  1  0  0  0  0
  9 10  2  0  0  0  0
M  END
>  <CHROM.1>
18.52079210,-3.58772889,2.66619104,2.04090001,-0.55181495,3.10301665

>  <Name>
ligand

>  <RI>
0

>  <Rbt.Current_Directory>
/home/itssahil/PROJECTS/Mol_Feturizer/New_Systems/rnas/4NYD

>  <Rbt.Executable>
rbdock ($Id: //depot/dev/client3/rdock/2013.1/src/exe/rbdock.cxx#4 $)

>  <Rbt.Library>
libRbt.so (2013.1, Build901 2013/11/27)

>  <Rbt.Parameter_File>
/export/apps/rDock/src/rDock_2013.1_src/data/scripts/dock_solv.prm

>  <Rbt.Receptor>
prm/blind_docking_100.prm

>  <SCORE>
-21.1004

>  <SCORE.INTER>
-21.1004

>  <SCORE.INTER.CONST>
1

>  <SCORE.INTER.POLAR>
0

>  <SCORE.INTER.ROT>
0

>  <SCORE.INTER.SOLV>
3.46807

>  <SCORE.INTER.VDW>
-18.823

>  <SCORE.INTER.norm>
-2.11004

>  <SCORE.INTRA>
0

>  <SCORE.INTRA.DIHEDRAL>
0

>  <SCORE.INTRA.DIHEDRAL.0>
0

>  <SCORE.INTRA.POLAR>
0

>  <SCORE.INTRA.POLAR.0>
0

>  <SCORE.INTRA.REPUL>
0

>  <SCORE.INTRA.REPUL.0>
0

>  <SCORE.INTRA.SOLV>
0

>  <SCORE.INTRA.SOLV.lig_0>
-4.1818

>  <SCORE.INTRA.VDW>
0

>  <SCORE.INTRA.VDW.0>
0

>  <SCORE.INTRA.norm>
0

>  <SCORE.RESTR>
0

>  <SCORE.RESTR.CAVITY>
0

>  <SCORE.RESTR.norm>
0

>  <SCORE.SYSTEM>
0

>  <SCORE.SYSTEM.CONST>
0

>  <SCORE.SYSTEM.DIHEDRAL>
0

>  <SCORE.SYSTEM.SOLV>
0

>  <SCORE.SYSTEM.norm>
0

>  <SCORE.heavy>
10

>  <SCORE.norm>
-2.11004

>  <RMSD>
2.543

$$$$
ligand
 OpenBabel11021811503D
libRbt.so/2013.1/901 2013/11/27
 10 11  0  0  0  0  0  0  0  0999 V2000
   19.2051   -4.1283    2.2335 N   0  0  0  0  0  0  0  0  0  0  0  0
   19.7690   -3.0095    1.8179 C   0  0  0  0  0  0  0  0  0  0  0  0
   19.1789   -1.7841    2.1451 N   0  0  0  0  0  0  0  0  0  0  0  0
   18.0455   -1.7584    2.8598 C   0  0  0  0  0  0  0  0  0  0  0  0
   17.4783   -2.8900    3.2709 C   0  0  0  0  0  0  0  0  0  0  0  0
   18.0294   -4.0683    2.9895 C   0  0  0  0  0  0  0  0  0  0  0  0
   17.5191   -5.1117    3.3940 O   0  0  0  0  0  0  0  0  0  0  0  0
   16.3409   -2.5747    3.8843 N   0  0  0  0  0  0  0  0  0  0  0  0
   16.2060   -1.2525    3.8585 C   0  0  0  0  0  0  0  0  0  0  0  0
   17.2651   -0.7487    3.2313 N   0  0  0  0  0  0  0  0  0  0  0  0
  1  2  1  0  0  0  0
  1  6  1  0  0  0  0
  2  3  2  0  0  0  0
  3  4  1  0  0  0  0
  4  5  2  0  0  0  0
  4 10  1  0  0  0  0
  5  6  1  0  0  0  0
  5  8  1  0  0  0  0
  6  7  2  0  0  0  0
  8  9  1  0  0  0  0
  9 10  2  0  0  0  0
M  END
>  <CHROM.1>
17.89777366,-2.77885095,2.97559213,-0.84946038,0.54656642,-0.06924099

>  <Name>
ligand

>  <RI>
0

>  <Rbt.Current_Directory>
/home/itssahil/PROJECTS/Mol_Feturizer/New_Systems/rnas/4NYD

>  <Rbt.Executable>
rbdock ($Id: //depot/dev/client3/rdock/2013.1/src/exe/rbdock.cxx#4 $)

>  <Rbt.Library>
libRbt.so (2013.1, Build901 2013/11/27)

>  <Rbt.Parameter_File>
/export/apps/rDock/src/rDock_2013.1_src/data/scripts/dock_solv.prm

>  <Rbt.Receptor>
prm/blind_docking_60.prm

>  <SCORE>
-21.4673

>  <SCORE.INTER>
-21.4673

>  <SCORE.INTER.CONST>
1

>  <SCORE.INTER.POLAR>
0

>  <SCORE.INTER.ROT>
0

>  <SCORE.INTER.SOLV>
4.30683

>  <SCORE.INTER.VDW>
-19.3471

>  <SCORE.INTER.norm>
-2.14673

>  <SCORE.INTRA>
0

>  <SCORE.INTRA.DIHEDRAL>
0

>  <SCORE.INTRA.DIHEDRAL.0>
0

>  <SCORE.INTRA.POLAR>
0

>  <SCORE.INTRA.POLAR.0>
0

>  <SCORE.INTRA.REPUL>
0

>  <SCORE.INTRA.REPUL.0>
0

>  <SCORE.INTRA.SOLV>
0

>  <SCORE.INTRA.SOLV.lig_0>
-4.1818

>  <SCORE.INTRA.VDW>
0

>  <SCORE.INTRA.VDW.0>
0

>  <SCORE.INTRA.norm>
0

>  <SCORE.RESTR>
0

>  <SCORE.RESTR.CAVITY>
0

>  <SCORE.RESTR.norm>
0

>  <SCORE.SYSTEM>
0

>  <SCORE.SYSTEM.CONST>
0

>  <SCORE.SYSTEM.DIHEDRAL>
0

>  <SCORE.SYSTEM.SOLV>
0

>  <SCORE.SYSTEM.norm>
0

>  <SCORE.heavy>
10

>  <SCORE.norm>
-2.14673

>  <RMSD>
2.549

$$$$
ligand
 OpenBabel11021811503D
libRbt.so/2013.1/901 2013/11/27
 10 11  0  0  0  0  0  0  0  0999 V2000
   18.8198   -4.4088    2.5950 N   0  0  0  0  0  0  0  0  0  0  0  0
   19.6535   -3.5853    1.9876 C   0  0  0  0  0  0  0  0  0  0  0  0
   19.3859   -2.2122    1.9966 N   0  0  0  0  0  0  0  0  0  0  0  0
   18.2845   -1.7504    2.6047 C   0  0  0  0  0  0  0  0  0  0  0  0
   17.4444   -2.5864    3.2103 C   0  0  0  0  0  0  0  0  0  0  0  0
   17.6854   -3.8951    3.2328 C   0  0  0  0  0  0  0  0  0  0  0  0
   16.9227   -4.6630    3.8169 O   0  0  0  0  0  0  0  0  0  0  0  0
   16.4137   -1.8737    3.6565 N   0  0  0  0  0  0  0  0  0  0  0  0
   16.6164   -0.6002    3.3336 C   0  0  0  0  0  0  0  0  0  0  0  0
   17.7779   -0.5247    2.6900 N   0  0  0  0  0  0  0  0  0  0  0  0
  1  2  1  0  0  0  0
  1  6  1  0  0  0  0
  2  3  2  0  0  0  0
  3  4  1  0  0  0  0
  4  5  2  0  0  0  0
  4 10  1  0  0  0  0
  5  6  1  0  0  0  0
  5  8  1  0  0  0  0
  6  7  2  0  0  0  0
  8  9  1  0  0  0  0
  9 10  2  0  0  0  0
M  END
>  <CHROM.1>
17.88292611,-2.65051829,2.92896602,-1.14594327,0.52894767,-0.14556987

>  <Name>
ligand

>  <RI>
0

>  <Rbt.Current_Directory>
/home/itssahil/PROJECTS/Mol_Feturizer/New_Systems/rnas/4NYD

>  <Rbt.Executable>
rbdock ($Id: //depot/dev/client3/rdock/2013.1/src/exe/rbdock.cxx#4 $)

>  <Rbt.Library>
libRbt.so (2013.1, Build901 2013/11/27)

>  <Rbt.Parameter_File>
/export/apps/rDock/src/rDock_2013.1_src/data/scripts/dock_solv.prm

>  <Rbt.Receptor>
prm/blind_docking_100.prm

>  <SCORE>
-21.4681

>  <SCORE.INTER>
-21.4681

>  <SCORE.INTER.CONST>
1

>  <SCORE.INTER.POLAR>
0

>  <SCORE.INTER.ROT>
0

>  <SCORE.INTER.SOLV>
4.39475

>  <SCORE.INTER.VDW>
-19.377

>  <SCORE.INTER.norm>
-2.14681

>  <SCORE.INTRA>
0

>  <SCORE.INTRA.DIHEDRAL>
0

>  <SCORE.INTRA.DIHEDRAL.0>
0

>  <SCORE.INTRA.POLAR>
0

>  <SCORE.INTRA.POLAR.0>
0

>  <SCORE.INTRA.REPUL>
0

>  <SCORE.INTRA.REPUL.0>
0

>  <SCORE.INTRA.SOLV>
0

>  <SCORE.INTRA.SOLV.lig_0>
-4.1818

>  <SCORE.INTRA.VDW>
0

>  <SCORE.INTRA.VDW.0>
0

>  <SCORE.INTRA.norm>
0

>  <SCORE.RESTR>
0

>  <SCORE.RESTR.CAVITY>
0

>  <SCORE.RESTR.norm>
0

>  <SCORE.SYSTEM>
0

>  <SCORE.SYSTEM.CONST>
0

>  <SCORE.SYSTEM.DIHEDRAL>
0

>  <SCORE.SYSTEM.SOLV>
0

>  <SCORE.SYSTEM.norm>
0

>  <SCORE.heavy>
10

>  <SCORE.norm>
-2.14681

>  <RMSD>
2.582

$$$$
ligand
 OpenBabel11021811503D
libRbt.so/2013.1/901 2013/11/27
 10 11  0  0  0  0  0  0  0  0999 V2000
   18.1237   -5.4530    3.0719 N   0  0  0  0  0  0  0  0  0  0  0  0
   19.2766   -5.3532    2.4370 C   0  0  0  0  0  0  0  0  0  0  0  0
   19.7495   -4.0877    2.0737 N   0  0  0  0  0  0  0  0  0  0  0  0
   19.0247   -2.9969    2.3582 C   0  0  0  0  0  0  0  0  0  0  0  0
   17.8600   -3.1044    2.9932 C   0  0  0  0  0  0  0  0  0  0  0  0
   17.3964   -4.2947    3.3668 C   0  0  0  0  0  0  0  0  0  0  0  0
   16.3335   -4.3898    3.9782 O   0  0  0  0  0  0  0  0  0  0  0  0
   17.3284   -1.8879    3.0752 N   0  0  0  0  0  0  0  0  0  0  0  0
   18.1627   -1.0286    2.4982 C   0  0  0  0  0  0  0  0  0  0  0  0
   19.2150   -1.7153    2.0622 N   0  0  0  0  0  0  0  0  0  0  0  0
  1  2  1  0  0  0  0
  1  6  1  0  0  0  0
  2  3  2  0  0  0  0
  3  4  1  0  0  0  0
  4  5  2  0  0  0  0
  4 10  1  0  0  0  0
  5  6  1  0  0  0  0
  5  8  1  0  0  0  0
  6  7  2  0  0  0  0
  8  9  1  0  0  0  0
  9 10  2  0  0  0  0
M  END
>  <CHROM.1>
18.21084414,-3.45133234,2.81394493,-1.76469629,0.49571961,-0.12320954

>  <Name>
ligand

>  <RI>
0

>  <Rbt.Current_Directory>
/home/itssahil/PROJECTS/Mol_Feturizer/New_Systems/rnas/4NYD

>  <Rbt.Executable>
rbdock ($Id: //depot/dev/client3/rdock/2013.1/src/exe/rbdock.cxx#4 $)

>  <Rbt.Library>
libRbt.so (2013.1, Build901 2013/11/27)

>  <Rbt.Parameter_File>
/export/apps/rDock/src/rDock_2013.1_src/data/scripts/dock_solv.prm

>  <Rbt.Receptor>
prm/blind_docking_40.prm

>  <SCORE>
-21.4322

>  <SCORE.INTER>
-21.4322

>  <SCORE.INTER.CONST>
1

>  <SCORE.INTER.POLAR>
0

>  <SCORE.INTER.ROT>
0

>  <SCORE.INTER.SOLV>
4.53721

>  <SCORE.INTER.VDW>
-19.4005

>  <SCORE.INTER.norm>
-2.14322

>  <SCORE.INTRA>
0

>  <SCORE.INTRA.DIHEDRAL>
0

>  <SCORE.INTRA.DIHEDRAL.0>
0

>  <SCORE.INTRA.POLAR>
0

>  <SCORE.INTRA.POLAR.0>
0

>  <SCORE.INTRA.REPUL>
0

>  <SCORE.INTRA.REPUL.0>
0

>  <SCORE.INTRA.SOLV>
0

>  <SCORE.INTRA.SOLV.lig_0>
-4.1818

>  <SCORE.INTRA.VDW>
0

>  <SCORE.INTRA.VDW.0>
0

>  <SCORE.INTRA.norm>
0

>  <SCORE.RESTR>
0

>  <SCORE.RESTR.CAVITY>
0

>  <SCORE.RESTR.norm>
0

>  <SCORE.SYSTEM>
0

>  <SCORE.SYSTEM.CONST>
0

>  <SCORE.SYSTEM.DIHEDRAL>
0

>  <SCORE.SYSTEM.SOLV>
0

>  <SCORE.SYSTEM.norm>
0

>  <SCORE.heavy>
10

>  <SCORE.norm>
-2.14322

>  <RMSD>
2.592

$$$$
ligand
 OpenBabel11021811503D
libRbt.so/2013.1/901 2013/11/27
 10 11  0  0  0  0  0  0  0  0999 V2000
   18.7334   -4.5526    2.7300 N   0  0  0  0  0  0  0  0  0  0  0  0
   19.5548   -3.7645    2.0617 C   0  0  0  0  0  0  0  0  0  0  0  0
   19.2882   -2.3925    2.0020 N   0  0  0  0  0  0  0  0  0  0  0  0
   18.2000   -1.8967    2.6071 C   0  0  0  0  0  0  0  0  0  0  0  0
   17.3722   -2.6973    3.2744 C   0  0  0  0  0  0  0  0  0  0  0  0
   17.6129   -4.0033    3.3626 C   0  0  0  0  0  0  0  0  0  0  0  0
   16.8621   -4.7372    4.0030 O   0  0  0  0  0  0  0  0  0  0  0  0
   16.3514   -1.9598    3.7027 N   0  0  0  0  0  0  0  0  0  0  0  0
   16.5481   -0.7060    3.3073 C   0  0  0  0  0  0  0  0  0  0  0  0
   17.6959   -0.6673    2.6365 N   0  0  0  0  0  0  0  0  0  0  0  0
  1  2  1  0  0  0  0
  1  6  1  0  0  0  0
  2  3  2  0  0  0  0
  3  4  1  0  0  0  0
  4  5  2  0  0  0  0
  4 10  1  0  0  0  0
  5  6  1  0  0  0  0
  5  8  1  0  0  0  0
  6  7  2  0  0  0  0
  8  9  1  0  0  0  0
  9 10  2  0  0  0  0
M  END
>  <CHROM.1>
17.80472768,-2.77726171,2.98781857,-1.14303151,0.54965434,-0.20113833

>  <Name>
ligand

>  <RI>
0

>  <Rbt.Current_Directory>
/home/itssahil/PROJECTS/Mol_Feturizer/New_Systems/rnas/4NYD

>  <Rbt.Executable>
rbdock ($Id: //depot/dev/client3/rdock/2013.1/src/exe/rbdock.cxx#4 $)

>  <Rbt.Library>
libRbt.so (2013.1, Build901 2013/11/27)

>  <Rbt.Parameter_File>
/export/apps/rDock/src/rDock_2013.1_src/data/scripts/dock_solv.prm

>  <Rbt.Receptor>
prm/blind_docking_80.prm

>  <SCORE>
-21.5227

>  <SCORE.INTER>
-21.5227

>  <SCORE.INTER.CONST>
1

>  <SCORE.INTER.POLAR>
0

>  <SCORE.INTER.ROT>
0

>  <SCORE.INTER.SOLV>
4.38473

>  <SCORE.INTER.VDW>
-19.41

>  <SCORE.INTER.norm>
-2.15227

>  <SCORE.INTRA>
0

>  <SCORE.INTRA.DIHEDRAL>
0

>  <SCORE.INTRA.DIHEDRAL.0>
0

>  <SCORE.INTRA.POLAR>
0

>  <SCORE.INTRA.POLAR.0>
0

>  <SCORE.INTRA.REPUL>
0

>  <SCORE.INTRA.REPUL.0>
0

>  <SCORE.INTRA.SOLV>
0

>  <SCORE.INTRA.SOLV.lig_0>
-4.1818

>  <SCORE.INTRA.VDW>
0

>  <SCORE.INTRA.VDW.0>
0

>  <SCORE.INTRA.norm>
0

>  <SCORE.RESTR>
0

>  <SCORE.RESTR.CAVITY>
0

>  <SCORE.RESTR.norm>
0

>  <SCORE.SYSTEM>
0

>  <SCORE.SYSTEM.CONST>
0

>  <SCORE.SYSTEM.DIHEDRAL>
0

>  <SCORE.SYSTEM.SOLV>
0

>  <SCORE.SYSTEM.norm>
0

>  <SCORE.heavy>
10

>  <SCORE.norm>
-2.15227

>  <RMSD>
2.604

$$$$
ligand
 OpenBabel11021811503D
libRbt.so/2013.1/901 2013/11/27
 10 11  0  0  0  0  0  0  0  0999 V2000
   18.5382   -4.6089    2.7765 N   0  0  0  0  0  0  0  0  0  0  0  0
   19.4509   -3.9239    2.1132 C   0  0  0  0  0  0  0  0  0  0  0  0
   19.3404   -2.5313    2.0391 N   0  0  0  0  0  0  0  0  0  0  0  0
   18.3071   -1.9112    2.6255 C   0  0  0  0  0  0  0  0  0  0  0  0
   17.3866   -2.6079    3.2878 C   0  0  0  0  0  0  0  0  0  0  0  0
   17.4784   -3.9318    3.3896 C   0  0  0  0  0  0  0  0  0  0  0  0
   16.6422   -4.5711    4.0256 O   0  0  0  0  0  0  0  0  0  0  0  0
   16.4495   -1.7570    3.6965 N   0  0  0  0  0  0  0  0  0  0  0  0
   16.7902   -0.5367    3.2940 C   0  0  0  0  0  0  0  0  0  0  0  0
   17.9435   -0.6330    2.6384 N   0  0  0  0  0  0  0  0  0  0  0  0
  1  2  1  0  0  0  0
  1  6  1  0  0  0  0
  2  3  2  0  0  0  0
  3  4  1  0  0  0  0
  4  5  2  0  0  0  0
  4 10  1  0  0  0  0
  5  6  1  0  0  0  0
  5  8  1  0  0  0  0
  6  7  2  0  0  0  0
  8  9  1  0  0  0  0
  9 10  2  0  0  0  0
M  END
>  <CHROM.1>
17.81097329,-2.73848387,3.00779170,-1.27552415,0.55586429,-0.14014153

>  <Name>
ligand

>  <RI>
0

>  <Rbt.Current_Directory>
/home/itssahil/PROJECTS/Mol_Feturizer/New_Systems/rnas/4NYD

>  <Rbt.Executable>
rbdock ($Id: //depot/dev/client3/rdock/2013.1/src/exe/rbdock.cxx#4 $)

>  <Rbt.Library>
libRbt.so (2013.1, Build901 2013/11/27)

>  <Rbt.Parameter_File>
/export/apps/rDock/src/rDock_2013.1_src/data/scripts/dock_solv.prm

>  <Rbt.Receptor>
prm/blind_docking_100.prm

>  <SCORE>
-21.529

>  <SCORE.INTER>
-21.529

>  <SCORE.INTER.CONST>
1

>  <SCORE.INTER.POLAR>
0

>  <SCORE.INTER.ROT>
0

>  <SCORE.INTER.SOLV>
4.47669

>  <SCORE.INTER.VDW>
-19.4449

>  <SCORE.INTER.norm>
-2.1529

>  <SCORE.INTRA>
0

>  <SCORE.INTRA.DIHEDRAL>
0

>  <SCORE.INTRA.DIHEDRAL.0>
0

>  <SCORE.INTRA.POLAR>
0

>  <SCORE.INTRA.POLAR.0>
0

>  <SCORE.INTRA.REPUL>
0

>  <SCORE.INTRA.REPUL.0>
0

>  <SCORE.INTRA.SOLV>
0

>  <SCORE.INTRA.SOLV.lig_0>
-4.1818

>  <SCORE.INTRA.VDW>
0

>  <SCORE.INTRA.VDW.0>
0

>  <SCORE.INTRA.norm>
0

>  <SCORE.RESTR>
0

>  <SCORE.RESTR.CAVITY>
0

>  <SCORE.RESTR.norm>
0

>  <SCORE.SYSTEM>
0

>  <SCORE.SYSTEM.CONST>
0

>  <SCORE.SYSTEM.DIHEDRAL>
0

>  <SCORE.SYSTEM.SOLV>
0

>  <SCORE.SYSTEM.norm>
0

>  <SCORE.heavy>
10

>  <SCORE.norm>
-2.1529

>  <RMSD>
2.625

$$$$
ligand
 OpenBabel11021811503D
libRbt.so/2013.1/901 2013/11/27
 10 11  0  0  0  0  0  0  0  0999 V2000
   20.5336   -4.8178    1.6051 N   0  0  0  0  0  0  0  0  0  0  0  0
   20.5778   -3.5025    1.5035 C   0  0  0  0  0  0  0  0  0  0  0  0
   19.5754   -2.7362    2.1078 N   0  0  0  0  0  0  0  0  0  0  0  0
   18.5777   -3.3417    2.7666 C   0  0  0  0  0  0  0  0  0  0  0  0
   18.5353   -4.6686    2.8604 C   0  0  0  0  0  0  0  0  0  0  0  0
   19.4865   -5.4200    2.3111 C   0  0  0  0  0  0  0  0  0  0  0  0
   19.4607   -6.6446    2.4226 O   0  0  0  0  0  0  0  0  0  0  0  0
   17.4122   -4.9952    3.4940 N   0  0  0  0  0  0  0  0  0  0  0  0
   16.7634   -3.8750    3.7966 C   0  0  0  0  0  0  0  0  0  0  0  0
   17.4897   -2.8530    3.3528 N   0  0  0  0  0  0  0  0  0  0  0  0
  1  2  1  0  0  0  0
  1  6  1  0  0  0  0
  2  3  2  0  0  0  0
  3  4  1  0  0  0  0
  4  5  2  0  0  0  0
  4 10  1  0  0  0  0
  5  6  1  0  0  0  0
  5  8  1  0  0  0  0
  6  7  2  0  0  0  0
  8  9  1  0  0  0  0
  9 10  2  0  0  0  0
M  END
>  <CHROM.1>
18.85458679,-4.33042062,2.61710678,-0.36522432,0.53802510,-0.06144487

>  <Name>
ligand

>  <RI>
0

>  <Rbt.Current_Directory>
/home/itssahil/PROJECTS/Mol_Feturizer/New_Systems/rnas/4NYD

>  <Rbt.Executable>
rbdock ($Id: //depot/dev/client3/rdock/2013.1/src/exe/rbdock.cxx#4 $)

>  <Rbt.Library>
libRbt.so (2013.1, Build901 2013/11/27)

>  <Rbt.Parameter_File>
/export/apps/rDock/src/rDock_2013.1_src/data/scripts/dock_solv.prm

>  <Rbt.Receptor>
prm/blind_docking_100.prm

>  <SCORE>
-20.7658

>  <SCORE.INTER>
-20.7658

>  <SCORE.INTER.CONST>
1

>  <SCORE.INTER.POLAR>
0

>  <SCORE.INTER.ROT>
0

>  <SCORE.INTER.SOLV>
3.62124

>  <SCORE.INTER.VDW>
-18.6509

>  <SCORE.INTER.norm>
-2.07658

>  <SCORE.INTRA>
0

>  <SCORE.INTRA.DIHEDRAL>
0

>  <SCORE.INTRA.DIHEDRAL.0>
0

>  <SCORE.INTRA.POLAR>
0

>  <SCORE.INTRA.POLAR.0>
0

>  <SCORE.INTRA.REPUL>
0

>  <SCORE.INTRA.REPUL.0>
0

>  <SCORE.INTRA.SOLV>
0

>  <SCORE.INTRA.SOLV.lig_0>
-4.1818

>  <SCORE.INTRA.VDW>
0

>  <SCORE.INTRA.VDW.0>
0

>  <SCORE.INTRA.norm>
0

>  <SCORE.RESTR>
0

>  <SCORE.RESTR.CAVITY>
0

>  <SCORE.RESTR.norm>
0

>  <SCORE.SYSTEM>
0

>  <SCORE.SYSTEM.CONST>
0

>  <SCORE.SYSTEM.DIHEDRAL>
0

>  <SCORE.SYSTEM.SOLV>
0

>  <SCORE.SYSTEM.norm>
0

>  <SCORE.heavy>
10

>  <SCORE.norm>
-2.07658

>  <RMSD>
2.641

$$$$
ligand
 OpenBabel11021811503D
libRbt.so/2013.1/901 2013/11/27
 10 11  0  0  0  0  0  0  0  0999 V2000
   18.4059   -4.6030    2.7692 N   0  0  0  0  0  0  0  0  0  0  0  0
   19.3819   -3.9650    2.1506 C   0  0  0  0  0  0  0  0  0  0  0  0
   19.3514   -2.5680    2.0849 N   0  0  0  0  0  0  0  0  0  0  0  0
   18.3300   -1.8957    2.6336 C   0  0  0  0  0  0  0  0  0  0  0  0
   17.3457   -2.5450    3.2507 C   0  0  0  0  0  0  0  0  0  0  0  0
   17.3602   -3.8725    3.3440 C   0  0  0  0  0  0  0  0  0  0  0  0
   16.4641   -4.4690    3.9389 O   0  0  0  0  0  0  0  0  0  0  0  0
   16.4405   -1.6463    3.6280 N   0  0  0  0  0  0  0  0  0  0  0  0
   16.8644   -0.4440    3.2512 C   0  0  0  0  0  0  0  0  0  0  0  0
   18.0371   -0.5994    2.6432 N   0  0  0  0  0  0  0  0  0  0  0  0
  1  2  1  0  0  0  0
  1  6  1  0  0  0  0
  2  3  2  0  0  0  0
  3  4  1  0  0  0  0
  4  5  2  0  0  0  0
  4 10  1  0  0  0  0
  5  6  1  0  0  0  0
  5  8  1  0  0  0  0
  6  7  2  0  0  0  0
  8  9  1  0  0  0  0
  9 10  2  0  0  0  0
M  END
>  <CHROM.1>
17.77359031,-2.69687508,2.98735947,-1.34511882,0.52093567,-0.09637688

>  <Name>
ligand

>  <RI>
0

>  <Rbt.Current_Directory>
/home/itssahil/PROJECTS/Mol_Feturizer/New_Systems/rnas/4NYD

>  <Rbt.Executable>
rbdock ($Id: //depot/dev/client3/rdock/2013.1/src/exe/rbdock.cxx#4 $)

>  <Rbt.Library>
libRbt.so (2013.1, Build901 2013/11/27)

>  <Rbt.Parameter_File>
/export/apps/rDock/src/rDock_2013.1_src/data/scripts/dock_solv.prm

>  <Rbt.Receptor>
prm/blind_docking_60.prm

>  <SCORE>
-21.4581

>  <SCORE.INTER>
-21.4581

>  <SCORE.INTER.CONST>
1

>  <SCORE.INTER.POLAR>
0

>  <SCORE.INTER.ROT>
0

>  <SCORE.INTER.SOLV>
4.50285

>  <SCORE.INTER.VDW>
-19.4064

>  <SCORE.INTER.norm>
-2.14581

>  <SCORE.INTRA>
0

>  <SCORE.INTRA.DIHEDRAL>
0

>  <SCORE.INTRA.DIHEDRAL.0>
0

>  <SCORE.INTRA.POLAR>
0

>  <SCORE.INTRA.POLAR.0>
0

>  <SCORE.INTRA.REPUL>
0

>  <SCORE.INTRA.REPUL.0>
0

>  <SCORE.INTRA.SOLV>
0

>  <SCORE.INTRA.SOLV.lig_0>
-4.1818

>  <SCORE.INTRA.VDW>
0

>  <SCORE.INTRA.VDW.0>
0

>  <SCORE.INTRA.norm>
0

>  <SCORE.RESTR>
0

>  <SCORE.RESTR.CAVITY>
0

>  <SCORE.RESTR.norm>
0

>  <SCORE.SYSTEM>
0

>  <SCORE.SYSTEM.CONST>
0

>  <SCORE.SYSTEM.DIHEDRAL>
0

>  <SCORE.SYSTEM.SOLV>
0

>  <SCORE.SYSTEM.norm>
0

>  <SCORE.heavy>
10

>  <SCORE.norm>
-2.14581

>  <RMSD>
2.655

$$$$
ligand
 OpenBabel11021811503D
libRbt.so/2013.1/901 2013/11/27
 10 11  0  0  0  0  0  0  0  0999 V2000
   18.5038   -4.4905    2.7498 N   0  0  0  0  0  0  0  0  0  0  0  0
   19.4196   -3.7867    2.1108 C   0  0  0  0  0  0  0  0  0  0  0  0
   19.2942   -2.3947    2.0523 N   0  0  0  0  0  0  0  0  0  0  0  0
   18.2439   -1.7940    2.6286 C   0  0  0  0  0  0  0  0  0  0  0  0
   17.3205   -2.5095    3.2663 C   0  0  0  0  0  0  0  0  0  0  0  0
   17.4260   -3.8334    3.3530 C   0  0  0  0  0  0  0  0  0  0  0  0
   16.5866   -4.4903    3.9666 O   0  0  0  0  0  0  0  0  0  0  0  0
   16.3667   -1.6745    3.6694 N   0  0  0  0  0  0  0  0  0  0  0  0
   16.7000   -0.4455    3.2881 C   0  0  0  0  0  0  0  0  0  0  0  0
   17.8652   -0.5202    2.6512 N   0  0  0  0  0  0  0  0  0  0  0  0
  1  2  1  0  0  0  0
  1  6  1  0  0  0  0
  2  3  2  0  0  0  0
  3  4  1  0  0  0  0
  4  5  2  0  0  0  0
  4 10  1  0  0  0  0
  5  6  1  0  0  0  0
  5  8  1  0  0  0  0
  6  7  2  0  0  0  0
  8  9  1  0  0  0  0
  9 10  2  0  0  0  0
M  END
>  <CHROM.1>
17.75103072,-2.63160784,2.99192655,-1.26484872,0.53739565,-0.13308879

>  <Name>
ligand

>  <RI>
0

>  <Rbt.Current_Directory>
/home/itssahil/PROJECTS/Mol_Feturizer/New_Systems/rnas/4NYD

>  <Rbt.Executable>
rbdock ($Id: //depot/dev/client3/rdock/2013.1/src/exe/rbdock.cxx#4 $)

>  <Rbt.Library>
libRbt.so (2013.1, Build901 2013/11/27)

>  <Rbt.Parameter_File>
/export/apps/rDock/src/rDock_2013.1_src/data/scripts/dock_solv.prm

>  <Rbt.Receptor>
prm/blind_docking_100.prm

>  <SCORE>
-21.5438

>  <SCORE.INTER>
-21.5438

>  <SCORE.INTER.CONST>
1

>  <SCORE.INTER.POLAR>
0

>  <SCORE.INTER.ROT>
0

>  <SCORE.INTER.SOLV>
4.45885

>  <SCORE.INTER.VDW>
-19.4488

>  <SCORE.INTER.norm>
-2.15438

>  <SCORE.INTRA>
0

>  <SCORE.INTRA.DIHEDRAL>
0

>  <SCORE.INTRA.DIHEDRAL.0>
0

>  <SCORE.INTRA.POLAR>
0

>  <SCORE.INTRA.POLAR.0>
0

>  <SCORE.INTRA.REPUL>
0

>  <SCORE.INTRA.REPUL.0>
0

>  <SCORE.INTRA.SOLV>
0

>  <SCORE.INTRA.SOLV.lig_0>
-4.1818

>  <SCORE.INTRA.VDW>
0

>  <SCORE.INTRA.VDW.0>
0

>  <SCORE.INTRA.norm>
0

>  <SCORE.RESTR>
0

>  <SCORE.RESTR.CAVITY>
0

>  <SCORE.RESTR.norm>
0

>  <SCORE.SYSTEM>
0

>  <SCORE.SYSTEM.CONST>
0

>  <SCORE.SYSTEM.DIHEDRAL>
0

>  <SCORE.SYSTEM.SOLV>
0

>  <SCORE.SYSTEM.norm>
0

>  <SCORE.heavy>
10

>  <SCORE.norm>
-2.15438

>  <RMSD>
2.663

$$$$
ligand
 OpenBabel11021811503D
libRbt.so/2013.1/901 2013/11/27
 10 11  0  0  0  0  0  0  0  0999 V2000
   17.4781   -1.6667    3.2306 N   0  0  0  0  0  0  0  0  0  0  0  0
   16.5240   -2.3657    3.8165 C   0  0  0  0  0  0  0  0  0  0  0  0
   16.6146   -3.7615    3.8386 N   0  0  0  0  0  0  0  0  0  0  0  0
   17.6548   -4.3725    3.2549 C   0  0  0  0  0  0  0  0  0  0  0  0
   18.6107   -3.6625    2.6603 C   0  0  0  0  0  0  0  0  0  0  0  0
   18.5584   -2.3328    2.6417 C   0  0  0  0  0  0  0  0  0  0  0  0
   19.4567   -1.6774    2.1162 O   0  0  0  0  0  0  0  0  0  0  0  0
   19.4669   -4.5173    2.1073 N   0  0  0  0  0  0  0  0  0  0  0  0
   19.0466   -5.7523    2.3626 C   0  0  0  0  0  0  0  0  0  0  0  0
   17.9299   -5.6609    3.0792 N   0  0  0  0  0  0  0  0  0  0  0  0
  1  2  1  0  0  0  0
  1  6  1  0  0  0  0
  2  3  2  0  0  0  0
  3  4  1  0  0  0  0
  4  5  2  0  0  0  0
  4 10  1  0  0  0  0
  5  6  1  0  0  0  0
  5  8  1  0  0  0  0
  6  7  2  0  0  0  0
  8  9  1  0  0  0  0
  9 10  2  0  0  0  0
M  END
>  <CHROM.1>
18.15821111,-3.53920597,2.89605916,1.80941158,0.53698575,-0.01728980

>  <Name>
ligand

>  <RI>
0

>  <Rbt.Current_Directory>
/home/itssahil/PROJECTS/Mol_Feturizer/New_Systems/rnas/4NYD

>  <Rbt.Executable>
rbdock ($Id: //depot/dev/client3/rdock/2013.1/src/exe/rbdock.cxx#4 $)

>  <Rbt.Library>
libRbt.so (2013.1, Build901 2013/11/27)

>  <Rbt.Parameter_File>
/export/apps/rDock/src/rDock_2013.1_src/data/scripts/dock_solv.prm

>  <Rbt.Receptor>
prm/pocket_docking_5.prm

>  <SCORE>
-23.4353

>  <SCORE.INTER>
-23.4353

>  <SCORE.INTER.CONST>
1

>  <SCORE.INTER.POLAR>
0

>  <SCORE.INTER.ROT>
0

>  <SCORE.INTER.SOLV>
3.40608

>  <SCORE.INTER.VDW>
-20.3589

>  <SCORE.INTER.norm>
-2.34353

>  <SCORE.INTRA>
0

>  <SCORE.INTRA.DIHEDRAL>
0

>  <SCORE.INTRA.DIHEDRAL.0>
0

>  <SCORE.INTRA.POLAR>
0

>  <SCORE.INTRA.POLAR.0>
0

>  <SCORE.INTRA.REPUL>
0

>  <SCORE.INTRA.REPUL.0>
0

>  <SCORE.INTRA.SOLV>
0

>  <SCORE.INTRA.SOLV.lig_0>
-4.1818

>  <SCORE.INTRA.VDW>
0

>  <SCORE.INTRA.VDW.0>
0

>  <SCORE.INTRA.norm>
0

>  <SCORE.RESTR>
0

>  <SCORE.RESTR.CAVITY>
0

>  <SCORE.RESTR.norm>
0

>  <SCORE.SYSTEM>
0

>  <SCORE.SYSTEM.CONST>
0

>  <SCORE.SYSTEM.DIHEDRAL>
0

>  <SCORE.SYSTEM.SOLV>
0

>  <SCORE.SYSTEM.norm>
0

>  <SCORE.heavy>
10

>  <SCORE.norm>
-2.34353

>  <RMSD>
3.083

$$$$
ligand
 OpenBabel11021811503D
libRbt.so/2013.1/901 2013/11/27
 10 11  0  0  0  0  0  0  0  0999 V2000
   17.4248   -1.7429    3.3135 N   0  0  0  0  0  0  0  0  0  0  0  0
   16.5118   -2.5009    3.8916 C   0  0  0  0  0  0  0  0  0  0  0  0
   16.6625   -3.8914    3.8672 N   0  0  0  0  0  0  0  0  0  0  0  0
   17.7177   -4.4380    3.2475 C   0  0  0  0  0  0  0  0  0  0  0  0
   18.6319   -3.6687    2.6611 C   0  0  0  0  0  0  0  0  0  0  0  0
   18.5223   -2.3426    2.6863 C   0  0  0  0  0  0  0  0  0  0  0  0
   19.3825   -1.6325    2.1682 O   0  0  0  0  0  0  0  0  0  0  0  0
   19.5143   -4.4675    2.0673 N   0  0  0  0  0  0  0  0  0  0  0  0
   19.1519   -5.7271    2.2892 C   0  0  0  0  0  0  0  0  0  0  0  0
   18.0447   -5.7069    3.0260 N   0  0  0  0  0  0  0  0  0  0  0  0
  1  2  1  0  0  0  0
  1  6  1  0  0  0  0
  2  3  2  0  0  0  0
  3  4  1  0  0  0  0
  4  5  2  0  0  0  0
  4 10  1  0  0  0  0
  5  6  1  0  0  0  0
  5  8  1  0  0  0  0
  6  7  2  0  0  0  0
  8  9  1  0  0  0  0
  9 10  2  0  0  0  0
M  END
>  <CHROM.1>
18.17867707,-3.57264156,2.90789025,1.86016502,0.55291438,-0.01160373

>  <Name>
ligand

>  <RI>
0

>  <Rbt.Current_Directory>
/home/itssahil/PROJECTS/Mol_Feturizer/New_Systems/rnas/4NYD

>  <Rbt.Executable>
rbdock ($Id: //depot/dev/client3/rdock/2013.1/src/exe/rbdock.cxx#4 $)

>  <Rbt.Library>
libRbt.so (2013.1, Build901 2013/11/27)

>  <Rbt.Parameter_File>
/export/apps/rDock/src/rDock_2013.1_src/data/scripts/dock_solv.prm

>  <Rbt.Receptor>
prm/blind_docking_40.prm

>  <SCORE>
-23.4084

>  <SCORE.INTER>
-23.4084

>  <SCORE.INTER.CONST>
1

>  <SCORE.INTER.POLAR>
0

>  <SCORE.INTER.ROT>
0

>  <SCORE.INTER.SOLV>
3.45595

>  <SCORE.INTER.VDW>
-20.3576

>  <SCORE.INTER.norm>
-2.34084

>  <SCORE.INTRA>
0

>  <SCORE.INTRA.DIHEDRAL>
0

>  <SCORE.INTRA.DIHEDRAL.0>
0

>  <SCORE.INTRA.POLAR>
0

>  <SCORE.INTRA.POLAR.0>
0

>  <SCORE.INTRA.REPUL>
0

>  <SCORE.INTRA.REPUL.0>
0

>  <SCORE.INTRA.SOLV>
0

>  <SCORE.INTRA.SOLV.lig_0>
-4.1818

>  <SCORE.INTRA.VDW>
0

>  <SCORE.INTRA.VDW.0>
0

>  <SCORE.INTRA.norm>
0

>  <SCORE.RESTR>
0

>  <SCORE.RESTR.CAVITY>
0

>  <SCORE.RESTR.norm>
0

>  <SCORE.SYSTEM>
0

>  <SCORE.SYSTEM.CONST>
0

>  <SCORE.SYSTEM.DIHEDRAL>
0

>  <SCORE.SYSTEM.SOLV>
0

>  <SCORE.SYSTEM.norm>
0

>  <SCORE.heavy>
10

>  <SCORE.norm>
-2.34084

>  <RMSD>
3.092

$$$$
ligand
 OpenBabel11021811503D
libRbt.so/2013.1/901 2013/11/27
 10 11  0  0  0  0  0  0  0  0999 V2000
   17.4170   -1.7144    3.2871 N   0  0  0  0  0  0  0  0  0  0  0  0
   16.4817   -2.4560    3.8506 C   0  0  0  0  0  0  0  0  0  0  0  0
   16.6134   -3.8486    3.8377 N   0  0  0  0  0  0  0  0  0  0  0  0
   17.6734   -4.4137    3.2434 C   0  0  0  0  0  0  0  0  0  0  0  0
   18.6103   -3.6609    2.6715 C   0  0  0  0  0  0  0  0  0  0  0  0
   18.5187   -2.3332    2.6865 C   0  0  0  0  0  0  0  0  0  0  0  0
   19.3994   -1.6384    2.1820 O   0  0  0  0  0  0  0  0  0  0  0  0
   19.4935   -4.4756    2.1010 N   0  0  0  0  0  0  0  0  0  0  0  0
   19.1089   -5.7286    2.3229 C   0  0  0  0  0  0  0  0  0  0  0  0
   17.9872   -5.6884    3.0364 N   0  0  0  0  0  0  0  0  0  0  0  0
  1  2  1  0  0  0  0
  1  6  1  0  0  0  0
  2  3  2  0  0  0  0
  3  4  1  0  0  0  0
  4  5  2  0  0  0  0
  4 10  1  0  0  0  0
  5  6  1  0  0  0  0
  5  8  1  0  0  0  0
  6  7  2  0  0  0  0
  8  9  1  0  0  0  0
  9 10  2  0  0  0  0
M  END
>  <CHROM.1>
18.15340358,-3.55698088,2.90824823,1.84361917,0.53230666,-0.00923206

>  <Name>
ligand

>  <RI>
0

>  <Rbt.Current_Directory>
/home/itssahil/PROJECTS/Mol_Feturizer/New_Systems/rnas/4NYD

>  <Rbt.Executable>
rbdock ($Id: //depot/dev/client3/rdock/2013.1/src/exe/rbdock.cxx#4 $)

>  <Rbt.Library>
libRbt.so (2013.1, Build901 2013/11/27)

>  <Rbt.Parameter_File>
/export/apps/rDock/src/rDock_2013.1_src/data/scripts/dock_solv.prm

>  <Rbt.Receptor>
prm/blind_docking_100.prm

>  <SCORE>
-23.4117

>  <SCORE.INTER>
-23.4117

>  <SCORE.INTER.CONST>
1

>  <SCORE.INTER.POLAR>
0

>  <SCORE.INTER.ROT>
0

>  <SCORE.INTER.SOLV>
3.4491

>  <SCORE.INTER.VDW>
-20.3575

>  <SCORE.INTER.norm>
-2.34117

>  <SCORE.INTRA>
0

>  <SCORE.INTRA.DIHEDRAL>
0

>  <SCORE.INTRA.DIHEDRAL.0>
0

>  <SCORE.INTRA.POLAR>
0

>  <SCORE.INTRA.POLAR.0>
0

>  <SCORE.INTRA.REPUL>
0

>  <SCORE.INTRA.REPUL.0>
0

>  <SCORE.INTRA.SOLV>
0

>  <SCORE.INTRA.SOLV.lig_0>
-4.1818

>  <SCORE.INTRA.VDW>
0

>  <SCORE.INTRA.VDW.0>
0

>  <SCORE.INTRA.norm>
0

>  <SCORE.RESTR>
0

>  <SCORE.RESTR.CAVITY>
0

>  <SCORE.RESTR.norm>
0

>  <SCORE.SYSTEM>
0

>  <SCORE.SYSTEM.CONST>
0

>  <SCORE.SYSTEM.DIHEDRAL>
0

>  <SCORE.SYSTEM.SOLV>
0

>  <SCORE.SYSTEM.norm>
0

>  <SCORE.heavy>
10

>  <SCORE.norm>
-2.34117

>  <RMSD>
3.093

$$$$
ligand
 OpenBabel11021811503D
libRbt.so/2013.1/901 2013/11/27
 10 11  0  0  0  0  0  0  0  0999 V2000
   17.4133   -1.7118    3.2895 N   0  0  0  0  0  0  0  0  0  0  0  0
   16.4799   -2.4544    3.8548 C   0  0  0  0  0  0  0  0  0  0  0  0
   16.6124   -3.8469    3.8401 N   0  0  0  0  0  0  0  0  0  0  0  0
   17.6712   -4.4108    3.2425 C   0  0  0  0  0  0  0  0  0  0  0  0
   18.6060   -3.6569    2.6689 C   0  0  0  0  0  0  0  0  0  0  0  0
   18.5138   -2.3293    2.6853 C   0  0  0  0  0  0  0  0  0  0  0  0
   19.3926   -1.6335    2.1792 O   0  0  0  0  0  0  0  0  0  0  0  0
   19.4882   -4.4705    2.0952 N   0  0  0  0  0  0  0  0  0  0  0  0
   19.1050   -5.7239    2.3169 C   0  0  0  0  0  0  0  0  0  0  0  0
   17.9851   -5.6851    3.0334 N   0  0  0  0  0  0  0  0  0  0  0  0
  1  2  1  0  0  0  0
  1  6  1  0  0  0  0
  2  3  2  0  0  0  0
  3  4  1  0  0  0  0
  4  5  2  0  0  0  0
  4 10  1  0  0  0  0
  5  6  1  0  0  0  0
  5  8  1  0  0  0  0
  6  7  2  0  0  0  0
  8  9  1  0  0  0  0
  9 10  2  0  0  0  0
M  END
>  <CHROM.1>
18.14974097,-3.55347672,2.90688918,1.84434190,0.53495713,-0.00861960

>  <Name>
ligand

>  <RI>
0

>  <Rbt.Current_Directory>
/home/itssahil/PROJECTS/Mol_Feturizer/New_Systems/rnas/4NYD

>  <Rbt.Executable>
rbdock ($Id: //depot/dev/client3/rdock/2013.1/src/exe/rbdock.cxx#4 $)

>  <Rbt.Library>
libRbt.so (2013.1, Build901 2013/11/27)

>  <Rbt.Parameter_File>
/export/apps/rDock/src/rDock_2013.1_src/data/scripts/dock_solv.prm

>  <Rbt.Receptor>
prm/blind_docking_60.prm

>  <SCORE>
-23.415

>  <SCORE.INTER>
-23.415

>  <SCORE.INTER.CONST>
1

>  <SCORE.INTER.POLAR>
0

>  <SCORE.INTER.ROT>
0

>  <SCORE.INTER.SOLV>
3.45074

>  <SCORE.INTER.VDW>
-20.3603

>  <SCORE.INTER.norm>
-2.3415

>  <SCORE.INTRA>
0

>  <SCORE.INTRA.DIHEDRAL>
0

>  <SCORE.INTRA.DIHEDRAL.0>
0

>  <SCORE.INTRA.POLAR>
0

>  <SCORE.INTRA.POLAR.0>
0

>  <SCORE.INTRA.REPUL>
0

>  <SCORE.INTRA.REPUL.0>
0

>  <SCORE.INTRA.SOLV>
0

>  <SCORE.INTRA.SOLV.lig_0>
-4.1818

>  <SCORE.INTRA.VDW>
0

>  <SCORE.INTRA.VDW.0>
0

>  <SCORE.INTRA.norm>
0

>  <SCORE.RESTR>
0

>  <SCORE.RESTR.CAVITY>
0

>  <SCORE.RESTR.norm>
0

>  <SCORE.SYSTEM>
0

>  <SCORE.SYSTEM.CONST>
0

>  <SCORE.SYSTEM.DIHEDRAL>
0

>  <SCORE.SYSTEM.SOLV>
0

>  <SCORE.SYSTEM.norm>
0

>  <SCORE.heavy>
10

>  <SCORE.norm>
-2.3415

>  <RMSD>
3.093

$$$$
ligand
 OpenBabel11021811503D
libRbt.so/2013.1/901 2013/11/27
 10 11  0  0  0  0  0  0  0  0999 V2000
   17.4271   -1.7029    3.2998 N   0  0  0  0  0  0  0  0  0  0  0  0
   16.4904   -2.4395    3.8675 C   0  0  0  0  0  0  0  0  0  0  0  0
   16.6099   -3.8331    3.8457 N   0  0  0  0  0  0  0  0  0  0  0  0
   17.6597   -4.4040    3.2389 C   0  0  0  0  0  0  0  0  0  0  0  0
   18.5979   -3.6561    2.6629 C   0  0  0  0  0  0  0  0  0  0  0  0
   18.5181   -2.3278    2.6860 C   0  0  0  0  0  0  0  0  0  0  0  0
   19.4002   -1.6378    2.1777 O   0  0  0  0  0  0  0  0  0  0  0  0
   19.4690   -4.4752    2.0801 N   0  0  0  0  0  0  0  0  0  0  0  0
   19.0755   -5.7260    2.2985 C   0  0  0  0  0  0  0  0  0  0  0  0
   17.9605   -5.6802    3.0221 N   0  0  0  0  0  0  0  0  0  0  0  0
  1  2  1  0  0  0  0
  1  6  1  0  0  0  0
  2  3  2  0  0  0  0
  3  4  1  0  0  0  0
  4  5  2  0  0  0  0
  4 10  1  0  0  0  0
  5  6  1  0  0  0  0
  5  8  1  0  0  0  0
  6  7  2  0  0  0  0
  8  9  1  0  0  0  0
  9 10  2  0  0  0  0
M  END
>  <CHROM.1>
18.14410095,-3.54958708,2.90426552,1.83357531,0.54117526,0.00148190

>  <Name>
ligand

>  <RI>
0

>  <Rbt.Current_Directory>
/home/itssahil/PROJECTS/Mol_Feturizer/New_Systems/rnas/4NYD

>  <Rbt.Executable>
rbdock ($Id: //depot/dev/client3/rdock/2013.1/src/exe/rbdock.cxx#4 $)

>  <Rbt.Library>
libRbt.so (2013.1, Build901 2013/11/27)

>  <Rbt.Parameter_File>
/export/apps/rDock/src/rDock_2013.1_src/data/scripts/dock_solv.prm

>  <Rbt.Receptor>
prm/pocket_docking_4.prm

>  <SCORE>
-23.4124

>  <SCORE.INTER>
-23.4124

>  <SCORE.INTER.CONST>
1

>  <SCORE.INTER.POLAR>
0

>  <SCORE.INTER.ROT>
0

>  <SCORE.INTER.SOLV>
3.46553

>  <SCORE.INTER.VDW>
-20.3634

>  <SCORE.INTER.norm>
-2.34124

>  <SCORE.INTRA>
0

>  <SCORE.INTRA.DIHEDRAL>
0

>  <SCORE.INTRA.DIHEDRAL.0>
0

>  <SCORE.INTRA.POLAR>
0

>  <SCORE.INTRA.POLAR.0>
0

>  <SCORE.INTRA.REPUL>
0

>  <SCORE.INTRA.REPUL.0>
0

>  <SCORE.INTRA.SOLV>
0

>  <SCORE.INTRA.SOLV.lig_0>
-4.1818

>  <SCORE.INTRA.VDW>
0

>  <SCORE.INTRA.VDW.0>
0

>  <SCORE.INTRA.norm>
0

>  <SCORE.RESTR>
0

>  <SCORE.RESTR.CAVITY>
0

>  <SCORE.RESTR.norm>
0

>  <SCORE.SYSTEM>
0

>  <SCORE.SYSTEM.CONST>
0

>  <SCORE.SYSTEM.DIHEDRAL>
0

>  <SCORE.SYSTEM.SOLV>
0

>  <SCORE.SYSTEM.norm>
0

>  <SCORE.heavy>
10

>  <SCORE.norm>
-2.34124

>  <RMSD>
3.093

$$$$
ligand
 OpenBabel11021811503D
libRbt.so/2013.1/901 2013/11/27
 10 11  0  0  0  0  0  0  0  0999 V2000
   17.4204   -1.7410    3.3069 N   0  0  0  0  0  0  0  0  0  0  0  0
   16.5085   -2.4979    3.8881 C   0  0  0  0  0  0  0  0  0  0  0  0
   16.6601   -3.8884    3.8673 N   0  0  0  0  0  0  0  0  0  0  0  0
   17.7149   -4.4360    3.2480 C   0  0  0  0  0  0  0  0  0  0  0  0
   18.6279   -3.6679    2.6584 C   0  0  0  0  0  0  0  0  0  0  0  0
   18.5175   -2.3417    2.6801 C   0  0  0  0  0  0  0  0  0  0  0  0
   19.3767   -1.6325    2.1589 O   0  0  0  0  0  0  0  0  0  0  0  0
   19.5101   -4.4678    2.0658 N   0  0  0  0  0  0  0  0  0  0  0  0
   19.1487   -5.7269    2.2915 C   0  0  0  0  0  0  0  0  0  0  0  0
   18.0424   -5.7054    3.0296 N   0  0  0  0  0  0  0  0  0  0  0  0
  1  2  1  0  0  0  0
  1  6  1  0  0  0  0
  2  3  2  0  0  0  0
  3  4  1  0  0  0  0
  4  5  2  0  0  0  0
  4 10  1  0  0  0  0
  5  6  1  0  0  0  0
  5  8  1  0  0  0  0
  6  7  2  0  0  0  0
  8  9  1  0  0  0  0
  9 10  2  0  0  0  0
M  END
>  <CHROM.1>
18.17490324,-3.57138593,2.90542856,1.86089137,0.55407945,-0.01474137

>  <Name>
ligand

>  <RI>
0

>  <Rbt.Current_Directory>
/home/itssahil/PROJECTS/Mol_Feturizer/New_Systems/rnas/4NYD

>  <Rbt.Executable>
rbdock ($Id: //depot/dev/client3/rdock/2013.1/src/exe/rbdock.cxx#4 $)

>  <Rbt.Library>
libRbt.so (2013.1, Build901 2013/11/27)

>  <Rbt.Parameter_File>
/export/apps/rDock/src/rDock_2013.1_src/data/scripts/dock_solv.prm

>  <Rbt.Receptor>
prm/pocket_docking_6.prm

>  <SCORE>
-23.4108

>  <SCORE.INTER>
-23.4108

>  <SCORE.INTER.CONST>
1

>  <SCORE.INTER.POLAR>
0

>  <SCORE.INTER.ROT>
0

>  <SCORE.INTER.SOLV>
3.45054

>  <SCORE.INTER.VDW>
-20.3574

>  <SCORE.INTER.norm>
-2.34108

>  <SCORE.INTRA>
0

>  <SCORE.INTRA.DIHEDRAL>
0

>  <SCORE.INTRA.DIHEDRAL.0>
0

>  <SCORE.INTRA.POLAR>
0

>  <SCORE.INTRA.POLAR.0>
0

>  <SCORE.INTRA.REPUL>
0

>  <SCORE.INTRA.REPUL.0>
0

>  <SCORE.INTRA.SOLV>
0

>  <SCORE.INTRA.SOLV.lig_0>
-4.1818

>  <SCORE.INTRA.VDW>
0

>  <SCORE.INTRA.VDW.0>
0

>  <SCORE.INTRA.norm>
0

>  <SCORE.RESTR>
0

>  <SCORE.RESTR.CAVITY>
0

>  <SCORE.RESTR.norm>
0

>  <SCORE.SYSTEM>
0

>  <SCORE.SYSTEM.CONST>
0

>  <SCORE.SYSTEM.DIHEDRAL>
0

>  <SCORE.SYSTEM.SOLV>
0

>  <SCORE.SYSTEM.norm>
0

>  <SCORE.heavy>
10

>  <SCORE.norm>
-2.34108

>  <RMSD>
3.093

$$$$
ligand
 OpenBabel11021811503D
libRbt.so/2013.1/901 2013/11/27
 10 11  0  0  0  0  0  0  0  0999 V2000
   17.4120   -1.7381    3.2972 N   0  0  0  0  0  0  0  0  0  0  0  0
   16.4983   -2.4944    3.8766 C   0  0  0  0  0  0  0  0  0  0  0  0
   16.6515   -3.8848    3.8604 N   0  0  0  0  0  0  0  0  0  0  0  0
   17.7096   -4.4330    3.2473 C   0  0  0  0  0  0  0  0  0  0  0  0
   18.6245   -3.6655    2.6596 C   0  0  0  0  0  0  0  0  0  0  0  0
   18.5125   -2.3394    2.6770 C   0  0  0  0  0  0  0  0  0  0  0  0
   19.3733   -1.6308    2.1578 O   0  0  0  0  0  0  0  0  0  0  0  0
   19.5102   -4.4661    2.0732 N   0  0  0  0  0  0  0  0  0  0  0  0
   19.1491   -5.7250    2.3009 C   0  0  0  0  0  0  0  0  0  0  0  0
   18.0395   -5.7026    3.0340 N   0  0  0  0  0  0  0  0  0  0  0  0
  1  2  1  0  0  0  0
  1  6  1  0  0  0  0
  2  3  2  0  0  0  0
  3  4  1  0  0  0  0
  4  5  2  0  0  0  0
  4 10  1  0  0  0  0
  5  6  1  0  0  0  0
  5  8  1  0  0  0  0
  6  7  2  0  0  0  0
  8  9  1  0  0  0  0
  9 10  2  0  0  0  0
M  END
>  <CHROM.1>
18.17025482,-3.56881210,2.90436756,1.86208398,0.54958622,-0.01820351

>  <Name>
ligand

>  <RI>
0

>  <Rbt.Current_Directory>
/home/itssahil/PROJECTS/Mol_Feturizer/New_Systems/rnas/4NYD

>  <Rbt.Executable>
rbdock ($Id: //depot/dev/client3/rdock/2013.1/src/exe/rbdock.cxx#4 $)

>  <Rbt.Library>
libRbt.so (2013.1, Build901 2013/11/27)

>  <Rbt.Parameter_File>
/export/apps/rDock/src/rDock_2013.1_src/data/scripts/dock_solv.prm

>  <Rbt.Receptor>
prm/pocket_docking_6.prm

>  <SCORE>
-23.4091

>  <SCORE.INTER>
-23.4091

>  <SCORE.INTER.CONST>
1

>  <SCORE.INTER.POLAR>
0

>  <SCORE.INTER.ROT>
0

>  <SCORE.INTER.SOLV>
3.4429

>  <SCORE.INTER.VDW>
-20.3537

>  <SCORE.INTER.norm>
-2.34091

>  <SCORE.INTRA>
0

>  <SCORE.INTRA.DIHEDRAL>
0

>  <SCORE.INTRA.DIHEDRAL.0>
0

>  <SCORE.INTRA.POLAR>
0

>  <SCORE.INTRA.POLAR.0>
0

>  <SCORE.INTRA.REPUL>
0

>  <SCORE.INTRA.REPUL.0>
0

>  <SCORE.INTRA.SOLV>
0

>  <SCORE.INTRA.SOLV.lig_0>
-4.1818

>  <SCORE.INTRA.VDW>
0

>  <SCORE.INTRA.VDW.0>
0

>  <SCORE.INTRA.norm>
0

>  <SCORE.RESTR>
0

>  <SCORE.RESTR.CAVITY>
0

>  <SCORE.RESTR.norm>
0

>  <SCORE.SYSTEM>
0

>  <SCORE.SYSTEM.CONST>
0

>  <SCORE.SYSTEM.DIHEDRAL>
0

>  <SCORE.SYSTEM.SOLV>
0

>  <SCORE.SYSTEM.norm>
0

>  <SCORE.heavy>
10

>  <SCORE.norm>
-2.34091

>  <RMSD>
3.093

$$$$
ligand
 OpenBabel11021811503D
libRbt.so/2013.1/901 2013/11/27
 10 11  0  0  0  0  0  0  0  0999 V2000
   17.4226   -1.7335    3.3081 N   0  0  0  0  0  0  0  0  0  0  0  0
   16.5079   -2.4871    3.8892 C   0  0  0  0  0  0  0  0  0  0  0  0
   16.6543   -3.8781    3.8684 N   0  0  0  0  0  0  0  0  0  0  0  0
   17.7072   -4.4296    3.2491 C   0  0  0  0  0  0  0  0  0  0  0  0
   18.6231   -3.6647    2.6597 C   0  0  0  0  0  0  0  0  0  0  0  0
   18.5176   -2.3382    2.6815 C   0  0  0  0  0  0  0  0  0  0  0  0
   19.3794   -1.6321    2.1605 O   0  0  0  0  0  0  0  0  0  0  0  0
   19.5025   -4.4678    2.0672 N   0  0  0  0  0  0  0  0  0  0  0  0
   19.1364   -5.7257    2.2928 C   0  0  0  0  0  0  0  0  0  0  0  0
   18.0301   -5.7001    3.0307 N   0  0  0  0  0  0  0  0  0  0  0  0
  1  2  1  0  0  0  0
  1  6  1  0  0  0  0
  2  3  2  0  0  0  0
  3  4  1  0  0  0  0
  4  5  2  0  0  0  0
  4 10  1  0  0  0  0
  5  6  1  0  0  0  0
  5  8  1  0  0  0  0
  6  7  2  0  0  0  0
  8  9  1  0  0  0  0
  9 10  2  0  0  0  0
M  END
>  <CHROM.1>
18.17043655,-3.56657559,2.90670727,1.85656412,0.55397870,-0.01240726

>  <Name>
ligand

>  <RI>
0

>  <Rbt.Current_Directory>
/home/itssahil/PROJECTS/Mol_Feturizer/New_Systems/rnas/4NYD

>  <Rbt.Executable>
rbdock ($Id: //depot/dev/client3/rdock/2013.1/src/exe/rbdock.cxx#4 $)

>  <Rbt.Library>
libRbt.so (2013.1, Build901 2013/11/27)

>  <Rbt.Parameter_File>
/export/apps/rDock/src/rDock_2013.1_src/data/scripts/dock_solv.prm

>  <Rbt.Receptor>
prm/pocket_docking_8.prm

>  <SCORE>
-23.4105

>  <SCORE.INTER>
-23.4105

>  <SCORE.INTER.CONST>
1

>  <SCORE.INTER.POLAR>
0

>  <SCORE.INTER.ROT>
0

>  <SCORE.INTER.SOLV>
3.45452

>  <SCORE.INTER.VDW>
-20.3585

>  <SCORE.INTER.norm>
-2.34105

>  <SCORE.INTRA>
0

>  <SCORE.INTRA.DIHEDRAL>
0

>  <SCORE.INTRA.DIHEDRAL.0>
0

>  <SCORE.INTRA.POLAR>
0

>  <SCORE.INTRA.POLAR.0>
0

>  <SCORE.INTRA.REPUL>
0

>  <SCORE.INTRA.REPUL.0>
0

>  <SCORE.INTRA.SOLV>
0

>  <SCORE.INTRA.SOLV.lig_0>
-4.1818

>  <SCORE.INTRA.VDW>
0

>  <SCORE.INTRA.VDW.0>
0

>  <SCORE.INTRA.norm>
0

>  <SCORE.RESTR>
0

>  <SCORE.RESTR.CAVITY>
0

>  <SCORE.RESTR.norm>
0

>  <SCORE.SYSTEM>
0

>  <SCORE.SYSTEM.CONST>
0

>  <SCORE.SYSTEM.DIHEDRAL>
0

>  <SCORE.SYSTEM.SOLV>
0

>  <SCORE.SYSTEM.norm>
0

>  <SCORE.heavy>
10

>  <SCORE.norm>
-2.34105

>  <RMSD>
3.093

$$$$
ligand
 OpenBabel11021811503D
libRbt.so/2013.1/901 2013/11/27
 10 11  0  0  0  0  0  0  0  0999 V2000
   17.4124   -1.7384    3.2973 N   0  0  0  0  0  0  0  0  0  0  0  0
   16.4995   -2.4948    3.8776 C   0  0  0  0  0  0  0  0  0  0  0  0
   16.6544   -3.8850    3.8641 N   0  0  0  0  0  0  0  0  0  0  0  0
   17.7136   -4.4329    3.2524 C   0  0  0  0  0  0  0  0  0  0  0  0
   18.6277   -3.6653    2.6637 C   0  0  0  0  0  0  0  0  0  0  0  0
   18.5140   -2.3393    2.6787 C   0  0  0  0  0  0  0  0  0  0  0  0
   19.3740   -1.6305    2.1584 O   0  0  0  0  0  0  0  0  0  0  0  0
   19.5147   -4.4658    2.0792 N   0  0  0  0  0  0  0  0  0  0  0  0
   19.1551   -5.7248    2.3091 C   0  0  0  0  0  0  0  0  0  0  0  0
   18.0452   -5.7025    3.0416 N   0  0  0  0  0  0  0  0  0  0  0  0
  1  2  1  0  0  0  0
  1  6  1  0  0  0  0
  2  3  2  0  0  0  0
  3  4  1  0  0  0  0
  4  5  2  0  0  0  0
  4 10  1  0  0  0  0
  5  6  1  0  0  0  0
  5  8  1  0  0  0  0
  6  7  2  0  0  0  0
  8  9  1  0  0  0  0
  9 10  2  0  0  0  0
M  END
>  <CHROM.1>
18.17321554,-3.56876221,2.90809815,1.86361675,0.54913198,-0.02085138

>  <Name>
ligand

>  <RI>
0

>  <Rbt.Current_Directory>
/home/itssahil/PROJECTS/Mol_Feturizer/New_Systems/rnas/4NYD

>  <Rbt.Executable>
rbdock ($Id: //depot/dev/client3/rdock/2013.1/src/exe/rbdock.cxx#4 $)

>  <Rbt.Library>
libRbt.so (2013.1, Build901 2013/11/27)

>  <Rbt.Parameter_File>
/export/apps/rDock/src/rDock_2013.1_src/data/scripts/dock_solv.prm

>  <Rbt.Receptor>
prm/pocket_docking_8.prm

>  <SCORE>
-23.4075

>  <SCORE.INTER>
-23.4075

>  <SCORE.INTER.CONST>
1

>  <SCORE.INTER.POLAR>
0

>  <SCORE.INTER.ROT>
0

>  <SCORE.INTER.SOLV>
3.44105

>  <SCORE.INTER.VDW>
-20.352

>  <SCORE.INTER.norm>
-2.34075

>  <SCORE.INTRA>
0

>  <SCORE.INTRA.DIHEDRAL>
0

>  <SCORE.INTRA.DIHEDRAL.0>
0

>  <SCORE.INTRA.POLAR>
0

>  <SCORE.INTRA.POLAR.0>
0

>  <SCORE.INTRA.REPUL>
0

>  <SCORE.INTRA.REPUL.0>
0

>  <SCORE.INTRA.SOLV>
0

>  <SCORE.INTRA.SOLV.lig_0>
-4.1818

>  <SCORE.INTRA.VDW>
0

>  <SCORE.INTRA.VDW.0>
0

>  <SCORE.INTRA.norm>
0

>  <SCORE.RESTR>
0

>  <SCORE.RESTR.CAVITY>
0

>  <SCORE.RESTR.norm>
0

>  <SCORE.SYSTEM>
0

>  <SCORE.SYSTEM.CONST>
0

>  <SCORE.SYSTEM.DIHEDRAL>
0

>  <SCORE.SYSTEM.SOLV>
0

>  <SCORE.SYSTEM.norm>
0

>  <SCORE.heavy>
10

>  <SCORE.norm>
-2.34075

>  <RMSD>
3.093

$$$$
ligand
 OpenBabel11021811503D
libRbt.so/2013.1/901 2013/11/27
 10 11  0  0  0  0  0  0  0  0999 V2000
   17.4063   -1.7158    3.2821 N   0  0  0  0  0  0  0  0  0  0  0  0
   16.4750   -2.4599    3.8490 C   0  0  0  0  0  0  0  0  0  0  0  0
   16.6125   -3.8520    3.8392 N   0  0  0  0  0  0  0  0  0  0  0  0
   17.6739   -4.4140    3.2445 C   0  0  0  0  0  0  0  0  0  0  0  0
   18.6067   -3.6587    2.6693 C   0  0  0  0  0  0  0  0  0  0  0  0
   18.5096   -2.3314    2.6812 C   0  0  0  0  0  0  0  0  0  0  0  0
   19.3865   -1.6342    2.1736 O   0  0  0  0  0  0  0  0  0  0  0  0
   19.4923   -4.4712    2.0992 N   0  0  0  0  0  0  0  0  0  0  0  0
   19.1133   -5.7252    2.3247 C   0  0  0  0  0  0  0  0  0  0  0  0
   17.9926   -5.6880    3.0400 N   0  0  0  0  0  0  0  0  0  0  0  0
  1  2  1  0  0  0  0
  1  6  1  0  0  0  0
  2  3  2  0  0  0  0
  3  4  1  0  0  0  0
  4  5  2  0  0  0  0
  4 10  1  0  0  0  0
  5  6  1  0  0  0  0
  5  8  1  0  0  0  0
  6  7  2  0  0  0  0
  8  9  1  0  0  0  0
  9 10  2  0  0  0  0
M  END
>  <CHROM.1>
18.14974874,-3.55616190,2.90649307,1.84846720,0.53393776,-0.01408920

>  <Name>
ligand

>  <RI>
0

>  <Rbt.Current_Directory>
/home/itssahil/PROJECTS/Mol_Feturizer/New_Systems/rnas/4NYD

>  <Rbt.Executable>
rbdock ($Id: //depot/dev/client3/rdock/2013.1/src/exe/rbdock.cxx#4 $)

>  <Rbt.Library>
libRbt.so (2013.1, Build901 2013/11/27)

>  <Rbt.Parameter_File>
/export/apps/rDock/src/rDock_2013.1_src/data/scripts/dock_solv.prm

>  <Rbt.Receptor>
prm/blind_docking_60.prm

>  <SCORE>
-23.4119

>  <SCORE.INTER>
-23.4119

>  <SCORE.INTER.CONST>
1

>  <SCORE.INTER.POLAR>
0

>  <SCORE.INTER.ROT>
0

>  <SCORE.INTER.SOLV>
3.44284

>  <SCORE.INTER.VDW>
-20.3556

>  <SCORE.INTER.norm>
-2.34119

>  <SCORE.INTRA>
0

>  <SCORE.INTRA.DIHEDRAL>
0

>  <SCORE.INTRA.DIHEDRAL.0>
0

>  <SCORE.INTRA.POLAR>
0

>  <SCORE.INTRA.POLAR.0>
0

>  <SCORE.INTRA.REPUL>
0

>  <SCORE.INTRA.REPUL.0>
0

>  <SCORE.INTRA.SOLV>
0

>  <SCORE.INTRA.SOLV.lig_0>
-4.1818

>  <SCORE.INTRA.VDW>
0

>  <SCORE.INTRA.VDW.0>
0

>  <SCORE.INTRA.norm>
0

>  <SCORE.RESTR>
0

>  <SCORE.RESTR.CAVITY>
0

>  <SCORE.RESTR.norm>
0

>  <SCORE.SYSTEM>
0

>  <SCORE.SYSTEM.CONST>
0

>  <SCORE.SYSTEM.DIHEDRAL>
0

>  <SCORE.SYSTEM.SOLV>
0

>  <SCORE.SYSTEM.norm>
0

>  <SCORE.heavy>
10

>  <SCORE.norm>
-2.34119

>  <RMSD>
3.094

$$$$
ligand
 OpenBabel11021811503D
libRbt.so/2013.1/901 2013/11/27
 10 11  0  0  0  0  0  0  0  0999 V2000
   17.3975   -1.7396    3.2759 N   0  0  0  0  0  0  0  0  0  0  0  0
   16.4804   -2.4968    3.8483 C   0  0  0  0  0  0  0  0  0  0  0  0
   16.6415   -3.8864    3.8444 N   0  0  0  0  0  0  0  0  0  0  0  0
   17.7110   -4.4330    3.2498 C   0  0  0  0  0  0  0  0  0  0  0  0
   18.6294   -3.6645    2.6689 C   0  0  0  0  0  0  0  0  0  0  0  0
   18.5098   -2.3390    2.6751 C   0  0  0  0  0  0  0  0  0  0  0  0
   19.3734   -1.6292    2.1623 O   0  0  0  0  0  0  0  0  0  0  0  0
   19.5275   -4.4643    2.1004 N   0  0  0  0  0  0  0  0  0  0  0  0
   19.1704   -5.7235    2.3325 C   0  0  0  0  0  0  0  0  0  0  0  0
   18.0509   -5.7022    3.0502 N   0  0  0  0  0  0  0  0  0  0  0  0
  1  2  1  0  0  0  0
  1  6  1  0  0  0  0
  2  3  2  0  0  0  0
  3  4  1  0  0  0  0
  4  5  2  0  0  0  0
  4 10  1  0  0  0  0
  5  6  1  0  0  0  0
  5  8  1  0  0  0  0
  6  7  2  0  0  0  0
  8  9  1  0  0  0  0
  9 10  2  0  0  0  0
M  END
>  <CHROM.1>
18.17135508,-3.56865698,2.90675620,1.86835280,0.53590937,-0.02874614

>  <Name>
ligand

>  <RI>
0

>  <Rbt.Current_Directory>
/home/itssahil/PROJECTS/Mol_Feturizer/New_Systems/rnas/4NYD

>  <Rbt.Executable>
rbdock ($Id: //depot/dev/client3/rdock/2013.1/src/exe/rbdock.cxx#4 $)

>  <Rbt.Library>
libRbt.so (2013.1, Build901 2013/11/27)

>  <Rbt.Parameter_File>
/export/apps/rDock/src/rDock_2013.1_src/data/scripts/dock_solv.prm

>  <Rbt.Receptor>
prm/blind_docking_80.prm

>  <SCORE>
-23.3881

>  <SCORE.INTER>
-23.3881

>  <SCORE.INTER.CONST>
1

>  <SCORE.INTER.POLAR>
0

>  <SCORE.INTER.ROT>
0

>  <SCORE.INTER.SOLV>
3.42184

>  <SCORE.INTER.VDW>
-20.3327

>  <SCORE.INTER.norm>
-2.33881

>  <SCORE.INTRA>
0

>  <SCORE.INTRA.DIHEDRAL>
0

>  <SCORE.INTRA.DIHEDRAL.0>
0

>  <SCORE.INTRA.POLAR>
0

>  <SCORE.INTRA.POLAR.0>
0

>  <SCORE.INTRA.REPUL>
0

>  <SCORE.INTRA.REPUL.0>
0

>  <SCORE.INTRA.SOLV>
0

>  <SCORE.INTRA.SOLV.lig_0>
-4.1818

>  <SCORE.INTRA.VDW>
0

>  <SCORE.INTRA.VDW.0>
0

>  <SCORE.INTRA.norm>
0

>  <SCORE.RESTR>
0

>  <SCORE.RESTR.CAVITY>
0

>  <SCORE.RESTR.norm>
0

>  <SCORE.SYSTEM>
0

>  <SCORE.SYSTEM.CONST>
0

>  <SCORE.SYSTEM.DIHEDRAL>
0

>  <SCORE.SYSTEM.SOLV>
0

>  <SCORE.SYSTEM.norm>
0

>  <SCORE.heavy>
10

>  <SCORE.norm>
-2.33881

>  <RMSD>
3.094

$$$$
ligand
 OpenBabel11021811503D
libRbt.so/2013.1/901 2013/11/27
 10 11  0  0  0  0  0  0  0  0999 V2000
   17.4118   -1.7394    3.2979 N   0  0  0  0  0  0  0  0  0  0  0  0
   16.4991   -2.4961    3.8783 C   0  0  0  0  0  0  0  0  0  0  0  0
   16.6525   -3.8864    3.8614 N   0  0  0  0  0  0  0  0  0  0  0  0
   17.7098   -4.4342    3.2464 C   0  0  0  0  0  0  0  0  0  0  0  0
   18.6236   -3.6663    2.6576 C   0  0  0  0  0  0  0  0  0  0  0  0
   18.5115   -2.3403    2.6757 C   0  0  0  0  0  0  0  0  0  0  0  0
   19.3713   -1.6313    2.1554 O   0  0  0  0  0  0  0  0  0  0  0  0
   19.5085   -4.4666    2.0696 N   0  0  0  0  0  0  0  0  0  0  0  0
   19.1480   -5.7256    2.2973 C   0  0  0  0  0  0  0  0  0  0  0  0
   18.0396   -5.7037    3.0321 N   0  0  0  0  0  0  0  0  0  0  0  0
  1  2  1  0  0  0  0
  1  6  1  0  0  0  0
  2  3  2  0  0  0  0
  3  4  1  0  0  0  0
  4  5  2  0  0  0  0
  4 10  1  0  0  0  0
  5  6  1  0  0  0  0
  5  8  1  0  0  0  0
  6  7  2  0  0  0  0
  8  9  1  0  0  0  0
  9 10  2  0  0  0  0
M  END
>  <CHROM.1>
18.16975046,-3.56982759,2.90311689,1.86231094,0.55112469,-0.01793253

>  <Name>
ligand

>  <RI>
0

>  <Rbt.Current_Directory>
/home/itssahil/PROJECTS/Mol_Feturizer/New_Systems/rnas/4NYD

>  <Rbt.Executable>
rbdock ($Id: //depot/dev/client3/rdock/2013.1/src/exe/rbdock.cxx#4 $)

>  <Rbt.Library>
libRbt.so (2013.1, Build901 2013/11/27)

>  <Rbt.Parameter_File>
/export/apps/rDock/src/rDock_2013.1_src/data/scripts/dock_solv.prm

>  <Rbt.Receptor>
prm/pocket_docking_4.prm

>  <SCORE>
-23.4097

>  <SCORE.INTER>
-23.4097

>  <SCORE.INTER.CONST>
1

>  <SCORE.INTER.POLAR>
0

>  <SCORE.INTER.ROT>
0

>  <SCORE.INTER.SOLV>
3.44352

>  <SCORE.INTER.VDW>
-20.3543

>  <SCORE.INTER.norm>
-2.34097

>  <SCORE.INTRA>
0

>  <SCORE.INTRA.DIHEDRAL>
0

>  <SCORE.INTRA.DIHEDRAL.0>
0

>  <SCORE.INTRA.POLAR>
0

>  <SCORE.INTRA.POLAR.0>
0

>  <SCORE.INTRA.REPUL>
0

>  <SCORE.INTRA.REPUL.0>
0

>  <SCORE.INTRA.SOLV>
0

>  <SCORE.INTRA.SOLV.lig_0>
-4.1818

>  <SCORE.INTRA.VDW>
0

>  <SCORE.INTRA.VDW.0>
0

>  <SCORE.INTRA.norm>
0

>  <SCORE.RESTR>
0

>  <SCORE.RESTR.CAVITY>
0

>  <SCORE.RESTR.norm>
0

>  <SCORE.SYSTEM>
0

>  <SCORE.SYSTEM.CONST>
0

>  <SCORE.SYSTEM.DIHEDRAL>
0

>  <SCORE.SYSTEM.SOLV>
0

>  <SCORE.SYSTEM.norm>
0

>  <SCORE.heavy>
10

>  <SCORE.norm>
-2.34097

>  <RMSD>
3.094

$$$$
ligand
 OpenBabel11021811503D
libRbt.so/2013.1/901 2013/11/27
 10 11  0  0  0  0  0  0  0  0999 V2000
   17.4107   -1.7345    3.3004 N   0  0  0  0  0  0  0  0  0  0  0  0
   16.5012   -2.4893    3.8881 C   0  0  0  0  0  0  0  0  0  0  0  0
   16.6535   -3.8798    3.8732 N   0  0  0  0  0  0  0  0  0  0  0  0
   17.7066   -4.4296    3.2528 C   0  0  0  0  0  0  0  0  0  0  0  0
   18.6172   -3.6636    2.6567 C   0  0  0  0  0  0  0  0  0  0  0  0
   18.5061   -2.3374    2.6727 C   0  0  0  0  0  0  0  0  0  0  0  0
   19.3631   -1.6302    2.1455 O   0  0  0  0  0  0  0  0  0  0  0  0
   19.4979   -4.4658    2.0648 N   0  0  0  0  0  0  0  0  0  0  0  0
   19.1379   -5.7241    2.2975 C   0  0  0  0  0  0  0  0  0  0  0  0
   18.0341   -5.6998    3.0391 N   0  0  0  0  0  0  0  0  0  0  0  0
  1  2  1  0  0  0  0
  1  6  1  0  0  0  0
  2  3  2  0  0  0  0
  3  4  1  0  0  0  0
  4  5  2  0  0  0  0
  4 10  1  0  0  0  0
  5  6  1  0  0  0  0
  5  8  1  0  0  0  0
  6  7  2  0  0  0  0
  8  9  1  0  0  0  0
  9 10  2  0  0  0  0
M  END
>  <CHROM.1>
18.16495363,-3.56627065,2.90480612,1.86163078,0.55738556,-0.01971568

>  <Name>
ligand

>  <RI>
0

>  <Rbt.Current_Directory>
/home/itssahil/PROJECTS/Mol_Feturizer/New_Systems/rnas/4NYD

>  <Rbt.Executable>
rbdock ($Id: //depot/dev/client3/rdock/2013.1/src/exe/rbdock.cxx#4 $)

>  <Rbt.Library>
libRbt.so (2013.1, Build901 2013/11/27)

>  <Rbt.Parameter_File>
/export/apps/rDock/src/rDock_2013.1_src/data/scripts/dock_solv.prm

>  <Rbt.Receptor>
prm/pocket_docking_8.prm

>  <SCORE>
-23.4107

>  <SCORE.INTER>
-23.4107

>  <SCORE.INTER.CONST>
1

>  <SCORE.INTER.POLAR>
0

>  <SCORE.INTER.ROT>
0

>  <SCORE.INTER.SOLV>
3.44587

>  <SCORE.INTER.VDW>
-20.3557

>  <SCORE.INTER.norm>
-2.34107

>  <SCORE.INTRA>
0

>  <SCORE.INTRA.DIHEDRAL>
0

>  <SCORE.INTRA.DIHEDRAL.0>
0

>  <SCORE.INTRA.POLAR>
0

>  <SCORE.INTRA.POLAR.0>
0

>  <SCORE.INTRA.REPUL>
0

>  <SCORE.INTRA.REPUL.0>
0

>  <SCORE.INTRA.SOLV>
0

>  <SCORE.INTRA.SOLV.lig_0>
-4.1818

>  <SCORE.INTRA.VDW>
0

>  <SCORE.INTRA.VDW.0>
0

>  <SCORE.INTRA.norm>
0

>  <SCORE.RESTR>
0

>  <SCORE.RESTR.CAVITY>
0

>  <SCORE.RESTR.norm>
0

>  <SCORE.SYSTEM>
0

>  <SCORE.SYSTEM.CONST>
0

>  <SCORE.SYSTEM.DIHEDRAL>
0

>  <SCORE.SYSTEM.SOLV>
0

>  <SCORE.SYSTEM.norm>
0

>  <SCORE.heavy>
10

>  <SCORE.norm>
-2.34107

>  <RMSD>
3.094

$$$$
ligand
 OpenBabel11021811503D
libRbt.so/2013.1/901 2013/11/27
 10 11  0  0  0  0  0  0  0  0999 V2000
   17.4074   -1.6994    3.2788 N   0  0  0  0  0  0  0  0  0  0  0  0
   16.4707   -2.4341    3.8490 C   0  0  0  0  0  0  0  0  0  0  0  0
   16.5942   -3.8274    3.8388 N   0  0  0  0  0  0  0  0  0  0  0  0
   17.6479   -4.4001    3.2405 C   0  0  0  0  0  0  0  0  0  0  0  0
   18.5861   -3.6542    2.6620 C   0  0  0  0  0  0  0  0  0  0  0  0
   18.5024   -2.3260    2.6741 C   0  0  0  0  0  0  0  0  0  0  0  0
   19.3845   -1.6376    2.1634 O   0  0  0  0  0  0  0  0  0  0  0  0
   19.4617   -4.4755    2.0890 N   0  0  0  0  0  0  0  0  0  0  0  0
   19.0709   -5.7257    2.3159 C   0  0  0  0  0  0  0  0  0  0  0  0
   17.9531   -5.6772    3.0350 N   0  0  0  0  0  0  0  0  0  0  0  0
  1  2  1  0  0  0  0
  1  6  1  0  0  0  0
  2  3  2  0  0  0  0
  3  4  1  0  0  0  0
  4  5  2  0  0  0  0
  4 10  1  0  0  0  0
  5  6  1  0  0  0  0
  5  8  1  0  0  0  0
  6  7  2  0  0  0  0
  8  9  1  0  0  0  0
  9 10  2  0  0  0  0
M  END
>  <CHROM.1>
18.13110830,-3.54708635,2.90075431,1.83689348,0.53749774,-0.00825572

>  <Name>
ligand

>  <RI>
0

>  <Rbt.Current_Directory>
/home/itssahil/PROJECTS/Mol_Feturizer/New_Systems/rnas/4NYD

>  <Rbt.Executable>
rbdock ($Id: //depot/dev/client3/rdock/2013.1/src/exe/rbdock.cxx#4 $)

>  <Rbt.Library>
libRbt.so (2013.1, Build901 2013/11/27)

>  <Rbt.Parameter_File>
/export/apps/rDock/src/rDock_2013.1_src/data/scripts/dock_solv.prm

>  <Rbt.Receptor>
prm/blind_docking_40.prm

>  <SCORE>
-23.4327

>  <SCORE.INTER>
-23.4327

>  <SCORE.INTER.CONST>
1

>  <SCORE.INTER.POLAR>
0

>  <SCORE.INTER.ROT>
0

>  <SCORE.INTER.SOLV>
3.45002

>  <SCORE.INTER.VDW>
-20.3718

>  <SCORE.INTER.norm>
-2.34327

>  <SCORE.INTRA>
0

>  <SCORE.INTRA.DIHEDRAL>
0

>  <SCORE.INTRA.DIHEDRAL.0>
0

>  <SCORE.INTRA.POLAR>
0

>  <SCORE.INTRA.POLAR.0>
0

>  <SCORE.INTRA.REPUL>
0

>  <SCORE.INTRA.REPUL.0>
0

>  <SCORE.INTRA.SOLV>
0

>  <SCORE.INTRA.SOLV.lig_0>
-4.1818

>  <SCORE.INTRA.VDW>
0

>  <SCORE.INTRA.VDW.0>
0

>  <SCORE.INTRA.norm>
0

>  <SCORE.RESTR>
0

>  <SCORE.RESTR.CAVITY>
0

>  <SCORE.RESTR.norm>
0

>  <SCORE.SYSTEM>
0

>  <SCORE.SYSTEM.CONST>
0

>  <SCORE.SYSTEM.DIHEDRAL>
0

>  <SCORE.SYSTEM.SOLV>
0

>  <SCORE.SYSTEM.norm>
0

>  <SCORE.heavy>
10

>  <SCORE.norm>
-2.34327

>  <RMSD>
3.095

$$$$
ligand
 OpenBabel11021811503D
libRbt.so/2013.1/901 2013/11/27
 10 11  0  0  0  0  0  0  0  0999 V2000
   17.4042   -1.7408    3.2942 N   0  0  0  0  0  0  0  0  0  0  0  0
   16.4955   -2.4991    3.8787 C   0  0  0  0  0  0  0  0  0  0  0  0
   16.6534   -3.8890    3.8645 N   0  0  0  0  0  0  0  0  0  0  0  0
   17.7109   -4.4347    3.2482 C   0  0  0  0  0  0  0  0  0  0  0  0
   18.6207   -3.6652    2.6553 C   0  0  0  0  0  0  0  0  0  0  0  0
   18.5043   -2.3395    2.6707 C   0  0  0  0  0  0  0  0  0  0  0  0
   19.3605   -1.6289    2.1466 O   0  0  0  0  0  0  0  0  0  0  0  0
   19.5068   -4.4639    2.0668 N   0  0  0  0  0  0  0  0  0  0  0  0
   19.1509   -5.7236    2.2984 C   0  0  0  0  0  0  0  0  0  0  0  0
   18.0443   -5.7036    3.0359 N   0  0  0  0  0  0  0  0  0  0  0  0
  1  2  1  0  0  0  0
  1  6  1  0  0  0  0
  2  3  2  0  0  0  0
  3  4  1  0  0  0  0
  4  5  2  0  0  0  0
  4 10  1  0  0  0  0
  5  6  1  0  0  0  0
  5  8  1  0  0  0  0
  6  7  2  0  0  0  0
  8  9  1  0  0  0  0
  9 10  2  0  0  0  0
M  END
>  <CHROM.1>
18.16717336,-3.56962163,2.90172362,1.86621029,0.55359692,-0.02225812

>  <Name>
ligand

>  <RI>
0

>  <Rbt.Current_Directory>
/home/itssahil/PROJECTS/Mol_Feturizer/New_Systems/rnas/4NYD

>  <Rbt.Executable>
rbdock ($Id: //depot/dev/client3/rdock/2013.1/src/exe/rbdock.cxx#4 $)

>  <Rbt.Library>
libRbt.so (2013.1, Build901 2013/11/27)

>  <Rbt.Parameter_File>
/export/apps/rDock/src/rDock_2013.1_src/data/scripts/dock_solv.prm

>  <Rbt.Receptor>
prm/blind_docking_60.prm

>  <SCORE>
-23.4101

>  <SCORE.INTER>
-23.4101

>  <SCORE.INTER.CONST>
1

>  <SCORE.INTER.POLAR>
0

>  <SCORE.INTER.ROT>
0

>  <SCORE.INTER.SOLV>
3.43832

>  <SCORE.INTER.VDW>
-20.3528

>  <SCORE.INTER.norm>
-2.34101

>  <SCORE.INTRA>
0

>  <SCORE.INTRA.DIHEDRAL>
0

>  <SCORE.INTRA.DIHEDRAL.0>
0

>  <SCORE.INTRA.POLAR>
0

>  <SCORE.INTRA.POLAR.0>
0

>  <SCORE.INTRA.REPUL>
0

>  <SCORE.INTRA.REPUL.0>
0

>  <SCORE.INTRA.SOLV>
0

>  <SCORE.INTRA.SOLV.lig_0>
-4.1818

>  <SCORE.INTRA.VDW>
0

>  <SCORE.INTRA.VDW.0>
0

>  <SCORE.INTRA.norm>
0

>  <SCORE.RESTR>
0

>  <SCORE.RESTR.CAVITY>
0

>  <SCORE.RESTR.norm>
0

>  <SCORE.SYSTEM>
0

>  <SCORE.SYSTEM.CONST>
0

>  <SCORE.SYSTEM.DIHEDRAL>
0

>  <SCORE.SYSTEM.SOLV>
0

>  <SCORE.SYSTEM.norm>
0

>  <SCORE.heavy>
10

>  <SCORE.norm>
-2.34101

>  <RMSD>
3.095

$$$$
ligand
 OpenBabel11021811503D
libRbt.so/2013.1/901 2013/11/27
 10 11  0  0  0  0  0  0  0  0999 V2000
   17.4001   -1.7186    3.2840 N   0  0  0  0  0  0  0  0  0  0  0  0
   16.4734   -2.4655    3.8547 C   0  0  0  0  0  0  0  0  0  0  0  0
   16.6122   -3.8574    3.8393 N   0  0  0  0  0  0  0  0  0  0  0  0
   17.6701   -4.4164    3.2356 C   0  0  0  0  0  0  0  0  0  0  0  0
   18.5982   -3.6583    2.6566 C   0  0  0  0  0  0  0  0  0  0  0  0
   18.5000   -2.3311    2.6736 C   0  0  0  0  0  0  0  0  0  0  0  0
   19.3727   -1.6313    2.1625 O   0  0  0  0  0  0  0  0  0  0  0  0
   19.4808   -4.4679    2.0779 N   0  0  0  0  0  0  0  0  0  0  0  0
   19.1045   -5.7231    2.3018 C   0  0  0  0  0  0  0  0  0  0  0  0
   17.9886   -5.6893    3.0247 N   0  0  0  0  0  0  0  0  0  0  0  0
  1  2  1  0  0  0  0
  1  6  1  0  0  0  0
  2  3  2  0  0  0  0
  3  4  1  0  0  0  0
  4  5  2  0  0  0  0
  4 10  1  0  0  0  0
  5  6  1  0  0  0  0
  5  8  1  0  0  0  0
  6  7  2  0  0  0  0
  8  9  1  0  0  0  0
  9 10  2  0  0  0  0
M  END
>  <CHROM.1>
18.14280122,-3.55695224,2.89724517,1.84971161,0.54063800,-0.01137648

>  <Name>
ligand

>  <RI>
0

>  <Rbt.Current_Directory>
/home/itssahil/PROJECTS/Mol_Feturizer/New_Systems/rnas/4NYD

>  <Rbt.Executable>
rbdock ($Id: //depot/dev/client3/rdock/2013.1/src/exe/rbdock.cxx#4 $)

>  <Rbt.Library>
libRbt.so (2013.1, Build901 2013/11/27)

>  <Rbt.Parameter_File>
/export/apps/rDock/src/rDock_2013.1_src/data/scripts/dock_solv.prm

>  <Rbt.Receptor>
prm/pocket_docking_4.prm

>  <SCORE>
-23.4134

>  <SCORE.INTER>
-23.4134

>  <SCORE.INTER.CONST>
1

>  <SCORE.INTER.POLAR>
0

>  <SCORE.INTER.ROT>
0

>  <SCORE.INTER.SOLV>
3.44517

>  <SCORE.INTER.VDW>
-20.3573

>  <SCORE.INTER.norm>
-2.34134

>  <SCORE.INTRA>
0

>  <SCORE.INTRA.DIHEDRAL>
0

>  <SCORE.INTRA.DIHEDRAL.0>
0

>  <SCORE.INTRA.POLAR>
0

>  <SCORE.INTRA.POLAR.0>
0

>  <SCORE.INTRA.REPUL>
0

>  <SCORE.INTRA.REPUL.0>
0

>  <SCORE.INTRA.SOLV>
0

>  <SCORE.INTRA.SOLV.lig_0>
-4.1818

>  <SCORE.INTRA.VDW>
0

>  <SCORE.INTRA.VDW.0>
0

>  <SCORE.INTRA.norm>
0

>  <SCORE.RESTR>
0

>  <SCORE.RESTR.CAVITY>
0

>  <SCORE.RESTR.norm>
0

>  <SCORE.SYSTEM>
0

>  <SCORE.SYSTEM.CONST>
0

>  <SCORE.SYSTEM.DIHEDRAL>
0

>  <SCORE.SYSTEM.SOLV>
0

>  <SCORE.SYSTEM.norm>
0

>  <SCORE.heavy>
10

>  <SCORE.norm>
-2.34134

>  <RMSD>
3.095

$$$$
ligand
 OpenBabel11021811503D
libRbt.so/2013.1/901 2013/11/27
 10 11  0  0  0  0  0  0  0  0999 V2000
   17.4038   -1.7127    3.2838 N   0  0  0  0  0  0  0  0  0  0  0  0
   16.4760   -2.4560    3.8573 C   0  0  0  0  0  0  0  0  0  0  0  0
   16.6103   -3.8484    3.8431 N   0  0  0  0  0  0  0  0  0  0  0  0
   17.6651   -4.4114    3.2378 C   0  0  0  0  0  0  0  0  0  0  0  0
   18.5944   -3.6569    2.6560 C   0  0  0  0  0  0  0  0  0  0  0  0
   18.5004   -2.3294    2.6717 C   0  0  0  0  0  0  0  0  0  0  0  0
   19.3743   -1.6329    2.1579 O   0  0  0  0  0  0  0  0  0  0  0  0
   19.4731   -4.4700    2.0763 N   0  0  0  0  0  0  0  0  0  0  0  0
   19.0934   -5.7237    2.3023 C   0  0  0  0  0  0  0  0  0  0  0  0
   17.9791   -5.6856    3.0276 N   0  0  0  0  0  0  0  0  0  0  0  0
  1  2  1  0  0  0  0
  1  6  1  0  0  0  0
  2  3  2  0  0  0  0
  3  4  1  0  0  0  0
  4  5  2  0  0  0  0
  4 10  1  0  0  0  0
  5  6  1  0  0  0  0
  5  8  1  0  0  0  0
  6  7  2  0  0  0  0
  8  9  1  0  0  0  0
  9 10  2  0  0  0  0
M  END
>  <CHROM.1>
18.13982741,-3.55385190,2.89745586,1.84603545,0.54283344,-0.01060149

>  <Name>
ligand

>  <RI>
0

>  <Rbt.Current_Directory>
/home/itssahil/PROJECTS/Mol_Feturizer/New_Systems/rnas/4NYD

>  <Rbt.Executable>
rbdock ($Id: //depot/dev/client3/rdock/2013.1/src/exe/rbdock.cxx#4 $)

>  <Rbt.Library>
libRbt.so (2013.1, Build901 2013/11/27)

>  <Rbt.Parameter_File>
/export/apps/rDock/src/rDock_2013.1_src/data/scripts/dock_solv.prm

>  <Rbt.Receptor>
prm/pocket_docking_4.prm

>  <SCORE>
-23.4145

>  <SCORE.INTER>
-23.4145

>  <SCORE.INTER.CONST>
1

>  <SCORE.INTER.POLAR>
0

>  <SCORE.INTER.ROT>
0

>  <SCORE.INTER.SOLV>
3.44687

>  <SCORE.INTER.VDW>
-20.3586

>  <SCORE.INTER.norm>
-2.34145

>  <SCORE.INTRA>
0

>  <SCORE.INTRA.DIHEDRAL>
0

>  <SCORE.INTRA.DIHEDRAL.0>
0

>  <SCORE.INTRA.POLAR>
0

>  <SCORE.INTRA.POLAR.0>
0

>  <SCORE.INTRA.REPUL>
0

>  <SCORE.INTRA.REPUL.0>
0

>  <SCORE.INTRA.SOLV>
0

>  <SCORE.INTRA.SOLV.lig_0>
-4.1818

>  <SCORE.INTRA.VDW>
0

>  <SCORE.INTRA.VDW.0>
0

>  <SCORE.INTRA.norm>
0

>  <SCORE.RESTR>
0

>  <SCORE.RESTR.CAVITY>
0

>  <SCORE.RESTR.norm>
0

>  <SCORE.SYSTEM>
0

>  <SCORE.SYSTEM.CONST>
0

>  <SCORE.SYSTEM.DIHEDRAL>
0

>  <SCORE.SYSTEM.SOLV>
0

>  <SCORE.SYSTEM.norm>
0

>  <SCORE.heavy>
10

>  <SCORE.norm>
-2.34145

>  <RMSD>
3.095

$$$$
ligand
 OpenBabel11021811503D
libRbt.so/2013.1/901 2013/11/27
 10 11  0  0  0  0  0  0  0  0999 V2000
   17.4151   -1.7069    3.2770 N   0  0  0  0  0  0  0  0  0  0  0  0
   16.4797   -2.4394    3.8522 C   0  0  0  0  0  0  0  0  0  0  0  0
   16.6065   -3.8325    3.8527 N   0  0  0  0  0  0  0  0  0  0  0  0
   17.6618   -4.4073    3.2595 C   0  0  0  0  0  0  0  0  0  0  0  0
   18.5987   -3.6637    2.6759 C   0  0  0  0  0  0  0  0  0  0  0  0
   18.5119   -2.3356    2.6778 C   0  0  0  0  0  0  0  0  0  0  0  0
   19.3927   -1.6490    2.1625 O   0  0  0  0  0  0  0  0  0  0  0  0
   19.4765   -4.4872    2.1097 N   0  0  0  0  0  0  0  0  0  0  0  0
   19.0885   -5.7365    2.3459 C   0  0  0  0  0  0  0  0  0  0  0  0
   17.9702   -5.6852    3.0639 N   0  0  0  0  0  0  0  0  0  0  0  0
  1  2  1  0  0  0  0
  1  6  1  0  0  0  0
  2  3  2  0  0  0  0
  3  4  1  0  0  0  0
  4  5  2  0  0  0  0
  4 10  1  0  0  0  0
  5  6  1  0  0  0  0
  5  8  1  0  0  0  0
  6  7  2  0  0  0  0
  8  9  1  0  0  0  0
  9 10  2  0  0  0  0
M  END
>  <CHROM.1>
18.14330036,-3.55575033,2.91355213,1.83958369,0.53681610,-0.01725968

>  <Name>
ligand

>  <RI>
0

>  <Rbt.Current_Directory>
/home/itssahil/PROJECTS/Mol_Feturizer/New_Systems/rnas/4NYD

>  <Rbt.Executable>
rbdock ($Id: //depot/dev/client3/rdock/2013.1/src/exe/rbdock.cxx#4 $)

>  <Rbt.Library>
libRbt.so (2013.1, Build901 2013/11/27)

>  <Rbt.Parameter_File>
/export/apps/rDock/src/rDock_2013.1_src/data/scripts/dock_solv.prm

>  <Rbt.Receptor>
prm/blind_docking_100.prm

>  <SCORE>
-23.4031

>  <SCORE.INTER>
-23.4031

>  <SCORE.INTER.CONST>
1

>  <SCORE.INTER.POLAR>
0

>  <SCORE.INTER.ROT>
0

>  <SCORE.INTER.SOLV>
3.44501

>  <SCORE.INTER.VDW>
-20.3504

>  <SCORE.INTER.norm>
-2.34031

>  <SCORE.INTRA>
0

>  <SCORE.INTRA.DIHEDRAL>
0

>  <SCORE.INTRA.DIHEDRAL.0>
0

>  <SCORE.INTRA.POLAR>
0

>  <SCORE.INTRA.POLAR.0>
0

>  <SCORE.INTRA.REPUL>
0

>  <SCORE.INTRA.REPUL.0>
0

>  <SCORE.INTRA.SOLV>
0

>  <SCORE.INTRA.SOLV.lig_0>
-4.1818

>  <SCORE.INTRA.VDW>
0

>  <SCORE.INTRA.VDW.0>
0

>  <SCORE.INTRA.norm>
0

>  <SCORE.RESTR>
0

>  <SCORE.RESTR.CAVITY>
0

>  <SCORE.RESTR.norm>
0

>  <SCORE.SYSTEM>
0

>  <SCORE.SYSTEM.CONST>
0

>  <SCORE.SYSTEM.DIHEDRAL>
0

>  <SCORE.SYSTEM.SOLV>
0

>  <SCORE.SYSTEM.norm>
0

>  <SCORE.heavy>
10

>  <SCORE.norm>
-2.34031

>  <RMSD>
3.096

$$$$
ligand
 OpenBabel11021811503D
libRbt.so/2013.1/901 2013/11/27
 10 11  0  0  0  0  0  0  0  0999 V2000
   17.4002   -1.7364    3.2914 N   0  0  0  0  0  0  0  0  0  0  0  0
   16.4930   -2.4921    3.8816 C   0  0  0  0  0  0  0  0  0  0  0  0
   16.6493   -3.8822    3.8705 N   0  0  0  0  0  0  0  0  0  0  0  0
   17.7037   -4.4308    3.2513 C   0  0  0  0  0  0  0  0  0  0  0  0
   18.6119   -3.6639    2.6527 C   0  0  0  0  0  0  0  0  0  0  0  0
   18.4970   -2.3380    2.6650 C   0  0  0  0  0  0  0  0  0  0  0  0
   19.3518   -1.6298    2.1354 O   0  0  0  0  0  0  0  0  0  0  0  0
   19.4946   -4.4652    2.0627 N   0  0  0  0  0  0  0  0  0  0  0  0
   19.1383   -5.7238    2.2991 C   0  0  0  0  0  0  0  0  0  0  0  0
   18.0347   -5.7006    3.0411 N   0  0  0  0  0  0  0  0  0  0  0  0
  1  2  1  0  0  0  0
  1  6  1  0  0  0  0
  2  3  2  0  0  0  0
  3  4  1  0  0  0  0
  4  5  2  0  0  0  0
  4 10  1  0  0  0  0
  5  6  1  0  0  0  0
  5  8  1  0  0  0  0
  6  7  2  0  0  0  0
  8  9  1  0  0  0  0
  9 10  2  0  0  0  0
M  END
>  <CHROM.1>
18.15946062,-3.56711710,2.90068922,1.86499336,0.55770533,-0.02430862

>  <Name>
ligand

>  <RI>
0

>  <Rbt.Current_Directory>
/home/itssahil/PROJECTS/Mol_Feturizer/New_Systems/rnas/4NYD

>  <Rbt.Executable>
rbdock ($Id: //depot/dev/client3/rdock/2013.1/src/exe/rbdock.cxx#4 $)

>  <Rbt.Library>
libRbt.so (2013.1, Build901 2013/11/27)

>  <Rbt.Parameter_File>
/export/apps/rDock/src/rDock_2013.1_src/data/scripts/dock_solv.prm

>  <Rbt.Receptor>
prm/blind_docking_40.prm

>  <SCORE>
-23.4091

>  <SCORE.INTER>
-23.4091

>  <SCORE.INTER.CONST>
1

>  <SCORE.INTER.POLAR>
0

>  <SCORE.INTER.ROT>
0

>  <SCORE.INTER.SOLV>
3.43769

>  <SCORE.INTER.VDW>
-20.352

>  <SCORE.INTER.norm>
-2.34091

>  <SCORE.INTRA>
0

>  <SCORE.INTRA.DIHEDRAL>
0

>  <SCORE.INTRA.DIHEDRAL.0>
0

>  <SCORE.INTRA.POLAR>
0

>  <SCORE.INTRA.POLAR.0>
0

>  <SCORE.INTRA.REPUL>
0

>  <SCORE.INTRA.REPUL.0>
0

>  <SCORE.INTRA.SOLV>
0

>  <SCORE.INTRA.SOLV.lig_0>
-4.1818

>  <SCORE.INTRA.VDW>
0

>  <SCORE.INTRA.VDW.0>
0

>  <SCORE.INTRA.norm>
0

>  <SCORE.RESTR>
0

>  <SCORE.RESTR.CAVITY>
0

>  <SCORE.RESTR.norm>
0

>  <SCORE.SYSTEM>
0

>  <SCORE.SYSTEM.CONST>
0

>  <SCORE.SYSTEM.DIHEDRAL>
0

>  <SCORE.SYSTEM.SOLV>
0

>  <SCORE.SYSTEM.norm>
0

>  <SCORE.heavy>
10

>  <SCORE.norm>
-2.34091

>  <RMSD>
3.096

$$$$
ligand
 OpenBabel11021811503D
libRbt.so/2013.1/901 2013/11/27
 10 11  0  0  0  0  0  0  0  0999 V2000
   17.3991   -1.7379    3.2873 N   0  0  0  0  0  0  0  0  0  0  0  0
   16.4928   -2.4928    3.8799 C   0  0  0  0  0  0  0  0  0  0  0  0
   16.6522   -3.8826    3.8755 N   0  0  0  0  0  0  0  0  0  0  0  0
   17.7086   -4.4317    3.2602 C   0  0  0  0  0  0  0  0  0  0  0  0
   18.6159   -3.6656    2.6592 C   0  0  0  0  0  0  0  0  0  0  0  0
   18.4981   -2.3399    2.6651 C   0  0  0  0  0  0  0  0  0  0  0  0
   19.3520   -1.6323    2.1334 O   0  0  0  0  0  0  0  0  0  0  0  0
   19.5012   -4.4676    2.0741 N   0  0  0  0  0  0  0  0  0  0  0  0
   19.1473   -5.7260    2.3158 C   0  0  0  0  0  0  0  0  0  0  0  0
   18.0427   -5.7018    3.0563 N   0  0  0  0  0  0  0  0  0  0  0  0
  1  2  1  0  0  0  0
  1  6  1  0  0  0  0
  2  3  2  0  0  0  0
  3  4  1  0  0  0  0
  4  5  2  0  0  0  0
  4 10  1  0  0  0  0
  5  6  1  0  0  0  0
  5  8  1  0  0  0  0
  6  7  2  0  0  0  0
  8  9  1  0  0  0  0
  9 10  2  0  0  0  0
M  END
>  <CHROM.1>
18.16290772,-3.56869994,2.90611371,1.86756917,0.55634656,-0.03031224

>  <Name>
ligand

>  <RI>
0

>  <Rbt.Current_Directory>
/home/itssahil/PROJECTS/Mol_Feturizer/New_Systems/rnas/4NYD

>  <Rbt.Executable>
rbdock ($Id: //depot/dev/client3/rdock/2013.1/src/exe/rbdock.cxx#4 $)

>  <Rbt.Library>
libRbt.so (2013.1, Build901 2013/11/27)

>  <Rbt.Parameter_File>
/export/apps/rDock/src/rDock_2013.1_src/data/scripts/dock_solv.prm

>  <Rbt.Receptor>
prm/blind_docking_60.prm

>  <SCORE>
-23.4051

>  <SCORE.INTER>
-23.4051

>  <SCORE.INTER.CONST>
1

>  <SCORE.INTER.POLAR>
0

>  <SCORE.INTER.ROT>
0

>  <SCORE.INTER.SOLV>
3.432

>  <SCORE.INTER.VDW>
-20.3474

>  <SCORE.INTER.norm>
-2.34051

>  <SCORE.INTRA>
0

>  <SCORE.INTRA.DIHEDRAL>
0

>  <SCORE.INTRA.DIHEDRAL.0>
0

>  <SCORE.INTRA.POLAR>
0

>  <SCORE.INTRA.POLAR.0>
0

>  <SCORE.INTRA.REPUL>
0

>  <SCORE.INTRA.REPUL.0>
0

>  <SCORE.INTRA.SOLV>
0

>  <SCORE.INTRA.SOLV.lig_0>
-4.1818

>  <SCORE.INTRA.VDW>
0

>  <SCORE.INTRA.VDW.0>
0

>  <SCORE.INTRA.norm>
0

>  <SCORE.RESTR>
0

>  <SCORE.RESTR.CAVITY>
0

>  <SCORE.RESTR.norm>
0

>  <SCORE.SYSTEM>
0

>  <SCORE.SYSTEM.CONST>
0

>  <SCORE.SYSTEM.DIHEDRAL>
0

>  <SCORE.SYSTEM.SOLV>
0

>  <SCORE.SYSTEM.norm>
0

>  <SCORE.heavy>
10

>  <SCORE.norm>
-2.34051

>  <RMSD>
3.096

$$$$
ligand
 OpenBabel11021811503D
libRbt.so/2013.1/901 2013/11/27
 10 11  0  0  0  0  0  0  0  0999 V2000
   17.4019   -1.7027    3.2786 N   0  0  0  0  0  0  0  0  0  0  0  0
   16.4697   -2.4408    3.8518 C   0  0  0  0  0  0  0  0  0  0  0  0
   16.6059   -3.8331    3.8544 N   0  0  0  0  0  0  0  0  0  0  0  0
   17.6670   -4.4014    3.2652 C   0  0  0  0  0  0  0  0  0  0  0  0
   18.6006   -3.6521    2.6835 C   0  0  0  0  0  0  0  0  0  0  0  0
   18.5048   -2.3246    2.6835 C   0  0  0  0  0  0  0  0  0  0  0  0
   19.3825   -1.6328    2.1701 O   0  0  0  0  0  0  0  0  0  0  0  0
   19.4858   -4.4704    2.1211 N   0  0  0  0  0  0  0  0  0  0  0  0
   19.1055   -5.7220    2.3577 C   0  0  0  0  0  0  0  0  0  0  0  0
   17.9846   -5.6774    3.0722 N   0  0  0  0  0  0  0  0  0  0  0  0
  1  2  1  0  0  0  0
  1  6  1  0  0  0  0
  2  3  2  0  0  0  0
  3  4  1  0  0  0  0
  4  5  2  0  0  0  0
  4 10  1  0  0  0  0
  5  6  1  0  0  0  0
  5  8  1  0  0  0  0
  6  7  2  0  0  0  0
  8  9  1  0  0  0  0
  9 10  2  0  0  0  0
M  END
>  <CHROM.1>
18.14374398,-3.54699224,2.91968129,1.84741845,0.53359607,-0.02250069

>  <Name>
ligand

>  <RI>
0

>  <Rbt.Current_Directory>
/home/itssahil/PROJECTS/Mol_Feturizer/New_Systems/rnas/4NYD

>  <Rbt.Executable>
rbdock ($Id: //depot/dev/client3/rdock/2013.1/src/exe/rbdock.cxx#4 $)

>  <Rbt.Library>
libRbt.so (2013.1, Build901 2013/11/27)

>  <Rbt.Parameter_File>
/export/apps/rDock/src/rDock_2013.1_src/data/scripts/dock_solv.prm

>  <Rbt.Receptor>
prm/pocket_docking_4.prm

>  <SCORE>
-23.4042

>  <SCORE.INTER>
-23.4042

>  <SCORE.INTER.CONST>
1

>  <SCORE.INTER.POLAR>
0

>  <SCORE.INTER.ROT>
0

>  <SCORE.INTER.SOLV>
3.44025

>  <SCORE.INTER.VDW>
-20.3495

>  <SCORE.INTER.norm>
-2.34042

>  <SCORE.INTRA>
0

>  <SCORE.INTRA.DIHEDRAL>
0

>  <SCORE.INTRA.DIHEDRAL.0>
0

>  <SCORE.INTRA.POLAR>
0

>  <SCORE.INTRA.POLAR.0>
0

>  <SCORE.INTRA.REPUL>
0

>  <SCORE.INTRA.REPUL.0>
0

>  <SCORE.INTRA.SOLV>
0

>  <SCORE.INTRA.SOLV.lig_0>
-4.1818

>  <SCORE.INTRA.VDW>
0

>  <SCORE.INTRA.VDW.0>
0

>  <SCORE.INTRA.norm>
0

>  <SCORE.RESTR>
0

>  <SCORE.RESTR.CAVITY>
0

>  <SCORE.RESTR.norm>
0

>  <SCORE.SYSTEM>
0

>  <SCORE.SYSTEM.CONST>
0

>  <SCORE.SYSTEM.DIHEDRAL>
0

>  <SCORE.SYSTEM.SOLV>
0

>  <SCORE.SYSTEM.norm>
0

>  <SCORE.heavy>
10

>  <SCORE.norm>
-2.34042

>  <RMSD>
3.096

$$$$
ligand
 OpenBabel11021811503D
libRbt.so/2013.1/901 2013/11/27
 10 11  0  0  0  0  0  0  0  0999 V2000
   17.4066   -1.7099    3.2968 N   0  0  0  0  0  0  0  0  0  0  0  0
   16.4727   -2.4515    3.8626 C   0  0  0  0  0  0  0  0  0  0  0  0
   16.5997   -3.8444    3.8411 N   0  0  0  0  0  0  0  0  0  0  0  0
   17.6538   -4.4096    3.2365 C   0  0  0  0  0  0  0  0  0  0  0  0
   18.5892   -3.6568    2.6624 C   0  0  0  0  0  0  0  0  0  0  0  0
   18.5022   -2.3289    2.6853 C   0  0  0  0  0  0  0  0  0  0  0  0
   19.3816   -1.6342    2.1787 O   0  0  0  0  0  0  0  0  0  0  0  0
   19.4658   -4.4712    2.0813 N   0  0  0  0  0  0  0  0  0  0  0  0
   19.0785   -5.7242    2.2989 C   0  0  0  0  0  0  0  0  0  0  0  0
   17.9618   -5.6843    3.0202 N   0  0  0  0  0  0  0  0  0  0  0  0
  1  2  1  0  0  0  0
  1  6  1  0  0  0  0
  2  3  2  0  0  0  0
  3  4  1  0  0  0  0
  4  5  2  0  0  0  0
  4 10  1  0  0  0  0
  5  6  1  0  0  0  0
  5  8  1  0  0  0  0
  6  7  2  0  0  0  0
  8  9  1  0  0  0  0
  9 10  2  0  0  0  0
M  END
>  <CHROM.1>
18.13428366,-3.55270265,2.90275890,1.83982017,0.53916179,-0.00174610

>  <Name>
ligand

>  <RI>
0

>  <Rbt.Current_Directory>
/home/itssahil/PROJECTS/Mol_Feturizer/New_Systems/rnas/4NYD

>  <Rbt.Executable>
rbdock ($Id: //depot/dev/client3/rdock/2013.1/src/exe/rbdock.cxx#4 $)

>  <Rbt.Library>
libRbt.so (2013.1, Build901 2013/11/27)

>  <Rbt.Parameter_File>
/export/apps/rDock/src/rDock_2013.1_src/data/scripts/dock_solv.prm

>  <Rbt.Receptor>
prm/pocket_docking_8.prm

>  <SCORE>
-23.4345

>  <SCORE.INTER>
-23.4345

>  <SCORE.INTER.CONST>
1

>  <SCORE.INTER.POLAR>
0

>  <SCORE.INTER.ROT>
0

>  <SCORE.INTER.SOLV>
3.46393

>  <SCORE.INTER.VDW>
-20.3776

>  <SCORE.INTER.norm>
-2.34345

>  <SCORE.INTRA>
0

>  <SCORE.INTRA.DIHEDRAL>
0

>  <SCORE.INTRA.DIHEDRAL.0>
0

>  <SCORE.INTRA.POLAR>
0

>  <SCORE.INTRA.POLAR.0>
0

>  <SCORE.INTRA.REPUL>
0

>  <SCORE.INTRA.REPUL.0>
0

>  <SCORE.INTRA.SOLV>
0

>  <SCORE.INTRA.SOLV.lig_0>
-4.1818

>  <SCORE.INTRA.VDW>
0

>  <SCORE.INTRA.VDW.0>
0

>  <SCORE.INTRA.norm>
0

>  <SCORE.RESTR>
0

>  <SCORE.RESTR.CAVITY>
0

>  <SCORE.RESTR.norm>
0

>  <SCORE.SYSTEM>
0

>  <SCORE.SYSTEM.CONST>
0

>  <SCORE.SYSTEM.DIHEDRAL>
0

>  <SCORE.SYSTEM.SOLV>
0

>  <SCORE.SYSTEM.norm>
0

>  <SCORE.heavy>
10

>  <SCORE.norm>
-2.34345

>  <RMSD>
3.096

$$$$
ligand
 OpenBabel11021811503D
libRbt.so/2013.1/901 2013/11/27
 10 11  0  0  0  0  0  0  0  0999 V2000
   17.4372   -1.6965    3.2912 N   0  0  0  0  0  0  0  0  0  0  0  0
   16.4947   -2.4154    3.8719 C   0  0  0  0  0  0  0  0  0  0  0  0
   16.5989   -3.8104    3.8676 N   0  0  0  0  0  0  0  0  0  0  0  0
   17.6400   -4.4005    3.2642 C   0  0  0  0  0  0  0  0  0  0  0  0
   18.5841   -3.6704    2.6750 C   0  0  0  0  0  0  0  0  0  0  0  0
   18.5188   -2.3411    2.6814 C   0  0  0  0  0  0  0  0  0  0  0  0
   19.4064   -1.6674    2.1608 O   0  0  0  0  0  0  0  0  0  0  0  0
   19.4438   -4.5064    2.0995 N   0  0  0  0  0  0  0  0  0  0  0  0
   19.0376   -5.7499    2.3354 C   0  0  0  0  0  0  0  0  0  0  0  0
   17.9260   -5.6826    3.0626 N   0  0  0  0  0  0  0  0  0  0  0  0
  1  2  1  0  0  0  0
  1  6  1  0  0  0  0
  2  3  2  0  0  0  0
  3  4  1  0  0  0  0
  4  5  2  0  0  0  0
  4 10  1  0  0  0  0
  5  6  1  0  0  0  0
  5  8  1  0  0  0  0
  6  7  2  0  0  0  0
  8  9  1  0  0  0  0
  9 10  2  0  0  0  0
M  END
>  <CHROM.1>
18.13238951,-3.55581730,2.91671838,1.82080634,0.54509895,-0.00474549

>  <Name>
ligand

>  <RI>
0

>  <Rbt.Current_Directory>
/home/itssahil/PROJECTS/Mol_Feturizer/New_Systems/rnas/4NYD

>  <Rbt.Executable>
rbdock ($Id: //depot/dev/client3/rdock/2013.1/src/exe/rbdock.cxx#4 $)

>  <Rbt.Library>
libRbt.so (2013.1, Build901 2013/11/27)

>  <Rbt.Parameter_File>
/export/apps/rDock/src/rDock_2013.1_src/data/scripts/dock_solv.prm

>  <Rbt.Receptor>
prm/pocket_docking_4.prm

>  <SCORE>
-23.4165

>  <SCORE.INTER>
-23.4165

>  <SCORE.INTER.CONST>
1

>  <SCORE.INTER.POLAR>
0

>  <SCORE.INTER.ROT>
0

>  <SCORE.INTER.SOLV>
3.46912

>  <SCORE.INTER.VDW>
-20.3674

>  <SCORE.INTER.norm>
-2.34165

>  <SCORE.INTRA>
0

>  <SCORE.INTRA.DIHEDRAL>
0

>  <SCORE.INTRA.DIHEDRAL.0>
0

>  <SCORE.INTRA.POLAR>
0

>  <SCORE.INTRA.POLAR.0>
0

>  <SCORE.INTRA.REPUL>
0

>  <SCORE.INTRA.REPUL.0>
0

>  <SCORE.INTRA.SOLV>
0

>  <SCORE.INTRA.SOLV.lig_0>
-4.1818

>  <SCORE.INTRA.VDW>
0

>  <SCORE.INTRA.VDW.0>
0

>  <SCORE.INTRA.norm>
0

>  <SCORE.RESTR>
0

>  <SCORE.RESTR.CAVITY>
0

>  <SCORE.RESTR.norm>
0

>  <SCORE.SYSTEM>
0

>  <SCORE.SYSTEM.CONST>
0

>  <SCORE.SYSTEM.DIHEDRAL>
0

>  <SCORE.SYSTEM.SOLV>
0

>  <SCORE.SYSTEM.norm>
0

>  <SCORE.heavy>
10

>  <SCORE.norm>
-2.34165

>  <RMSD>
3.097

$$$$
ligand
 OpenBabel11021811503D
libRbt.so/2013.1/901 2013/11/27
 10 11  0  0  0  0  0  0  0  0999 V2000
   17.3840   -1.7088    3.2602 N   0  0  0  0  0  0  0  0  0  0  0  0
   16.4600   -2.4499    3.8427 C   0  0  0  0  0  0  0  0  0  0  0  0
   16.6061   -3.8411    3.8533 N   0  0  0  0  0  0  0  0  0  0  0  0
   17.6681   -4.4056    3.2620 C   0  0  0  0  0  0  0  0  0  0  0  0
   18.5934   -3.6534    2.6710 C   0  0  0  0  0  0  0  0  0  0  0  0
   18.4883   -2.3267    2.6633 C   0  0  0  0  0  0  0  0  0  0  0  0
   19.3584   -1.6319    2.1411 O   0  0  0  0  0  0  0  0  0  0  0  0
   19.4814   -4.4689    2.1090 N   0  0  0  0  0  0  0  0  0  0  0  0
   19.1112   -5.7217    2.3552 C   0  0  0  0  0  0  0  0  0  0  0  0
   17.9937   -5.6805    3.0752 N   0  0  0  0  0  0  0  0  0  0  0  0
  1  2  1  0  0  0  0
  1  6  1  0  0  0  0
  2  3  2  0  0  0  0
  3  4  1  0  0  0  0
  4  5  2  0  0  0  0
  4 10  1  0  0  0  0
  5  6  1  0  0  0  0
  5  8  1  0  0  0  0
  6  7  2  0  0  0  0
  8  9  1  0  0  0  0
  9 10  2  0  0  0  0
M  END
>  <CHROM.1>
18.13704178,-3.55007366,2.90881429,1.85575992,0.53855297,-0.03292011

>  <Name>
ligand

>  <RI>
0

>  <Rbt.Current_Directory>
/home/itssahil/PROJECTS/Mol_Feturizer/New_Systems/rnas/4NYD

>  <Rbt.Executable>
rbdock ($Id: //depot/dev/client3/rdock/2013.1/src/exe/rbdock.cxx#4 $)

>  <Rbt.Library>
libRbt.so (2013.1, Build901 2013/11/27)

>  <Rbt.Parameter_File>
/export/apps/rDock/src/rDock_2013.1_src/data/scripts/dock_solv.prm

>  <Rbt.Receptor>
prm/pocket_docking_6.prm

>  <SCORE>
-23.4045

>  <SCORE.INTER>
-23.4045

>  <SCORE.INTER.CONST>
1

>  <SCORE.INTER.POLAR>
0

>  <SCORE.INTER.ROT>
0

>  <SCORE.INTER.SOLV>
3.42112

>  <SCORE.INTER.VDW>
-20.3434

>  <SCORE.INTER.norm>
-2.34045

>  <SCORE.INTRA>
0

>  <SCORE.INTRA.DIHEDRAL>
0

>  <SCORE.INTRA.DIHEDRAL.0>
0

>  <SCORE.INTRA.POLAR>
0

>  <SCORE.INTRA.POLAR.0>
0

>  <SCORE.INTRA.REPUL>
0

>  <SCORE.INTRA.REPUL.0>
0

>  <SCORE.INTRA.SOLV>
0

>  <SCORE.INTRA.SOLV.lig_0>
-4.1818

>  <SCORE.INTRA.VDW>
0

>  <SCORE.INTRA.VDW.0>
0

>  <SCORE.INTRA.norm>
0

>  <SCORE.RESTR>
0

>  <SCORE.RESTR.CAVITY>
0

>  <SCORE.RESTR.norm>
0

>  <SCORE.SYSTEM>
0

>  <SCORE.SYSTEM.CONST>
0

>  <SCORE.SYSTEM.DIHEDRAL>
0

>  <SCORE.SYSTEM.SOLV>
0

>  <SCORE.SYSTEM.norm>
0

>  <SCORE.heavy>
10

>  <SCORE.norm>
-2.34045

>  <RMSD>
3.097

$$$$
ligand
 OpenBabel11021811503D
libRbt.so/2013.1/901 2013/11/27
 10 11  0  0  0  0  0  0  0  0999 V2000
   17.3714   -1.7223    3.2500 N   0  0  0  0  0  0  0  0  0  0  0  0
   16.4511   -2.4718    3.8275 C   0  0  0  0  0  0  0  0  0  0  0  0
   16.6111   -3.8614    3.8413 N   0  0  0  0  0  0  0  0  0  0  0  0
   17.6827   -4.4160    3.2581 C   0  0  0  0  0  0  0  0  0  0  0  0
   18.6043   -3.6554    2.6720 C   0  0  0  0  0  0  0  0  0  0  0  0
   18.4858   -2.3299    2.6615 C   0  0  0  0  0  0  0  0  0  0  0  0
   19.3524   -1.6271    2.1440 O   0  0  0  0  0  0  0  0  0  0  0  0
   19.5043   -4.4628    2.1173 N   0  0  0  0  0  0  0  0  0  0  0  0
   19.1451   -5.7189    2.3631 C   0  0  0  0  0  0  0  0  0  0  0  0
   18.0224   -5.6879    3.0755 N   0  0  0  0  0  0  0  0  0  0  0  0
  1  2  1  0  0  0  0
  1  6  1  0  0  0  0
  2  3  2  0  0  0  0
  3  4  1  0  0  0  0
  4  5  2  0  0  0  0
  4 10  1  0  0  0  0
  5  6  1  0  0  0  0
  5  8  1  0  0  0  0
  6  7  2  0  0  0  0
  8  9  1  0  0  0  0
  9 10  2  0  0  0  0
M  END
>  <CHROM.1>
18.14532655,-3.55633658,2.90662898,1.86721906,0.53148140,-0.04035123

>  <Name>
ligand

>  <RI>
0

>  <Rbt.Current_Directory>
/home/itssahil/PROJECTS/Mol_Feturizer/New_Systems/rnas/4NYD

>  <Rbt.Executable>
rbdock ($Id: //depot/dev/client3/rdock/2013.1/src/exe/rbdock.cxx#4 $)

>  <Rbt.Library>
libRbt.so (2013.1, Build901 2013/11/27)

>  <Rbt.Parameter_File>
/export/apps/rDock/src/rDock_2013.1_src/data/scripts/dock_solv.prm

>  <Rbt.Receptor>
prm/pocket_docking_8.prm

>  <SCORE>
-23.3896

>  <SCORE.INTER>
-23.3896

>  <SCORE.INTER.CONST>
1

>  <SCORE.INTER.POLAR>
0

>  <SCORE.INTER.ROT>
0

>  <SCORE.INTER.SOLV>
3.40472

>  <SCORE.INTER.VDW>
-20.328

>  <SCORE.INTER.norm>
-2.33896

>  <SCORE.INTRA>
0

>  <SCORE.INTRA.DIHEDRAL>
0

>  <SCORE.INTRA.DIHEDRAL.0>
0

>  <SCORE.INTRA.POLAR>
0

>  <SCORE.INTRA.POLAR.0>
0

>  <SCORE.INTRA.REPUL>
0

>  <SCORE.INTRA.REPUL.0>
0

>  <SCORE.INTRA.SOLV>
0

>  <SCORE.INTRA.SOLV.lig_0>
-4.1818

>  <SCORE.INTRA.VDW>
0

>  <SCORE.INTRA.VDW.0>
0

>  <SCORE.INTRA.norm>
0

>  <SCORE.RESTR>
0

>  <SCORE.RESTR.CAVITY>
0

>  <SCORE.RESTR.norm>
0

>  <SCORE.SYSTEM>
0

>  <SCORE.SYSTEM.CONST>
0

>  <SCORE.SYSTEM.DIHEDRAL>
0

>  <SCORE.SYSTEM.SOLV>
0

>  <SCORE.SYSTEM.norm>
0

>  <SCORE.heavy>
10

>  <SCORE.norm>
-2.33896

>  <RMSD>
3.097

$$$$
ligand
 OpenBabel11021811503D
libRbt.so/2013.1/901 2013/11/27
 10 11  0  0  0  0  0  0  0  0999 V2000
   17.3935   -1.7028    3.2814 N   0  0  0  0  0  0  0  0  0  0  0  0
   16.4707   -2.4417    3.8687 C   0  0  0  0  0  0  0  0  0  0  0  0
   16.6026   -3.8343    3.8601 N   0  0  0  0  0  0  0  0  0  0  0  0
   17.6499   -4.4022    3.2463 C   0  0  0  0  0  0  0  0  0  0  0  0
   18.5740   -3.6522    2.6506 C   0  0  0  0  0  0  0  0  0  0  0  0
   18.4823   -2.3244    2.6606 C   0  0  0  0  0  0  0  0  0  0  0  0
   19.3517   -1.6321    2.1338 O   0  0  0  0  0  0  0  0  0  0  0  0
   19.4451   -4.4696    2.0655 N   0  0  0  0  0  0  0  0  0  0  0  0
   19.0658   -5.7215    2.3020 C   0  0  0  0  0  0  0  0  0  0  0  0
   17.9595   -5.6779    3.0392 N   0  0  0  0  0  0  0  0  0  0  0  0
  1  2  1  0  0  0  0
  1  6  1  0  0  0  0
  2  3  2  0  0  0  0
  3  4  1  0  0  0  0
  4  5  2  0  0  0  0
  4 10  1  0  0  0  0
  5  6  1  0  0  0  0
  5  8  1  0  0  0  0
  6  7  2  0  0  0  0
  8  9  1  0  0  0  0
  9 10  2  0  0  0  0
M  END
>  <CHROM.1>
18.12225907,-3.54713962,2.89647161,1.84425629,0.55370693,-0.01473343

>  <Name>
ligand

>  <RI>
0

>  <Rbt.Current_Directory>
/home/itssahil/PROJECTS/Mol_Feturizer/New_Systems/rnas/4NYD

>  <Rbt.Executable>
rbdock ($Id: //depot/dev/client3/rdock/2013.1/src/exe/rbdock.cxx#4 $)

>  <Rbt.Library>
libRbt.so (2013.1, Build901 2013/11/27)

>  <Rbt.Parameter_File>
/export/apps/rDock/src/rDock_2013.1_src/data/scripts/dock_solv.prm

>  <Rbt.Receptor>
prm/pocket_docking_8.prm

>  <SCORE>
-23.405

>  <SCORE.INTER>
-23.405

>  <SCORE.INTER.CONST>
1

>  <SCORE.INTER.POLAR>
0

>  <SCORE.INTER.ROT>
0

>  <SCORE.INTER.SOLV>
3.44797

>  <SCORE.INTER.VDW>
-20.3527

>  <SCORE.INTER.norm>
-2.3405

>  <SCORE.INTRA>
0

>  <SCORE.INTRA.DIHEDRAL>
0

>  <SCORE.INTRA.DIHEDRAL.0>
0

>  <SCORE.INTRA.POLAR>
0

>  <SCORE.INTRA.POLAR.0>
0

>  <SCORE.INTRA.REPUL>
0

>  <SCORE.INTRA.REPUL.0>
0

>  <SCORE.INTRA.SOLV>
0

>  <SCORE.INTRA.SOLV.lig_0>
-4.1818

>  <SCORE.INTRA.VDW>
0

>  <SCORE.INTRA.VDW.0>
0

>  <SCORE.INTRA.norm>
0

>  <SCORE.RESTR>
0

>  <SCORE.RESTR.CAVITY>
0

>  <SCORE.RESTR.norm>
0

>  <SCORE.SYSTEM>
0

>  <SCORE.SYSTEM.CONST>
0

>  <SCORE.SYSTEM.DIHEDRAL>
0

>  <SCORE.SYSTEM.SOLV>
0

>  <SCORE.SYSTEM.norm>
0

>  <SCORE.heavy>
10

>  <SCORE.norm>
-2.3405

>  <RMSD>
3.098

$$$$
ligand
 OpenBabel11021811503D
libRbt.so/2013.1/901 2013/11/27
 10 11  0  0  0  0  0  0  0  0999 V2000
   17.3842   -1.7113    3.2728 N   0  0  0  0  0  0  0  0  0  0  0  0
   16.4647   -2.4543    3.8602 C   0  0  0  0  0  0  0  0  0  0  0  0
   16.6041   -3.8462    3.8535 N   0  0  0  0  0  0  0  0  0  0  0  0
   17.6550   -4.4093    3.2414 C   0  0  0  0  0  0  0  0  0  0  0  0
   18.5757   -3.6551    2.6456 C   0  0  0  0  0  0  0  0  0  0  0  0
   18.4769   -2.3279    2.6539 C   0  0  0  0  0  0  0  0  0  0  0  0
   19.3431   -1.6315    2.1270 O   0  0  0  0  0  0  0  0  0  0  0  0
   19.4517   -4.4686    2.0625 N   0  0  0  0  0  0  0  0  0  0  0  0
   19.0788   -5.7222    2.3003 C   0  0  0  0  0  0  0  0  0  0  0  0
   17.9717   -5.6836    3.0362 N   0  0  0  0  0  0  0  0  0  0  0  0
  1  2  1  0  0  0  0
  1  6  1  0  0  0  0
  2  3  2  0  0  0  0
  3  4  1  0  0  0  0
  4  5  2  0  0  0  0
  4 10  1  0  0  0  0
  5  6  1  0  0  0  0
  5  8  1  0  0  0  0
  6  7  2  0  0  0  0
  8  9  1  0  0  0  0
  9 10  2  0  0  0  0
M  END
>  <CHROM.1>
18.12312546,-3.55216898,2.89096898,1.85052271,0.55264482,-0.01931780

>  <Name>
ligand

>  <RI>
0

>  <Rbt.Current_Directory>
/home/itssahil/PROJECTS/Mol_Feturizer/New_Systems/rnas/4NYD

>  <Rbt.Executable>
rbdock ($Id: //depot/dev/client3/rdock/2013.1/src/exe/rbdock.cxx#4 $)

>  <Rbt.Library>
libRbt.so (2013.1, Build901 2013/11/27)

>  <Rbt.Parameter_File>
/export/apps/rDock/src/rDock_2013.1_src/data/scripts/dock_solv.prm

>  <Rbt.Receptor>
prm/pocket_docking_6.prm

>  <SCORE>
-23.4425

>  <SCORE.INTER>
-23.4425

>  <SCORE.INTER.CONST>
1

>  <SCORE.INTER.POLAR>
0

>  <SCORE.INTER.ROT>
0

>  <SCORE.INTER.SOLV>
3.43767

>  <SCORE.INTER.VDW>
-20.3742

>  <SCORE.INTER.norm>
-2.34425

>  <SCORE.INTRA>
0

>  <SCORE.INTRA.DIHEDRAL>
0

>  <SCORE.INTRA.DIHEDRAL.0>
0

>  <SCORE.INTRA.POLAR>
0

>  <SCORE.INTRA.POLAR.0>
0

>  <SCORE.INTRA.REPUL>
0

>  <SCORE.INTRA.REPUL.0>
0

>  <SCORE.INTRA.SOLV>
0

>  <SCORE.INTRA.SOLV.lig_0>
-4.1818

>  <SCORE.INTRA.VDW>
0

>  <SCORE.INTRA.VDW.0>
0

>  <SCORE.INTRA.norm>
0

>  <SCORE.RESTR>
0

>  <SCORE.RESTR.CAVITY>
0

>  <SCORE.RESTR.norm>
0

>  <SCORE.SYSTEM>
0

>  <SCORE.SYSTEM.CONST>
0

>  <SCORE.SYSTEM.DIHEDRAL>
0

>  <SCORE.SYSTEM.SOLV>
0

>  <SCORE.SYSTEM.norm>
0

>  <SCORE.heavy>
10

>  <SCORE.norm>
-2.34425

>  <RMSD>
3.099

$$$$
ligand
 OpenBabel11021811503D
libRbt.so/2013.1/901 2013/11/27
 10 11  0  0  0  0  0  0  0  0999 V2000
   17.3811   -1.7027    3.3100 N   0  0  0  0  0  0  0  0  0  0  0  0
   16.4581   -2.4476    3.8891 C   0  0  0  0  0  0  0  0  0  0  0  0
   16.5937   -3.8398    3.8722 N   0  0  0  0  0  0  0  0  0  0  0  0
   17.6447   -4.4011    3.2587 C   0  0  0  0  0  0  0  0  0  0  0  0
   18.5691   -3.6449    2.6712 C   0  0  0  0  0  0  0  0  0  0  0  0
   18.4739   -2.3175    2.6893 C   0  0  0  0  0  0  0  0  0  0  0  0
   19.3434   -1.6195    2.1702 O   0  0  0  0  0  0  0  0  0  0  0  0
   19.4445   -4.4563    2.0842 N   0  0  0  0  0  0  0  0  0  0  0  0
   19.0675   -5.7107    2.3113 C   0  0  0  0  0  0  0  0  0  0  0  0
   17.9585   -5.6746    3.0446 N   0  0  0  0  0  0  0  0  0  0  0  0
  1  2  1  0  0  0  0
  1  6  1  0  0  0  0
  2  3  2  0  0  0  0
  3  4  1  0  0  0  0
  4  5  2  0  0  0  0
  4 10  1  0  0  0  0
  5  6  1  0  0  0  0
  5  8  1  0  0  0  0
  6  7  2  0  0  0  0
  8  9  1  0  0  0  0
  9 10  2  0  0  0  0
M  END
>  <CHROM.1>
18.11613319,-3.54257953,2.91605814,1.84727102,0.54995831,-0.00995249

>  <Name>
ligand

>  <RI>
0

>  <Rbt.Current_Directory>
/home/itssahil/PROJECTS/Mol_Feturizer/New_Systems/rnas/4NYD

>  <Rbt.Executable>
rbdock ($Id: //depot/dev/client3/rdock/2013.1/src/exe/rbdock.cxx#4 $)

>  <Rbt.Library>
libRbt.so (2013.1, Build901 2013/11/27)

>  <Rbt.Parameter_File>
/export/apps/rDock/src/rDock_2013.1_src/data/scripts/dock_solv.prm

>  <Rbt.Receptor>
prm/blind_docking_100.prm

>  <SCORE>
-23.3908

>  <SCORE.INTER>
-23.3908

>  <SCORE.INTER.CONST>
1

>  <SCORE.INTER.POLAR>
0

>  <SCORE.INTER.ROT>
0

>  <SCORE.INTER.SOLV>
3.47287

>  <SCORE.INTER.VDW>
-20.3515

>  <SCORE.INTER.norm>
-2.33908

>  <SCORE.INTRA>
0

>  <SCORE.INTRA.DIHEDRAL>
0

>  <SCORE.INTRA.DIHEDRAL.0>
0

>  <SCORE.INTRA.POLAR>
0

>  <SCORE.INTRA.POLAR.0>
0

>  <SCORE.INTRA.REPUL>
0

>  <SCORE.INTRA.REPUL.0>
0

>  <SCORE.INTRA.SOLV>
0

>  <SCORE.INTRA.SOLV.lig_0>
-4.1818

>  <SCORE.INTRA.VDW>
0

>  <SCORE.INTRA.VDW.0>
0

>  <SCORE.INTRA.norm>
0

>  <SCORE.RESTR>
0

>  <SCORE.RESTR.CAVITY>
0

>  <SCORE.RESTR.norm>
0

>  <SCORE.SYSTEM>
0

>  <SCORE.SYSTEM.CONST>
0

>  <SCORE.SYSTEM.DIHEDRAL>
0

>  <SCORE.SYSTEM.SOLV>
0

>  <SCORE.SYSTEM.norm>
0

>  <SCORE.heavy>
10

>  <SCORE.norm>
-2.33908

>  <RMSD>
3.102

$$$$
ligand
 OpenBabel11021811503D
libRbt.so/2013.1/901 2013/11/27
 10 11  0  0  0  0  0  0  0  0999 V2000
   17.3479   -1.7091    3.2415 N   0  0  0  0  0  0  0  0  0  0  0  0
   16.4441   -2.4516    3.8531 C   0  0  0  0  0  0  0  0  0  0  0  0
   16.5984   -3.8419    3.8685 N   0  0  0  0  0  0  0  0  0  0  0  0
   17.6476   -4.4042    3.2527 C   0  0  0  0  0  0  0  0  0  0  0  0
   18.5525   -3.6506    2.6325 C   0  0  0  0  0  0  0  0  0  0  0  0
   18.4394   -2.3246    2.6193 C   0  0  0  0  0  0  0  0  0  0  0  0
   19.2913   -1.6283    2.0697 O   0  0  0  0  0  0  0  0  0  0  0  0
   19.4298   -4.4647    2.0522 N   0  0  0  0  0  0  0  0  0  0  0  0
   19.0736   -5.7180    2.3160 C   0  0  0  0  0  0  0  0  0  0  0  0
   17.9754   -5.6784    3.0653 N   0  0  0  0  0  0  0  0  0  0  0  0
  1  2  1  0  0  0  0
  1  6  1  0  0  0  0
  2  3  2  0  0  0  0
  3  4  1  0  0  0  0
  4  5  2  0  0  0  0
  4 10  1  0  0  0  0
  5  6  1  0  0  0  0
  5  8  1  0  0  0  0
  6  7  2  0  0  0  0
  8  9  1  0  0  0  0
  9 10  2  0  0  0  0
M  END
>  <CHROM.1>
18.10195188,-3.54831149,2.88173900,1.86362439,0.56495234,-0.04338664

>  <Name>
ligand

>  <RI>
0

>  <Rbt.Current_Directory>
/home/itssahil/PROJECTS/Mol_Feturizer/New_Systems/rnas/4NYD

>  <Rbt.Executable>
rbdock ($Id: //depot/dev/client3/rdock/2013.1/src/exe/rbdock.cxx#4 $)

>  <Rbt.Library>
libRbt.so (2013.1, Build901 2013/11/27)

>  <Rbt.Parameter_File>
/export/apps/rDock/src/rDock_2013.1_src/data/scripts/dock_solv.prm

>  <Rbt.Receptor>
prm/pocket_docking_6.prm

>  <SCORE>
-23.395

>  <SCORE.INTER>
-23.395

>  <SCORE.INTER.CONST>
1

>  <SCORE.INTER.POLAR>
0

>  <SCORE.INTER.ROT>
0

>  <SCORE.INTER.SOLV>
3.40373

>  <SCORE.INTER.VDW>
-20.3313

>  <SCORE.INTER.norm>
-2.3395

>  <SCORE.INTRA>
0

>  <SCORE.INTRA.DIHEDRAL>
0

>  <SCORE.INTRA.DIHEDRAL.0>
0

>  <SCORE.INTRA.POLAR>
0

>  <SCORE.INTRA.POLAR.0>
0

>  <SCORE.INTRA.REPUL>
0

>  <SCORE.INTRA.REPUL.0>
0

>  <SCORE.INTRA.SOLV>
0

>  <SCORE.INTRA.SOLV.lig_0>
-4.1818

>  <SCORE.INTRA.VDW>
0

>  <SCORE.INTRA.VDW.0>
0

>  <SCORE.INTRA.norm>
0

>  <SCORE.RESTR>
0

>  <SCORE.RESTR.CAVITY>
0

>  <SCORE.RESTR.norm>
0

>  <SCORE.SYSTEM>
0

>  <SCORE.SYSTEM.CONST>
0

>  <SCORE.SYSTEM.DIHEDRAL>
0

>  <SCORE.SYSTEM.SOLV>
0

>  <SCORE.SYSTEM.norm>
0

>  <SCORE.heavy>
10

>  <SCORE.norm>
-2.3395

>  <RMSD>
3.105

$$$$
ligand
 OpenBabel11021811503D
libRbt.so/2013.1/901 2013/11/27
 10 11  0  0  0  0  0  0  0  0999 V2000
   17.2920   -1.7158    3.2551 N   0  0  0  0  0  0  0  0  0  0  0  0
   16.4067   -2.4905    3.8538 C   0  0  0  0  0  0  0  0  0  0  0  0
   16.6022   -3.8757    3.8574 N   0  0  0  0  0  0  0  0  0  0  0  0
   17.6716   -4.4008    3.2434 C   0  0  0  0  0  0  0  0  0  0  0  0
   18.5576   -3.6149    2.6362 C   0  0  0  0  0  0  0  0  0  0  0  0
   18.4052   -2.2927    2.6345 C   0  0  0  0  0  0  0  0  0  0  0  0
   19.2395   -1.5663    2.0970 O   0  0  0  0  0  0  0  0  0  0  0  0
   19.4625   -4.3971    2.0543 N   0  0  0  0  0  0  0  0  0  0  0  0
   19.1420   -5.6628    2.3042 C   0  0  0  0  0  0  0  0  0  0  0  0
   18.0384   -5.6629    3.0465 N   0  0  0  0  0  0  0  0  0  0  0  0
  1  2  1  0  0  0  0
  1  6  1  0  0  0  0
  2  3  2  0  0  0  0
  3  4  1  0  0  0  0
  4  5  2  0  0  0  0
  4 10  1  0  0  0  0
  5  6  1  0  0  0  0
  5  8  1  0  0  0  0
  6  7  2  0  0  0  0
  8  9  1  0  0  0  0
  9 10  2  0  0  0  0
M  END
>  <CHROM.1>
18.10264814,-3.52834925,2.88339626,1.89834090,0.55701471,-0.05256409

>  <Name>
ligand

>  <RI>
0

>  <Rbt.Current_Directory>
/home/itssahil/PROJECTS/Mol_Feturizer/New_Systems/rnas/4NYD

>  <Rbt.Executable>
rbdock ($Id: //depot/dev/client3/rdock/2013.1/src/exe/rbdock.cxx#4 $)

>  <Rbt.Library>
libRbt.so (2013.1, Build901 2013/11/27)

>  <Rbt.Parameter_File>
/export/apps/rDock/src/rDock_2013.1_src/data/scripts/dock_solv.prm

>  <Rbt.Receptor>
prm/pocket_docking_7.prm

>  <SCORE>
-23.3834

>  <SCORE.INTER>
-23.3834

>  <SCORE.INTER.CONST>
1

>  <SCORE.INTER.POLAR>
0

>  <SCORE.INTER.ROT>
0

>  <SCORE.INTER.SOLV>
3.3853

>  <SCORE.INTER.VDW>
-20.3174

>  <SCORE.INTER.norm>
-2.33834

>  <SCORE.INTRA>
0

>  <SCORE.INTRA.DIHEDRAL>
0

>  <SCORE.INTRA.DIHEDRAL.0>
0

>  <SCORE.INTRA.POLAR>
0

>  <SCORE.INTRA.POLAR.0>
0

>  <SCORE.INTRA.REPUL>
0

>  <SCORE.INTRA.REPUL.0>
0

>  <SCORE.INTRA.SOLV>
0

>  <SCORE.INTRA.SOLV.lig_0>
-4.1818

>  <SCORE.INTRA.VDW>
0

>  <SCORE.INTRA.VDW.0>
0

>  <SCORE.INTRA.norm>
0

>  <SCORE.RESTR>
0

>  <SCORE.RESTR.CAVITY>
0

>  <SCORE.RESTR.norm>
0

>  <SCORE.SYSTEM>
0

>  <SCORE.SYSTEM.CONST>
0

>  <SCORE.SYSTEM.DIHEDRAL>
0

>  <SCORE.SYSTEM.SOLV>
0

>  <SCORE.SYSTEM.norm>
0

>  <SCORE.heavy>
10

>  <SCORE.norm>
-2.33834

>  <RMSD>
3.105

$$$$
ligand
 OpenBabel11021811503D
libRbt.so/2013.1/901 2013/11/27
 10 11  0  0  0  0  0  0  0  0999 V2000
   17.3098   -1.7557    3.2560 N   0  0  0  0  0  0  0  0  0  0  0  0
   16.4306   -2.5282    3.8663 C   0  0  0  0  0  0  0  0  0  0  0  0
   16.6276   -3.9132    3.8753 N   0  0  0  0  0  0  0  0  0  0  0  0
   17.6921   -4.4403    3.2548 C   0  0  0  0  0  0  0  0  0  0  0  0
   18.5720   -3.6567    2.6359 C   0  0  0  0  0  0  0  0  0  0  0  0
   18.4183   -2.3347    2.6287 C   0  0  0  0  0  0  0  0  0  0  0  0
   19.2471   -1.6102    2.0803 O   0  0  0  0  0  0  0  0  0  0  0  0
   19.4727   -4.4410    2.0502 N   0  0  0  0  0  0  0  0  0  0  0  0
   19.1557   -5.7056    2.3093 C   0  0  0  0  0  0  0  0  0  0  0  0
   18.0585   -5.7031    3.0611 N   0  0  0  0  0  0  0  0  0  0  0  0
  1  2  1  0  0  0  0
  1  6  1  0  0  0  0
  2  3  2  0  0  0  0
  3  4  1  0  0  0  0
  4  5  2  0  0  0  0
  4 10  1  0  0  0  0
  5  6  1  0  0  0  0
  5  8  1  0  0  0  0
  6  7  2  0  0  0  0
  8  9  1  0  0  0  0
  9 10  2  0  0  0  0
M  END
>  <CHROM.1>
18.11914883,-3.56932045,2.88658610,1.90010004,0.56560095,-0.05861888

>  <Name>
ligand

>  <RI>
0

>  <Rbt.Current_Directory>
/home/itssahil/PROJECTS/Mol_Feturizer/New_Systems/rnas/4NYD

>  <Rbt.Executable>
rbdock ($Id: //depot/dev/client3/rdock/2013.1/src/exe/rbdock.cxx#4 $)

>  <Rbt.Library>
libRbt.so (2013.1, Build901 2013/11/27)

>  <Rbt.Parameter_File>
/export/apps/rDock/src/rDock_2013.1_src/data/scripts/dock_solv.prm

>  <Rbt.Receptor>
prm/blind_docking_80.prm

>  <SCORE>
-23.3557

>  <SCORE.INTER>
-23.3557

>  <SCORE.INTER.CONST>
1

>  <SCORE.INTER.POLAR>
0

>  <SCORE.INTER.ROT>
0

>  <SCORE.INTER.SOLV>
3.39113

>  <SCORE.INTER.VDW>
-20.3009

>  <SCORE.INTER.norm>
-2.33557

>  <SCORE.INTRA>
0

>  <SCORE.INTRA.DIHEDRAL>
0

>  <SCORE.INTRA.DIHEDRAL.0>
0

>  <SCORE.INTRA.POLAR>
0

>  <SCORE.INTRA.POLAR.0>
0

>  <SCORE.INTRA.REPUL>
0

>  <SCORE.INTRA.REPUL.0>
0

>  <SCORE.INTRA.SOLV>
0

>  <SCORE.INTRA.SOLV.lig_0>
-4.1818

>  <SCORE.INTRA.VDW>
0

>  <SCORE.INTRA.VDW.0>
0

>  <SCORE.INTRA.norm>
0

>  <SCORE.RESTR>
0

>  <SCORE.RESTR.CAVITY>
0

>  <SCORE.RESTR.norm>
0

>  <SCORE.SYSTEM>
0

>  <SCORE.SYSTEM.CONST>
0

>  <SCORE.SYSTEM.DIHEDRAL>
0

>  <SCORE.SYSTEM.SOLV>
0

>  <SCORE.SYSTEM.norm>
0

>  <SCORE.heavy>
10

>  <SCORE.norm>
-2.33557

>  <RMSD>
3.109

$$$$
ligand
 OpenBabel11021811503D
libRbt.so/2013.1/901 2013/11/27
 10 11  0  0  0  0  0  0  0  0999 V2000
   17.7922   -0.6237    2.6930 N   0  0  0  0  0  0  0  0  0  0  0  0
   16.6576   -0.7439    3.3568 C   0  0  0  0  0  0  0  0  0  0  0  0
   16.2391   -2.0129    3.7708 N   0  0  0  0  0  0  0  0  0  0  0  0
   16.9815   -3.0895    3.4780 C   0  0  0  0  0  0  0  0  0  0  0  0
   18.1216   -2.9627    2.8031 C   0  0  0  0  0  0  0  0  0  0  0  0
   18.5521   -1.7649    2.4141 C   0  0  0  0  0  0  0  0  0  0  0  0
   19.6196   -1.6466    1.8150 O   0  0  0  0  0  0  0  0  0  0  0  0
   18.6050   -4.1834    2.5896 N   0  0  0  0  0  0  0  0  0  0  0  0
   17.7708   -5.0633    3.1346 C   0  0  0  0  0  0  0  0  0  0  0  0
   16.7713   -4.3845    3.6905 N   0  0  0  0  0  0  0  0  0  0  0  0
  1  2  1  0  0  0  0
  1  6  1  0  0  0  0
  2  3  2  0  0  0  0
  3  4  1  0  0  0  0
  4  5  2  0  0  0  0
  4 10  1  0  0  0  0
  5  6  1  0  0  0  0
  5  8  1  0  0  0  0
  6  7  2  0  0  0  0
  8  9  1  0  0  0  0
  9 10  2  0  0  0  0
M  END
>  <CHROM.1>
17.74699972,-2.62659523,2.95230043,1.38231980,0.51578264,-0.09745256

>  <Name>
ligand

>  <RI>
0

>  <Rbt.Current_Directory>
/home/itssahil/PROJECTS/Mol_Feturizer/New_Systems/rnas/4NYD

>  <Rbt.Executable>
rbdock ($Id: //depot/dev/client3/rdock/2013.1/src/exe/rbdock.cxx#4 $)

>  <Rbt.Library>
libRbt.so (2013.1, Build901 2013/11/27)

>  <Rbt.Parameter_File>
/export/apps/rDock/src/rDock_2013.1_src/data/scripts/dock_solv.prm

>  <Rbt.Receptor>
prm/blind_docking_40.prm

>  <SCORE>
-23.7651

>  <SCORE.INTER>
-23.7651

>  <SCORE.INTER.CONST>
1

>  <SCORE.INTER.POLAR>
0

>  <SCORE.INTER.ROT>
0

>  <SCORE.INTER.SOLV>
3.41073

>  <SCORE.INTER.VDW>
-20.5803

>  <SCORE.INTER.norm>
-2.37651

>  <SCORE.INTRA>
0

>  <SCORE.INTRA.DIHEDRAL>
0

>  <SCORE.INTRA.DIHEDRAL.0>
0

>  <SCORE.INTRA.POLAR>
0

>  <SCORE.INTRA.POLAR.0>
0

>  <SCORE.INTRA.REPUL>
0

>  <SCORE.INTRA.REPUL.0>
0

>  <SCORE.INTRA.SOLV>
0

>  <SCORE.INTRA.SOLV.lig_0>
-4.1818

>  <SCORE.INTRA.VDW>
0

>  <SCORE.INTRA.VDW.0>
0

>  <SCORE.INTRA.norm>
0

>  <SCORE.RESTR>
0

>  <SCORE.RESTR.CAVITY>
0

>  <SCORE.RESTR.norm>
0

>  <SCORE.SYSTEM>
0

>  <SCORE.SYSTEM.CONST>
0

>  <SCORE.SYSTEM.DIHEDRAL>
0

>  <SCORE.SYSTEM.SOLV>
0

>  <SCORE.SYSTEM.norm>
0

>  <SCORE.heavy>
10

>  <SCORE.norm>
-2.37651

>  <RMSD>
3.111

$$$$
ligand
 OpenBabel11021811503D
libRbt.so/2013.1/901 2013/11/27
 10 11  0  0  0  0  0  0  0  0999 V2000
   17.6567   -0.7661    2.8248 N   0  0  0  0  0  0  0  0  0  0  0  0
   16.5695   -0.9884    3.5396 C   0  0  0  0  0  0  0  0  0  0  0  0
   16.2689   -2.2952    3.9382 N   0  0  0  0  0  0  0  0  0  0  0  0
   17.0742   -3.3047    3.5797 C   0  0  0  0  0  0  0  0  0  0  0  0
   18.1659   -3.0751    2.8538 C   0  0  0  0  0  0  0  0  0  0  0  0
   18.4849   -1.8389    2.4777 C   0  0  0  0  0  0  0  0  0  0  0  0
   19.5089   -1.6251    1.8308 O   0  0  0  0  0  0  0  0  0  0  0  0
   18.7281   -4.2498    2.5833 N   0  0  0  0  0  0  0  0  0  0  0  0
   17.9911   -5.2037    3.1437 C   0  0  0  0  0  0  0  0  0  0  0  0
   16.9729   -4.6166    3.7663 N   0  0  0  0  0  0  0  0  0  0  0  0
  1  2  1  0  0  0  0
  1  6  1  0  0  0  0
  2  3  2  0  0  0  0
  3  4  1  0  0  0  0
  4  5  2  0  0  0  0
  4 10  1  0  0  0  0
  5  6  1  0  0  0  0
  5  8  1  0  0  0  0
  6  7  2  0  0  0  0
  8  9  1  0  0  0  0
  9 10  2  0  0  0  0
M  END
>  <CHROM.1>
17.77517414,-2.77221294,3.03040915,1.47629281,0.55710999,-0.11963009

>  <Name>
ligand

>  <RI>
0

>  <Rbt.Current_Directory>
/home/itssahil/PROJECTS/Mol_Feturizer/New_Systems/rnas/4NYD

>  <Rbt.Executable>
rbdock ($Id: //depot/dev/client3/rdock/2013.1/src/exe/rbdock.cxx#4 $)

>  <Rbt.Library>
libRbt.so (2013.1, Build901 2013/11/27)

>  <Rbt.Parameter_File>
/export/apps/rDock/src/rDock_2013.1_src/data/scripts/dock_solv.prm

>  <Rbt.Receptor>
prm/blind_docking_60.prm

>  <SCORE>
-23.7788

>  <SCORE.INTER>
-23.7788

>  <SCORE.INTER.CONST>
1

>  <SCORE.INTER.POLAR>
0

>  <SCORE.INTER.ROT>
0

>  <SCORE.INTER.SOLV>
3.47437

>  <SCORE.INTER.VDW>
-20.6106

>  <SCORE.INTER.norm>
-2.37788

>  <SCORE.INTRA>
0

>  <SCORE.INTRA.DIHEDRAL>
0

>  <SCORE.INTRA.DIHEDRAL.0>
0

>  <SCORE.INTRA.POLAR>
0

>  <SCORE.INTRA.POLAR.0>
0

>  <SCORE.INTRA.REPUL>
0

>  <SCORE.INTRA.REPUL.0>
0

>  <SCORE.INTRA.SOLV>
0

>  <SCORE.INTRA.SOLV.lig_0>
-4.1818

>  <SCORE.INTRA.VDW>
0

>  <SCORE.INTRA.VDW.0>
0

>  <SCORE.INTRA.norm>
0

>  <SCORE.RESTR>
0

>  <SCORE.RESTR.CAVITY>
0

>  <SCORE.RESTR.norm>
0

>  <SCORE.SYSTEM>
0

>  <SCORE.SYSTEM.CONST>
0

>  <SCORE.SYSTEM.DIHEDRAL>
0

>  <SCORE.SYSTEM.SOLV>
0

>  <SCORE.SYSTEM.norm>
0

>  <SCORE.heavy>
10

>  <SCORE.norm>
-2.37788

>  <RMSD>
3.120

$$$$
ligand
 OpenBabel11021811503D
libRbt.so/2013.1/901 2013/11/27
 10 11  0  0  0  0  0  0  0  0999 V2000
   17.7100   -0.6949    2.7430 N   0  0  0  0  0  0  0  0  0  0  0  0
   16.6125   -0.8591    3.4577 C   0  0  0  0  0  0  0  0  0  0  0  0
   16.2616   -2.1438    3.8859 N   0  0  0  0  0  0  0  0  0  0  0  0
   17.0299   -3.1910    3.5555 C   0  0  0  0  0  0  0  0  0  0  0  0
   18.1322   -3.0199    2.8296 C   0  0  0  0  0  0  0  0  0  0  0  0
   18.4988   -1.8059    2.4256 C   0  0  0  0  0  0  0  0  0  0  0  0
   19.5325   -1.6461    1.7786 O   0  0  0  0  0  0  0  0  0  0  0  0
   18.6510   -4.2210    2.5898 N   0  0  0  0  0  0  0  0  0  0  0  0
   17.8766   -5.1329    3.1693 C   0  0  0  0  0  0  0  0  0  0  0  0
   16.8787   -4.4934    3.7728 N   0  0  0  0  0  0  0  0  0  0  0  0
  1  2  1  0  0  0  0
  1  6  1  0  0  0  0
  2  3  2  0  0  0  0
  3  4  1  0  0  0  0
  4  5  2  0  0  0  0
  4 10  1  0  0  0  0
  5  6  1  0  0  0  0
  5  8  1  0  0  0  0
  6  7  2  0  0  0  0
  8  9  1  0  0  0  0
  9 10  2  0  0  0  0
M  END
>  <CHROM.1>
17.75242250,-2.69844677,2.99699255,1.43186240,0.55729883,-0.12008194

>  <Name>
ligand

>  <RI>
0

>  <Rbt.Current_Directory>
/home/itssahil/PROJECTS/Mol_Feturizer/New_Systems/rnas/4NYD

>  <Rbt.Executable>
rbdock ($Id: //depot/dev/client3/rdock/2013.1/src/exe/rbdock.cxx#4 $)

>  <Rbt.Library>
libRbt.so (2013.1, Build901 2013/11/27)

>  <Rbt.Parameter_File>
/export/apps/rDock/src/rDock_2013.1_src/data/scripts/dock_solv.prm

>  <Rbt.Receptor>
prm/pocket_docking_5.prm

>  <SCORE>
-23.7761

>  <SCORE.INTER>
-23.7761

>  <SCORE.INTER.CONST>
1

>  <SCORE.INTER.POLAR>
0

>  <SCORE.INTER.ROT>
0

>  <SCORE.INTER.SOLV>
3.4473

>  <SCORE.INTER.VDW>
-20.5998

>  <SCORE.INTER.norm>
-2.37761

>  <SCORE.INTRA>
0

>  <SCORE.INTRA.DIHEDRAL>
0

>  <SCORE.INTRA.DIHEDRAL.0>
0

>  <SCORE.INTRA.POLAR>
0

>  <SCORE.INTRA.POLAR.0>
0

>  <SCORE.INTRA.REPUL>
0

>  <SCORE.INTRA.REPUL.0>
0

>  <SCORE.INTRA.SOLV>
0

>  <SCORE.INTRA.SOLV.lig_0>
-4.1818

>  <SCORE.INTRA.VDW>
0

>  <SCORE.INTRA.VDW.0>
0

>  <SCORE.INTRA.norm>
0

>  <SCORE.RESTR>
0

>  <SCORE.RESTR.CAVITY>
0

>  <SCORE.RESTR.norm>
0

>  <SCORE.SYSTEM>
0

>  <SCORE.SYSTEM.CONST>
0

>  <SCORE.SYSTEM.DIHEDRAL>
0

>  <SCORE.SYSTEM.SOLV>
0

>  <SCORE.SYSTEM.norm>
0

>  <SCORE.heavy>
10

>  <SCORE.norm>
-2.37761

>  <RMSD>
3.120

$$$$
ligand
 OpenBabel11021811503D
libRbt.so/2013.1/901 2013/11/27
 10 11  0  0  0  0  0  0  0  0999 V2000
   17.7151   -0.7416    2.8378 N   0  0  0  0  0  0  0  0  0  0  0  0
   16.6027   -0.9274    3.5237 C   0  0  0  0  0  0  0  0  0  0  0  0
   16.2467   -2.2237    3.9105 N   0  0  0  0  0  0  0  0  0  0  0  0
   17.0254   -3.2599    3.5698 C   0  0  0  0  0  0  0  0  0  0  0  0
   18.1427   -3.0669    2.8729 C   0  0  0  0  0  0  0  0  0  0  0  0
   18.5142   -1.8418    2.5089 C   0  0  0  0  0  0  0  0  0  0  0  0
   19.5613   -1.6624    1.8891 O   0  0  0  0  0  0  0  0  0  0  0  0
   18.6705   -4.2600    2.6133 N   0  0  0  0  0  0  0  0  0  0  0  0
   17.8866   -5.1887    3.1517 C   0  0  0  0  0  0  0  0  0  0  0  0
   16.8737   -4.5679    3.7497 N   0  0  0  0  0  0  0  0  0  0  0  0
  1  2  1  0  0  0  0
  1  6  1  0  0  0  0
  2  3  2  0  0  0  0
  3  4  1  0  0  0  0
  4  5  2  0  0  0  0
  4 10  1  0  0  0  0
  5  6  1  0  0  0  0
  5  8  1  0  0  0  0
  6  7  2  0  0  0  0
  8  9  1  0  0  0  0
  9 10  2  0  0  0  0
M  END
>  <CHROM.1>
17.75836288,-2.75098634,3.04029049,1.43254989,0.53521522,-0.09432308

>  <Name>
ligand

>  <RI>
0

>  <Rbt.Current_Directory>
/home/itssahil/PROJECTS/Mol_Feturizer/New_Systems/rnas/4NYD

>  <Rbt.Executable>
rbdock ($Id: //depot/dev/client3/rdock/2013.1/src/exe/rbdock.cxx#4 $)

>  <Rbt.Library>
libRbt.so (2013.1, Build901 2013/11/27)

>  <Rbt.Parameter_File>
/export/apps/rDock/src/rDock_2013.1_src/data/scripts/dock_solv.prm

>  <Rbt.Receptor>
prm/pocket_docking_5.prm

>  <SCORE>
-23.7879

>  <SCORE.INTER>
-23.7879

>  <SCORE.INTER.CONST>
1

>  <SCORE.INTER.POLAR>
0

>  <SCORE.INTER.ROT>
0

>  <SCORE.INTER.SOLV>
3.49904

>  <SCORE.INTER.VDW>
-20.6249

>  <SCORE.INTER.norm>
-2.37879

>  <SCORE.INTRA>
0

>  <SCORE.INTRA.DIHEDRAL>
0

>  <SCORE.INTRA.DIHEDRAL.0>
0

>  <SCORE.INTRA.POLAR>
0

>  <SCORE.INTRA.POLAR.0>
0

>  <SCORE.INTRA.REPUL>
0

>  <SCORE.INTRA.REPUL.0>
0

>  <SCORE.INTRA.SOLV>
0

>  <SCORE.INTRA.SOLV.lig_0>
-4.1818

>  <SCORE.INTRA.VDW>
0

>  <SCORE.INTRA.VDW.0>
0

>  <SCORE.INTRA.norm>
0

>  <SCORE.RESTR>
0

>  <SCORE.RESTR.CAVITY>
0

>  <SCORE.RESTR.norm>
0

>  <SCORE.SYSTEM>
0

>  <SCORE.SYSTEM.CONST>
0

>  <SCORE.SYSTEM.DIHEDRAL>
0

>  <SCORE.SYSTEM.SOLV>
0

>  <SCORE.SYSTEM.norm>
0

>  <SCORE.heavy>
10

>  <SCORE.norm>
-2.37879

>  <RMSD>
3.121

$$$$
ligand
 OpenBabel11021811503D
libRbt.so/2013.1/901 2013/11/27
 10 11  0  0  0  0  0  0  0  0999 V2000
   17.7054   -0.6938    2.7624 N   0  0  0  0  0  0  0  0  0  0  0  0
   16.6063   -0.8631    3.4735 C   0  0  0  0  0  0  0  0  0  0  0  0
   16.2568   -2.1501    3.8957 N   0  0  0  0  0  0  0  0  0  0  0  0
   17.0280   -3.1945    3.5631 C   0  0  0  0  0  0  0  0  0  0  0  0
   18.1318   -3.0184    2.8407 C   0  0  0  0  0  0  0  0  0  0  0  0
   18.4972   -1.8021    2.4426 C   0  0  0  0  0  0  0  0  0  0  0  0
   19.5323   -1.6377    1.7989 O   0  0  0  0  0  0  0  0  0  0  0  0
   18.6536   -4.2175    2.5975 N   0  0  0  0  0  0  0  0  0  0  0  0
   17.8794   -5.1332    3.1714 C   0  0  0  0  0  0  0  0  0  0  0  0
   16.8787   -4.4980    3.7748 N   0  0  0  0  0  0  0  0  0  0  0  0
  1  2  1  0  0  0  0
  1  6  1  0  0  0  0
  2  3  2  0  0  0  0
  3  4  1  0  0  0  0
  4  5  2  0  0  0  0
  4 10  1  0  0  0  0
  5  6  1  0  0  0  0
  5  8  1  0  0  0  0
  6  7  2  0  0  0  0
  8  9  1  0  0  0  0
  9 10  2  0  0  0  0
M  END
>  <CHROM.1>
17.75100680,-2.69835236,3.00844982,1.43376456,0.55446180,-0.11710292

>  <Name>
ligand

>  <RI>
0

>  <Rbt.Current_Directory>
/home/itssahil/PROJECTS/Mol_Feturizer/New_Systems/rnas/4NYD

>  <Rbt.Executable>
rbdock ($Id: //depot/dev/client3/rdock/2013.1/src/exe/rbdock.cxx#4 $)

>  <Rbt.Library>
libRbt.so (2013.1, Build901 2013/11/27)

>  <Rbt.Parameter_File>
/export/apps/rDock/src/rDock_2013.1_src/data/scripts/dock_solv.prm

>  <Rbt.Receptor>
prm/blind_docking_60.prm

>  <SCORE>
-23.7782

>  <SCORE.INTER>
-23.7782

>  <SCORE.INTER.CONST>
1

>  <SCORE.INTER.POLAR>
0

>  <SCORE.INTER.ROT>
0

>  <SCORE.INTER.SOLV>
3.45686

>  <SCORE.INTER.VDW>
-20.6044

>  <SCORE.INTER.norm>
-2.37782

>  <SCORE.INTRA>
0

>  <SCORE.INTRA.DIHEDRAL>
0

>  <SCORE.INTRA.DIHEDRAL.0>
0

>  <SCORE.INTRA.POLAR>
0

>  <SCORE.INTRA.POLAR.0>
0

>  <SCORE.INTRA.REPUL>
0

>  <SCORE.INTRA.REPUL.0>
0

>  <SCORE.INTRA.SOLV>
0

>  <SCORE.INTRA.SOLV.lig_0>
-4.1818

>  <SCORE.INTRA.VDW>
0

>  <SCORE.INTRA.VDW.0>
0

>  <SCORE.INTRA.norm>
0

>  <SCORE.RESTR>
0

>  <SCORE.RESTR.CAVITY>
0

>  <SCORE.RESTR.norm>
0

>  <SCORE.SYSTEM>
0

>  <SCORE.SYSTEM.CONST>
0

>  <SCORE.SYSTEM.DIHEDRAL>
0

>  <SCORE.SYSTEM.SOLV>
0

>  <SCORE.SYSTEM.norm>
0

>  <SCORE.heavy>
10

>  <SCORE.norm>
-2.37782

>  <RMSD>
3.122

$$$$
ligand
 OpenBabel11021811503D
libRbt.so/2013.1/901 2013/11/27
 10 11  0  0  0  0  0  0  0  0999 V2000
   17.6660   -0.7255    2.7863 N   0  0  0  0  0  0  0  0  0  0  0  0
   16.5732   -0.9276    3.4984 C   0  0  0  0  0  0  0  0  0  0  0  0
   16.2549   -2.2267    3.9082 N   0  0  0  0  0  0  0  0  0  0  0  0
   17.0493   -3.2494    3.5629 C   0  0  0  0  0  0  0  0  0  0  0  0
   18.1467   -3.0401    2.8395 C   0  0  0  0  0  0  0  0  0  0  0  0
   18.4825   -1.8116    2.4530 C   0  0  0  0  0  0  0  0  0  0  0  0
   19.5116   -1.6166    1.8084 O   0  0  0  0  0  0  0  0  0  0  0  0
   18.6956   -4.2242    2.5826 N   0  0  0  0  0  0  0  0  0  0  0  0
   17.9446   -5.1636    3.1490 C   0  0  0  0  0  0  0  0  0  0  0  0
   16.9311   -4.5582    3.7616 N   0  0  0  0  0  0  0  0  0  0  0  0
  1  2  1  0  0  0  0
  1  6  1  0  0  0  0
  2  3  2  0  0  0  0
  3  4  1  0  0  0  0
  4  5  2  0  0  0  0
  4 10  1  0  0  0  0
  5  6  1  0  0  0  0
  5  8  1  0  0  0  0
  6  7  2  0  0  0  0
  8  9  1  0  0  0  0
  9 10  2  0  0  0  0
M  END
>  <CHROM.1>
17.75902424,-2.73083649,3.01153957,1.46138257,0.55437924,-0.12135459

>  <Name>
ligand

>  <RI>
0

>  <Rbt.Current_Directory>
/home/itssahil/PROJECTS/Mol_Feturizer/New_Systems/rnas/4NYD

>  <Rbt.Executable>
rbdock ($Id: //depot/dev/client3/rdock/2013.1/src/exe/rbdock.cxx#4 $)

>  <Rbt.Library>
libRbt.so (2013.1, Build901 2013/11/27)

>  <Rbt.Parameter_File>
/export/apps/rDock/src/rDock_2013.1_src/data/scripts/dock_solv.prm

>  <Rbt.Receptor>
prm/blind_docking_80.prm

>  <SCORE>
-23.7758

>  <SCORE.INTER>
-23.7758

>  <SCORE.INTER.CONST>
1

>  <SCORE.INTER.POLAR>
0

>  <SCORE.INTER.ROT>
0

>  <SCORE.INTER.SOLV>
3.4508

>  <SCORE.INTER.VDW>
-20.6008

>  <SCORE.INTER.norm>
-2.37758

>  <SCORE.INTRA>
0

>  <SCORE.INTRA.DIHEDRAL>
0

>  <SCORE.INTRA.DIHEDRAL.0>
0

>  <SCORE.INTRA.POLAR>
0

>  <SCORE.INTRA.POLAR.0>
0

>  <SCORE.INTRA.REPUL>
0

>  <SCORE.INTRA.REPUL.0>
0

>  <SCORE.INTRA.SOLV>
0

>  <SCORE.INTRA.SOLV.lig_0>
-4.1818

>  <SCORE.INTRA.VDW>
0

>  <SCORE.INTRA.VDW.0>
0

>  <SCORE.INTRA.norm>
0

>  <SCORE.RESTR>
0

>  <SCORE.RESTR.CAVITY>
0

>  <SCORE.RESTR.norm>
0

>  <SCORE.SYSTEM>
0

>  <SCORE.SYSTEM.CONST>
0

>  <SCORE.SYSTEM.DIHEDRAL>
0

>  <SCORE.SYSTEM.SOLV>
0

>  <SCORE.SYSTEM.norm>
0

>  <SCORE.heavy>
10

>  <SCORE.norm>
-2.37758

>  <RMSD>
3.122

$$$$
ligand
 OpenBabel11021811503D
libRbt.so/2013.1/901 2013/11/27
 10 11  0  0  0  0  0  0  0  0999 V2000
   17.7072   -0.6925    2.7665 N   0  0  0  0  0  0  0  0  0  0  0  0
   16.6068   -0.8619    3.4756 C   0  0  0  0  0  0  0  0  0  0  0  0
   16.2560   -2.1492    3.8959 N   0  0  0  0  0  0  0  0  0  0  0  0
   17.0272   -3.1936    3.5636 C   0  0  0  0  0  0  0  0  0  0  0  0
   18.1324   -3.0173    2.8433 C   0  0  0  0  0  0  0  0  0  0  0  0
   18.4990   -1.8008    2.4469 C   0  0  0  0  0  0  0  0  0  0  0  0
   19.5352   -1.6363    1.8052 O   0  0  0  0  0  0  0  0  0  0  0  0
   18.6540   -4.2165    2.5998 N   0  0  0  0  0  0  0  0  0  0  0  0
   17.8784   -5.1323    3.1714 C   0  0  0  0  0  0  0  0  0  0  0  0
   16.8770   -4.4973    3.7738 N   0  0  0  0  0  0  0  0  0  0  0  0
  1  2  1  0  0  0  0
  1  6  1  0  0  0  0
  2  3  2  0  0  0  0
  3  4  1  0  0  0  0
  4  5  2  0  0  0  0
  4 10  1  0  0  0  0
  5  6  1  0  0  0  0
  5  8  1  0  0  0  0
  6  7  2  0  0  0  0
  8  9  1  0  0  0  0
  9 10  2  0  0  0  0
M  END
>  <CHROM.1>
17.75143382,-2.69727598,3.01066458,1.43299262,0.55286223,-0.11570514

>  <Name>
ligand

>  <RI>
0

>  <Rbt.Current_Directory>
/home/itssahil/PROJECTS/Mol_Feturizer/New_Systems/rnas/4NYD

>  <Rbt.Executable>
rbdock ($Id: //depot/dev/client3/rdock/2013.1/src/exe/rbdock.cxx#4 $)

>  <Rbt.Library>
libRbt.so (2013.1, Build901 2013/11/27)

>  <Rbt.Parameter_File>
/export/apps/rDock/src/rDock_2013.1_src/data/scripts/dock_solv.prm

>  <Rbt.Receptor>
prm/blind_docking_40.prm

>  <SCORE>
-23.7785

>  <SCORE.INTER>
-23.7785

>  <SCORE.INTER.CONST>
1

>  <SCORE.INTER.POLAR>
0

>  <SCORE.INTER.ROT>
0

>  <SCORE.INTER.SOLV>
3.45884

>  <SCORE.INTER.VDW>
-20.6053

>  <SCORE.INTER.norm>
-2.37785

>  <SCORE.INTRA>
0

>  <SCORE.INTRA.DIHEDRAL>
0

>  <SCORE.INTRA.DIHEDRAL.0>
0

>  <SCORE.INTRA.POLAR>
0

>  <SCORE.INTRA.POLAR.0>
0

>  <SCORE.INTRA.REPUL>
0

>  <SCORE.INTRA.REPUL.0>
0

>  <SCORE.INTRA.SOLV>
0

>  <SCORE.INTRA.SOLV.lig_0>
-4.1818

>  <SCORE.INTRA.VDW>
0

>  <SCORE.INTRA.VDW.0>
0

>  <SCORE.INTRA.norm>
0

>  <SCORE.RESTR>
0

>  <SCORE.RESTR.CAVITY>
0

>  <SCORE.RESTR.norm>
0

>  <SCORE.SYSTEM>
0

>  <SCORE.SYSTEM.CONST>
0

>  <SCORE.SYSTEM.DIHEDRAL>
0

>  <SCORE.SYSTEM.SOLV>
0

>  <SCORE.SYSTEM.norm>
0

>  <SCORE.heavy>
10

>  <SCORE.norm>
-2.37785

>  <RMSD>
3.123

$$$$
ligand
 OpenBabel11021811503D
libRbt.so/2013.1/901 2013/11/27
 10 11  0  0  0  0  0  0  0  0999 V2000
   17.6920   -0.7075    2.7703 N   0  0  0  0  0  0  0  0  0  0  0  0
   16.5769   -0.8860    3.4537 C   0  0  0  0  0  0  0  0  0  0  0  0
   16.2252   -2.1767    3.8629 N   0  0  0  0  0  0  0  0  0  0  0  0
   17.0109   -3.2151    3.5457 C   0  0  0  0  0  0  0  0  0  0  0  0
   18.1309   -3.0296    2.8512 C   0  0  0  0  0  0  0  0  0  0  0  0
   18.4982   -1.8096    2.4662 C   0  0  0  0  0  0  0  0  0  0  0  0
   19.5477   -1.6366    1.8486 O   0  0  0  0  0  0  0  0  0  0  0  0
   18.6659   -4.2246    2.6167 N   0  0  0  0  0  0  0  0  0  0  0  0
   17.8838   -5.1471    3.1684 C   0  0  0  0  0  0  0  0  0  0  0  0
   16.8647   -4.5203    3.7493 N   0  0  0  0  0  0  0  0  0  0  0  0
  1  2  1  0  0  0  0
  1  6  1  0  0  0  0
  2  3  2  0  0  0  0
  3  4  1  0  0  0  0
  4  5  2  0  0  0  0
  4 10  1  0  0  0  0
  5  6  1  0  0  0  0
  5  8  1  0  0  0  0
  6  7  2  0  0  0  0
  8  9  1  0  0  0  0
  9 10  2  0  0  0  0
M  END
>  <CHROM.1>
17.74410999,-2.71251217,3.01060351,1.43766917,0.52946993,-0.11564589

>  <Name>
ligand

>  <RI>
0

>  <Rbt.Current_Directory>
/home/itssahil/PROJECTS/Mol_Feturizer/New_Systems/rnas/4NYD

>  <Rbt.Executable>
rbdock ($Id: //depot/dev/client3/rdock/2013.1/src/exe/rbdock.cxx#4 $)

>  <Rbt.Library>
libRbt.so (2013.1, Build901 2013/11/27)

>  <Rbt.Parameter_File>
/export/apps/rDock/src/rDock_2013.1_src/data/scripts/dock_solv.prm

>  <Rbt.Receptor>
prm/pocket_docking_3.prm

>  <SCORE>
-23.7709

>  <SCORE.INTER>
-23.7709

>  <SCORE.INTER.CONST>
1

>  <SCORE.INTER.POLAR>
0

>  <SCORE.INTER.ROT>
0

>  <SCORE.INTER.SOLV>
3.44578

>  <SCORE.INTER.VDW>
-20.5958

>  <SCORE.INTER.norm>
-2.37709

>  <SCORE.INTRA>
0

>  <SCORE.INTRA.DIHEDRAL>
0

>  <SCORE.INTRA.DIHEDRAL.0>
0

>  <SCORE.INTRA.POLAR>
0

>  <SCORE.INTRA.POLAR.0>
0

>  <SCORE.INTRA.REPUL>
0

>  <SCORE.INTRA.REPUL.0>
0

>  <SCORE.INTRA.SOLV>
0

>  <SCORE.INTRA.SOLV.lig_0>
-4.1818

>  <SCORE.INTRA.VDW>
0

>  <SCORE.INTRA.VDW.0>
0

>  <SCORE.INTRA.norm>
0

>  <SCORE.RESTR>
0

>  <SCORE.RESTR.CAVITY>
0

>  <SCORE.RESTR.norm>
0

>  <SCORE.SYSTEM>
0

>  <SCORE.SYSTEM.CONST>
0

>  <SCORE.SYSTEM.DIHEDRAL>
0

>  <SCORE.SYSTEM.SOLV>
0

>  <SCORE.SYSTEM.norm>
0

>  <SCORE.heavy>
10

>  <SCORE.norm>
-2.37709

>  <RMSD>
3.123

$$$$
ligand
 OpenBabel11021811503D
libRbt.so/2013.1/901 2013/11/27
 10 11  0  0  0  0  0  0  0  0999 V2000
   17.7032   -0.6928    2.7643 N   0  0  0  0  0  0  0  0  0  0  0  0
   16.6033   -0.8631    3.4738 C   0  0  0  0  0  0  0  0  0  0  0  0
   16.2531   -2.1509    3.8933 N   0  0  0  0  0  0  0  0  0  0  0  0
   17.0245   -3.1948    3.5597 C   0  0  0  0  0  0  0  0  0  0  0  0
   18.1292   -3.0175    2.8389 C   0  0  0  0  0  0  0  0  0  0  0  0
   18.4952   -1.8006    2.4433 C   0  0  0  0  0  0  0  0  0  0  0  0
   19.5310   -1.6352    1.8012 O   0  0  0  0  0  0  0  0  0  0  0  0
   18.6510   -4.2163    2.5941 N   0  0  0  0  0  0  0  0  0  0  0  0
   17.8761   -5.1329    3.1654 C   0  0  0  0  0  0  0  0  0  0  0  0
   16.8748   -4.4987    3.7689 N   0  0  0  0  0  0  0  0  0  0  0  0
  1  2  1  0  0  0  0
  1  6  1  0  0  0  0
  2  3  2  0  0  0  0
  3  4  1  0  0  0  0
  4  5  2  0  0  0  0
  4 10  1  0  0  0  0
  5  6  1  0  0  0  0
  5  8  1  0  0  0  0
  6  7  2  0  0  0  0
  8  9  1  0  0  0  0
  9 10  2  0  0  0  0
M  END
>  <CHROM.1>
17.74823861,-2.69776175,3.00676722,1.43342916,0.55337406,-0.11511878

>  <Name>
ligand

>  <RI>
0

>  <Rbt.Current_Directory>
/home/itssahil/PROJECTS/Mol_Feturizer/New_Systems/rnas/4NYD

>  <Rbt.Executable>
rbdock ($Id: //depot/dev/client3/rdock/2013.1/src/exe/rbdock.cxx#4 $)

>  <Rbt.Library>
libRbt.so (2013.1, Build901 2013/11/27)

>  <Rbt.Parameter_File>
/export/apps/rDock/src/rDock_2013.1_src/data/scripts/dock_solv.prm

>  <Rbt.Receptor>
prm/pocket_docking_4.prm

>  <SCORE>
-23.7769

>  <SCORE.INTER>
-23.7769

>  <SCORE.INTER.CONST>
1

>  <SCORE.INTER.POLAR>
0

>  <SCORE.INTER.ROT>
0

>  <SCORE.INTER.SOLV>
3.45629

>  <SCORE.INTER.VDW>
-20.6033

>  <SCORE.INTER.norm>
-2.37769

>  <SCORE.INTRA>
0

>  <SCORE.INTRA.DIHEDRAL>
0

>  <SCORE.INTRA.DIHEDRAL.0>
0

>  <SCORE.INTRA.POLAR>
0

>  <SCORE.INTRA.POLAR.0>
0

>  <SCORE.INTRA.REPUL>
0

>  <SCORE.INTRA.REPUL.0>
0

>  <SCORE.INTRA.SOLV>
0

>  <SCORE.INTRA.SOLV.lig_0>
-4.1818

>  <SCORE.INTRA.VDW>
0

>  <SCORE.INTRA.VDW.0>
0

>  <SCORE.INTRA.norm>
0

>  <SCORE.RESTR>
0

>  <SCORE.RESTR.CAVITY>
0

>  <SCORE.RESTR.norm>
0

>  <SCORE.SYSTEM>
0

>  <SCORE.SYSTEM.CONST>
0

>  <SCORE.SYSTEM.DIHEDRAL>
0

>  <SCORE.SYSTEM.SOLV>
0

>  <SCORE.SYSTEM.norm>
0

>  <SCORE.heavy>
10

>  <SCORE.norm>
-2.37769

>  <RMSD>
3.123

$$$$
ligand
 OpenBabel11021811503D
libRbt.so/2013.1/901 2013/11/27
 10 11  0  0  0  0  0  0  0  0999 V2000
   17.6960   -0.6982    2.7623 N   0  0  0  0  0  0  0  0  0  0  0  0
   16.6002   -0.8704    3.4777 C   0  0  0  0  0  0  0  0  0  0  0  0
   16.2556   -2.1584    3.9009 N   0  0  0  0  0  0  0  0  0  0  0  0
   17.0280   -3.2008    3.5649 C   0  0  0  0  0  0  0  0  0  0  0  0
   18.1286   -3.0217    2.8381 C   0  0  0  0  0  0  0  0  0  0  0  0
   18.4893   -1.8044    2.4389 C   0  0  0  0  0  0  0  0  0  0  0  0
   19.5214   -1.6372    1.7912 O   0  0  0  0  0  0  0  0  0  0  0  0
   18.6523   -4.2195    2.5924 N   0  0  0  0  0  0  0  0  0  0  0  0
   17.8827   -5.1373    3.1691 C   0  0  0  0  0  0  0  0  0  0  0  0
   16.8829   -4.5048    3.7767 N   0  0  0  0  0  0  0  0  0  0  0  0
  1  2  1  0  0  0  0
  1  6  1  0  0  0  0
  2  3  2  0  0  0  0
  3  4  1  0  0  0  0
  4  5  2  0  0  0  0
  4 10  1  0  0  0  0
  5  6  1  0  0  0  0
  5  8  1  0  0  0  0
  6  7  2  0  0  0  0
  8  9  1  0  0  0  0
  9 10  2  0  0  0  0
M  END
>  <CHROM.1>
17.74761875,-2.70268553,3.00748626,1.43722340,0.55815799,-0.11858865

>  <Name>
ligand

>  <RI>
0

>  <Rbt.Current_Directory>
/home/itssahil/PROJECTS/Mol_Feturizer/New_Systems/rnas/4NYD

>  <Rbt.Executable>
rbdock ($Id: //depot/dev/client3/rdock/2013.1/src/exe/rbdock.cxx#4 $)

>  <Rbt.Library>
libRbt.so (2013.1, Build901 2013/11/27)

>  <Rbt.Parameter_File>
/export/apps/rDock/src/rDock_2013.1_src/data/scripts/dock_solv.prm

>  <Rbt.Receptor>
prm/pocket_docking_4.prm

>  <SCORE>
-23.7763

>  <SCORE.INTER>
-23.7763

>  <SCORE.INTER.CONST>
1

>  <SCORE.INTER.POLAR>
0

>  <SCORE.INTER.ROT>
0

>  <SCORE.INTER.SOLV>
3.45647

>  <SCORE.INTER.VDW>
-20.603

>  <SCORE.INTER.norm>
-2.37763

>  <SCORE.INTRA>
0

>  <SCORE.INTRA.DIHEDRAL>
0

>  <SCORE.INTRA.DIHEDRAL.0>
0

>  <SCORE.INTRA.POLAR>
0

>  <SCORE.INTRA.POLAR.0>
0

>  <SCORE.INTRA.REPUL>
0

>  <SCORE.INTRA.REPUL.0>
0

>  <SCORE.INTRA.SOLV>
0

>  <SCORE.INTRA.SOLV.lig_0>
-4.1818

>  <SCORE.INTRA.VDW>
0

>  <SCORE.INTRA.VDW.0>
0

>  <SCORE.INTRA.norm>
0

>  <SCORE.RESTR>
0

>  <SCORE.RESTR.CAVITY>
0

>  <SCORE.RESTR.norm>
0

>  <SCORE.SYSTEM>
0

>  <SCORE.SYSTEM.CONST>
0

>  <SCORE.SYSTEM.DIHEDRAL>
0

>  <SCORE.SYSTEM.SOLV>
0

>  <SCORE.SYSTEM.norm>
0

>  <SCORE.heavy>
10

>  <SCORE.norm>
-2.37763

>  <RMSD>
3.124

$$$$
ligand
 OpenBabel11021811503D
libRbt.so/2013.1/901 2013/11/27
 10 11  0  0  0  0  0  0  0  0999 V2000
   17.7034   -0.6917    2.7674 N   0  0  0  0  0  0  0  0  0  0  0  0
   16.6044   -0.8622    3.4783 C   0  0  0  0  0  0  0  0  0  0  0  0
   16.2548   -2.1499    3.8982 N   0  0  0  0  0  0  0  0  0  0  0  0
   17.0259   -3.1938    3.5637 C   0  0  0  0  0  0  0  0  0  0  0  0
   18.1297   -3.0164    2.8415 C   0  0  0  0  0  0  0  0  0  0  0  0
   18.4951   -1.7994    2.4455 C   0  0  0  0  0  0  0  0  0  0  0  0
   19.5302   -1.6340    1.8021 O   0  0  0  0  0  0  0  0  0  0  0  0
   18.6513   -4.2152    2.5961 N   0  0  0  0  0  0  0  0  0  0  0  0
   17.8772   -5.1318    3.1683 C   0  0  0  0  0  0  0  0  0  0  0  0
   16.8765   -4.4977    3.7730 N   0  0  0  0  0  0  0  0  0  0  0  0
  1  2  1  0  0  0  0
  1  6  1  0  0  0  0
  2  3  2  0  0  0  0
  3  4  1  0  0  0  0
  4  5  2  0  0  0  0
  4 10  1  0  0  0  0
  5  6  1  0  0  0  0
  5  8  1  0  0  0  0
  6  7  2  0  0  0  0
  8  9  1  0  0  0  0
  9 10  2  0  0  0  0
M  END
>  <CHROM.1>
17.74891805,-2.69667770,3.00983963,1.43368401,0.55454706,-0.11523748

>  <Name>
ligand

>  <RI>
0

>  <Rbt.Current_Directory>
/home/itssahil/PROJECTS/Mol_Feturizer/New_Systems/rnas/4NYD

>  <Rbt.Executable>
rbdock ($Id: //depot/dev/client3/rdock/2013.1/src/exe/rbdock.cxx#4 $)

>  <Rbt.Library>
libRbt.so (2013.1, Build901 2013/11/27)

>  <Rbt.Parameter_File>
/export/apps/rDock/src/rDock_2013.1_src/data/scripts/dock_solv.prm

>  <Rbt.Receptor>
prm/pocket_docking_5.prm

>  <SCORE>
-23.7787

>  <SCORE.INTER>
-23.7787

>  <SCORE.INTER.CONST>
1

>  <SCORE.INTER.POLAR>
0

>  <SCORE.INTER.ROT>
0

>  <SCORE.INTER.SOLV>
3.45945

>  <SCORE.INTER.VDW>
-20.6056

>  <SCORE.INTER.norm>
-2.37787

>  <SCORE.INTRA>
0

>  <SCORE.INTRA.DIHEDRAL>
0

>  <SCORE.INTRA.DIHEDRAL.0>
0

>  <SCORE.INTRA.POLAR>
0

>  <SCORE.INTRA.POLAR.0>
0

>  <SCORE.INTRA.REPUL>
0

>  <SCORE.INTRA.REPUL.0>
0

>  <SCORE.INTRA.SOLV>
0

>  <SCORE.INTRA.SOLV.lig_0>
-4.1818

>  <SCORE.INTRA.VDW>
0

>  <SCORE.INTRA.VDW.0>
0

>  <SCORE.INTRA.norm>
0

>  <SCORE.RESTR>
0

>  <SCORE.RESTR.CAVITY>
0

>  <SCORE.RESTR.norm>
0

>  <SCORE.SYSTEM>
0

>  <SCORE.SYSTEM.CONST>
0

>  <SCORE.SYSTEM.DIHEDRAL>
0

>  <SCORE.SYSTEM.SOLV>
0

>  <SCORE.SYSTEM.norm>
0

>  <SCORE.heavy>
10

>  <SCORE.norm>
-2.37787

>  <RMSD>
3.124

$$$$
ligand
 OpenBabel11021811503D
libRbt.so/2013.1/901 2013/11/27
 10 11  0  0  0  0  0  0  0  0999 V2000
   17.6931   -0.6895    2.7581 N   0  0  0  0  0  0  0  0  0  0  0  0
   16.5968   -0.8613    3.4728 C   0  0  0  0  0  0  0  0  0  0  0  0
   16.2519   -2.1491    3.8966 N   0  0  0  0  0  0  0  0  0  0  0  0
   17.0248   -3.1916    3.5619 C   0  0  0  0  0  0  0  0  0  0  0  0
   18.1259   -3.0129    2.8359 C   0  0  0  0  0  0  0  0  0  0  0  0
   18.4868   -1.7958    2.4362 C   0  0  0  0  0  0  0  0  0  0  0  0
   19.5193   -1.6290    1.7891 O   0  0  0  0  0  0  0  0  0  0  0  0
   18.6499   -4.2108    2.5914 N   0  0  0  0  0  0  0  0  0  0  0  0
   17.8800   -5.1282    3.1681 C   0  0  0  0  0  0  0  0  0  0  0  0
   16.8796   -4.4955    3.7745 N   0  0  0  0  0  0  0  0  0  0  0  0
  1  2  1  0  0  0  0
  1  6  1  0  0  0  0
  2  3  2  0  0  0  0
  3  4  1  0  0  0  0
  4  5  2  0  0  0  0
  4 10  1  0  0  0  0
  5  6  1  0  0  0  0
  5  8  1  0  0  0  0
  6  7  2  0  0  0  0
  8  9  1  0  0  0  0
  9 10  2  0  0  0  0
M  END
>  <CHROM.1>
17.74475578,-2.69380405,3.00474379,1.43725057,0.55735462,-0.11927955

>  <Name>
ligand

>  <RI>
0

>  <Rbt.Current_Directory>
/home/itssahil/PROJECTS/Mol_Feturizer/New_Systems/rnas/4NYD

>  <Rbt.Executable>
rbdock ($Id: //depot/dev/client3/rdock/2013.1/src/exe/rbdock.cxx#4 $)

>  <Rbt.Library>
libRbt.so (2013.1, Build901 2013/11/27)

>  <Rbt.Parameter_File>
/export/apps/rDock/src/rDock_2013.1_src/data/scripts/dock_solv.prm

>  <Rbt.Receptor>
prm/blind_docking_80.prm

>  <SCORE>
-23.7763

>  <SCORE.INTER>
-23.7763

>  <SCORE.INTER.CONST>
1

>  <SCORE.INTER.POLAR>
0

>  <SCORE.INTER.ROT>
0

>  <SCORE.INTER.SOLV>
3.45368

>  <SCORE.INTER.VDW>
-20.6021

>  <SCORE.INTER.norm>
-2.37763

>  <SCORE.INTRA>
0

>  <SCORE.INTRA.DIHEDRAL>
0

>  <SCORE.INTRA.DIHEDRAL.0>
0

>  <SCORE.INTRA.POLAR>
0

>  <SCORE.INTRA.POLAR.0>
0

>  <SCORE.INTRA.REPUL>
0

>  <SCORE.INTRA.REPUL.0>
0

>  <SCORE.INTRA.SOLV>
0

>  <SCORE.INTRA.SOLV.lig_0>
-4.1818

>  <SCORE.INTRA.VDW>
0

>  <SCORE.INTRA.VDW.0>
0

>  <SCORE.INTRA.norm>
0

>  <SCORE.RESTR>
0

>  <SCORE.RESTR.CAVITY>
0

>  <SCORE.RESTR.norm>
0

>  <SCORE.SYSTEM>
0

>  <SCORE.SYSTEM.CONST>
0

>  <SCORE.SYSTEM.DIHEDRAL>
0

>  <SCORE.SYSTEM.SOLV>
0

>  <SCORE.SYSTEM.norm>
0

>  <SCORE.heavy>
10

>  <SCORE.norm>
-2.37763

>  <RMSD>
3.125

$$$$
ligand
 OpenBabel11021811503D
libRbt.so/2013.1/901 2013/11/27
 10 11  0  0  0  0  0  0  0  0999 V2000
   17.7012   -0.6930    2.7743 N   0  0  0  0  0  0  0  0  0  0  0  0
   16.6021   -0.8647    3.4849 C   0  0  0  0  0  0  0  0  0  0  0  0
   16.2513   -2.1536    3.9004 N   0  0  0  0  0  0  0  0  0  0  0  0
   17.0212   -3.1971    3.5621 C   0  0  0  0  0  0  0  0  0  0  0  0
   18.1250   -3.0184    2.8403 C   0  0  0  0  0  0  0  0  0  0  0  0
   18.4916   -1.8004    2.4484 C   0  0  0  0  0  0  0  0  0  0  0  0
   19.5266   -1.6339    1.8052 O   0  0  0  0  0  0  0  0  0  0  0  0
   18.6453   -4.2168    2.5906 N   0  0  0  0  0  0  0  0  0  0  0  0
   17.8704   -5.1346    3.1599 C   0  0  0  0  0  0  0  0  0  0  0  0
   16.8706   -4.5015    3.7670 N   0  0  0  0  0  0  0  0  0  0  0  0
  1  2  1  0  0  0  0
  1  6  1  0  0  0  0
  2  3  2  0  0  0  0
  3  4  1  0  0  0  0
  4  5  2  0  0  0  0
  4 10  1  0  0  0  0
  5  6  1  0  0  0  0
  5  8  1  0  0  0  0
  6  7  2  0  0  0  0
  8  9  1  0  0  0  0
  9 10  2  0  0  0  0
M  END
>  <CHROM.1>
17.74462861,-2.69883586,3.00978640,1.43249674,0.55494629,-0.11117517

>  <Name>
ligand

>  <RI>
0

>  <Rbt.Current_Directory>
/home/itssahil/PROJECTS/Mol_Feturizer/New_Systems/rnas/4NYD

>  <Rbt.Executable>
rbdock ($Id: //depot/dev/client3/rdock/2013.1/src/exe/rbdock.cxx#4 $)

>  <Rbt.Library>
libRbt.so (2013.1, Build901 2013/11/27)

>  <Rbt.Parameter_File>
/export/apps/rDock/src/rDock_2013.1_src/data/scripts/dock_solv.prm

>  <Rbt.Receptor>
prm/pocket_docking_3.prm

>  <SCORE>
-23.7763

>  <SCORE.INTER>
-23.7763

>  <SCORE.INTER.CONST>
1

>  <SCORE.INTER.POLAR>
0

>  <SCORE.INTER.ROT>
0

>  <SCORE.INTER.SOLV>
3.46269

>  <SCORE.INTER.VDW>
-20.6051

>  <SCORE.INTER.norm>
-2.37763

>  <SCORE.INTRA>
0

>  <SCORE.INTRA.DIHEDRAL>
0

>  <SCORE.INTRA.DIHEDRAL.0>
0

>  <SCORE.INTRA.POLAR>
0

>  <SCORE.INTRA.POLAR.0>
0

>  <SCORE.INTRA.REPUL>
0

>  <SCORE.INTRA.REPUL.0>
0

>  <SCORE.INTRA.SOLV>
0

>  <SCORE.INTRA.SOLV.lig_0>
-4.1818

>  <SCORE.INTRA.VDW>
0

>  <SCORE.INTRA.VDW.0>
0

>  <SCORE.INTRA.norm>
0

>  <SCORE.RESTR>
0

>  <SCORE.RESTR.CAVITY>
0

>  <SCORE.RESTR.norm>
0

>  <SCORE.SYSTEM>
0

>  <SCORE.SYSTEM.CONST>
0

>  <SCORE.SYSTEM.DIHEDRAL>
0

>  <SCORE.SYSTEM.SOLV>
0

>  <SCORE.SYSTEM.norm>
0

>  <SCORE.heavy>
10

>  <SCORE.norm>
-2.37763

>  <RMSD>
3.125

$$$$
ligand
 OpenBabel11021811503D
libRbt.so/2013.1/901 2013/11/27
 10 11  0  0  0  0  0  0  0  0999 V2000
   17.6883   -0.6661    2.6914 N   0  0  0  0  0  0  0  0  0  0  0  0
   16.5812   -0.8221    3.3931 C   0  0  0  0  0  0  0  0  0  0  0  0
   16.2280   -2.1006    3.8374 N   0  0  0  0  0  0  0  0  0  0  0  0
   17.0040   -3.1507    3.5351 C   0  0  0  0  0  0  0  0  0  0  0  0
   18.1159   -2.9880    2.8220 C   0  0  0  0  0  0  0  0  0  0  0  0
   18.4847   -1.7797    2.4034 C   0  0  0  0  0  0  0  0  0  0  0  0
   19.5270   -1.6273    1.7685 O   0  0  0  0  0  0  0  0  0  0  0  0
   18.6416   -4.1913    2.6093 N   0  0  0  0  0  0  0  0  0  0  0  0
   17.8617   -5.0960    3.1927 C   0  0  0  0  0  0  0  0  0  0  0  0
   16.8535   -4.4498    3.7715 N   0  0  0  0  0  0  0  0  0  0  0  0
  1  2  1  0  0  0  0
  1  6  1  0  0  0  0
  2  3  2  0  0  0  0
  3  4  1  0  0  0  0
  4  5  2  0  0  0  0
  4 10  1  0  0  0  0
  5  6  1  0  0  0  0
  5  8  1  0  0  0  0
  6  7  2  0  0  0  0
  8  9  1  0  0  0  0
  9 10  2  0  0  0  0
M  END
>  <CHROM.1>
17.73291189,-2.66509504,2.97878000,1.43325675,0.54290638,-0.13719507

>  <Name>
ligand

>  <RI>
0

>  <Rbt.Current_Directory>
/home/itssahil/PROJECTS/Mol_Feturizer/New_Systems/rnas/4NYD

>  <Rbt.Executable>
rbdock ($Id: //depot/dev/client3/rdock/2013.1/src/exe/rbdock.cxx#4 $)

>  <Rbt.Library>
libRbt.so (2013.1, Build901 2013/11/27)

>  <Rbt.Parameter_File>
/export/apps/rDock/src/rDock_2013.1_src/data/scripts/dock_solv.prm

>  <Rbt.Receptor>
prm/pocket_docking_5.prm

>  <SCORE>
-23.7593

>  <SCORE.INTER>
-23.7593

>  <SCORE.INTER.CONST>
1

>  <SCORE.INTER.POLAR>
0

>  <SCORE.INTER.ROT>
0

>  <SCORE.INTER.SOLV>
3.41248

>  <SCORE.INTER.VDW>
-20.577

>  <SCORE.INTER.norm>
-2.37593

>  <SCORE.INTRA>
0

>  <SCORE.INTRA.DIHEDRAL>
0

>  <SCORE.INTRA.DIHEDRAL.0>
0

>  <SCORE.INTRA.POLAR>
0

>  <SCORE.INTRA.POLAR.0>
0

>  <SCORE.INTRA.REPUL>
0

>  <SCORE.INTRA.REPUL.0>
0

>  <SCORE.INTRA.SOLV>
0

>  <SCORE.INTRA.SOLV.lig_0>
-4.1818

>  <SCORE.INTRA.VDW>
0

>  <SCORE.INTRA.VDW.0>
0

>  <SCORE.INTRA.norm>
0

>  <SCORE.RESTR>
0

>  <SCORE.RESTR.CAVITY>
0

>  <SCORE.RESTR.norm>
0

>  <SCORE.SYSTEM>
0

>  <SCORE.SYSTEM.CONST>
0

>  <SCORE.SYSTEM.DIHEDRAL>
0

>  <SCORE.SYSTEM.SOLV>
0

>  <SCORE.SYSTEM.norm>
0

>  <SCORE.heavy>
10

>  <SCORE.norm>
-2.37593

>  <RMSD>
3.125

$$$$
ligand
 OpenBabel11021811503D
libRbt.so/2013.1/901 2013/11/27
 10 11  0  0  0  0  0  0  0  0999 V2000
   17.6995   -0.6901    2.7761 N   0  0  0  0  0  0  0  0  0  0  0  0
   16.5977   -0.8641    3.4818 C   0  0  0  0  0  0  0  0  0  0  0  0
   16.2474   -2.1538    3.8952 N   0  0  0  0  0  0  0  0  0  0  0  0
   17.0206   -3.1958    3.5596 C   0  0  0  0  0  0  0  0  0  0  0  0
   18.1272   -3.0147    2.8426 C   0  0  0  0  0  0  0  0  0  0  0  0
   18.4933   -1.7959    2.4530 C   0  0  0  0  0  0  0  0  0  0  0  0
   19.5308   -1.6271    1.8144 O   0  0  0  0  0  0  0  0  0  0  0  0
   18.6507   -4.2121    2.5946 N   0  0  0  0  0  0  0  0  0  0  0  0
   17.8749   -5.1316    3.1600 C   0  0  0  0  0  0  0  0  0  0  0  0
   16.8714   -4.5006    3.7632 N   0  0  0  0  0  0  0  0  0  0  0  0
  1  2  1  0  0  0  0
  1  6  1  0  0  0  0
  2  3  2  0  0  0  0
  3  4  1  0  0  0  0
  4  5  2  0  0  0  0
  4 10  1  0  0  0  0
  5  6  1  0  0  0  0
  5  8  1  0  0  0  0
  6  7  2  0  0  0  0
  8  9  1  0  0  0  0
  9 10  2  0  0  0  0
M  END
>  <CHROM.1>
17.74547563,-2.69592306,3.01069464,1.43401618,0.55045557,-0.11143318

>  <Name>
ligand

>  <RI>
0

>  <Rbt.Current_Directory>
/home/itssahil/PROJECTS/Mol_Feturizer/New_Systems/rnas/4NYD

>  <Rbt.Executable>
rbdock ($Id: //depot/dev/client3/rdock/2013.1/src/exe/rbdock.cxx#4 $)

>  <Rbt.Library>
libRbt.so (2013.1, Build901 2013/11/27)

>  <Rbt.Parameter_File>
/export/apps/rDock/src/rDock_2013.1_src/data/scripts/dock_solv.prm

>  <Rbt.Receptor>
prm/pocket_docking_8.prm

>  <SCORE>
-23.7752

>  <SCORE.INTER>
-23.7752

>  <SCORE.INTER.CONST>
1

>  <SCORE.INTER.POLAR>
0

>  <SCORE.INTER.ROT>
0

>  <SCORE.INTER.SOLV>
3.46006

>  <SCORE.INTER.VDW>
-20.6035

>  <SCORE.INTER.norm>
-2.37752

>  <SCORE.INTRA>
0

>  <SCORE.INTRA.DIHEDRAL>
0

>  <SCORE.INTRA.DIHEDRAL.0>
0

>  <SCORE.INTRA.POLAR>
0

>  <SCORE.INTRA.POLAR.0>
0

>  <SCORE.INTRA.REPUL>
0

>  <SCORE.INTRA.REPUL.0>
0

>  <SCORE.INTRA.SOLV>
0

>  <SCORE.INTRA.SOLV.lig_0>
-4.1818

>  <SCORE.INTRA.VDW>
0

>  <SCORE.INTRA.VDW.0>
0

>  <SCORE.INTRA.norm>
0

>  <SCORE.RESTR>
0

>  <SCORE.RESTR.CAVITY>
0

>  <SCORE.RESTR.norm>
0

>  <SCORE.SYSTEM>
0

>  <SCORE.SYSTEM.CONST>
0

>  <SCORE.SYSTEM.DIHEDRAL>
0

>  <SCORE.SYSTEM.SOLV>
0

>  <SCORE.SYSTEM.norm>
0

>  <SCORE.heavy>
10

>  <SCORE.norm>
-2.37752

>  <RMSD>
3.125

$$$$
ligand
 OpenBabel11021811503D
libRbt.so/2013.1/901 2013/11/27
 10 11  0  0  0  0  0  0  0  0999 V2000
   17.6798   -0.7725    2.8833 N   0  0  0  0  0  0  0  0  0  0  0  0
   16.5790   -0.9862    3.5796 C   0  0  0  0  0  0  0  0  0  0  0  0
   16.2513   -2.2931    3.9559 N   0  0  0  0  0  0  0  0  0  0  0  0
   17.0449   -3.3109    3.5949 C   0  0  0  0  0  0  0  0  0  0  0  0
   18.1504   -3.0898    2.8876 C   0  0  0  0  0  0  0  0  0  0  0  0
   18.4951   -1.8542    2.5330 C   0  0  0  0  0  0  0  0  0  0  0  0
   19.5315   -1.6487    1.9035 O   0  0  0  0  0  0  0  0  0  0  0  0
   18.6969   -4.2700    2.6088 N   0  0  0  0  0  0  0  0  0  0  0  0
   17.9363   -5.2189    3.1456 C   0  0  0  0  0  0  0  0  0  0  0  0
   16.9192   -4.6234    3.7619 N   0  0  0  0  0  0  0  0  0  0  0  0
  1  2  1  0  0  0  0
  1  6  1  0  0  0  0
  2  3  2  0  0  0  0
  3  4  1  0  0  0  0
  4  5  2  0  0  0  0
  4 10  1  0  0  0  0
  5  6  1  0  0  0  0
  5  8  1  0  0  0  0
  6  7  2  0  0  0  0
  8  9  1  0  0  0  0
  9 10  2  0  0  0  0
M  END
>  <CHROM.1>
17.76222929,-2.78285950,3.06283613,1.45513496,0.54485648,-0.09489695

>  <Name>
ligand

>  <RI>
0

>  <Rbt.Current_Directory>
/home/itssahil/PROJECTS/Mol_Feturizer/New_Systems/rnas/4NYD

>  <Rbt.Executable>
rbdock ($Id: //depot/dev/client3/rdock/2013.1/src/exe/rbdock.cxx#4 $)

>  <Rbt.Library>
libRbt.so (2013.1, Build901 2013/11/27)

>  <Rbt.Parameter_File>
/export/apps/rDock/src/rDock_2013.1_src/data/scripts/dock_solv.prm

>  <Rbt.Receptor>
prm/blind_docking_40.prm

>  <SCORE>
-23.7551

>  <SCORE.INTER>
-23.7551

>  <SCORE.INTER.CONST>
1

>  <SCORE.INTER.POLAR>
0

>  <SCORE.INTER.ROT>
0

>  <SCORE.INTER.SOLV>
3.52649

>  <SCORE.INTER.VDW>
-20.6122

>  <SCORE.INTER.norm>
-2.37551

>  <SCORE.INTRA>
0

>  <SCORE.INTRA.DIHEDRAL>
0

>  <SCORE.INTRA.DIHEDRAL.0>
0

>  <SCORE.INTRA.POLAR>
0

>  <SCORE.INTRA.POLAR.0>
0

>  <SCORE.INTRA.REPUL>
0

>  <SCORE.INTRA.REPUL.0>
0

>  <SCORE.INTRA.SOLV>
0

>  <SCORE.INTRA.SOLV.lig_0>
-4.1818

>  <SCORE.INTRA.VDW>
0

>  <SCORE.INTRA.VDW.0>
0

>  <SCORE.INTRA.norm>
0

>  <SCORE.RESTR>
0

>  <SCORE.RESTR.CAVITY>
0

>  <SCORE.RESTR.norm>
0

>  <SCORE.SYSTEM>
0

>  <SCORE.SYSTEM.CONST>
0

>  <SCORE.SYSTEM.DIHEDRAL>
0

>  <SCORE.SYSTEM.SOLV>
0

>  <SCORE.SYSTEM.norm>
0

>  <SCORE.heavy>
10

>  <SCORE.norm>
-2.37551

>  <RMSD>
3.126

$$$$
ligand
 OpenBabel11021811503D
libRbt.so/2013.1/901 2013/11/27
 10 11  0  0  0  0  0  0  0  0999 V2000
   17.7001   -0.6870    2.7812 N   0  0  0  0  0  0  0  0  0  0  0  0
   16.5993   -0.8613    3.4885 C   0  0  0  0  0  0  0  0  0  0  0  0
   16.2499   -2.1511    3.9022 N   0  0  0  0  0  0  0  0  0  0  0  0
   17.0229   -3.1929    3.5655 C   0  0  0  0  0  0  0  0  0  0  0  0
   18.1284   -3.0115    2.8471 C   0  0  0  0  0  0  0  0  0  0  0  0
   18.4937   -1.7926    2.4570 C   0  0  0  0  0  0  0  0  0  0  0  0
   19.5303   -1.6236    1.8170 O   0  0  0  0  0  0  0  0  0  0  0  0
   18.6519   -4.2088    2.5982 N   0  0  0  0  0  0  0  0  0  0  0  0
   17.8770   -5.1285    3.1646 C   0  0  0  0  0  0  0  0  0  0  0  0
   16.8742   -4.4978    3.7692 N   0  0  0  0  0  0  0  0  0  0  0  0
  1  2  1  0  0  0  0
  1  6  1  0  0  0  0
  2  3  2  0  0  0  0
  3  4  1  0  0  0  0
  4  5  2  0  0  0  0
  4 10  1  0  0  0  0
  5  6  1  0  0  0  0
  5  8  1  0  0  0  0
  6  7  2  0  0  0  0
  8  9  1  0  0  0  0
  9 10  2  0  0  0  0
M  END
>  <CHROM.1>
17.74688948,-2.69285683,3.01567179,1.43444858,0.55179726,-0.11158695

>  <Name>
ligand

>  <RI>
0

>  <Rbt.Current_Directory>
/home/itssahil/PROJECTS/Mol_Feturizer/New_Systems/rnas/4NYD

>  <Rbt.Executable>
rbdock ($Id: //depot/dev/client3/rdock/2013.1/src/exe/rbdock.cxx#4 $)

>  <Rbt.Library>
libRbt.so (2013.1, Build901 2013/11/27)

>  <Rbt.Parameter_File>
/export/apps/rDock/src/rDock_2013.1_src/data/scripts/dock_solv.prm

>  <Rbt.Receptor>
prm/pocket_docking_8.prm

>  <SCORE>
-23.7783

>  <SCORE.INTER>
-23.7783

>  <SCORE.INTER.CONST>
1

>  <SCORE.INTER.POLAR>
0

>  <SCORE.INTER.ROT>
0

>  <SCORE.INTER.SOLV>
3.46482

>  <SCORE.INTER.VDW>
-20.6071

>  <SCORE.INTER.norm>
-2.37783

>  <SCORE.INTRA>
0

>  <SCORE.INTRA.DIHEDRAL>
0

>  <SCORE.INTRA.DIHEDRAL.0>
0

>  <SCORE.INTRA.POLAR>
0

>  <SCORE.INTRA.POLAR.0>
0

>  <SCORE.INTRA.REPUL>
0

>  <SCORE.INTRA.REPUL.0>
0

>  <SCORE.INTRA.SOLV>
0

>  <SCORE.INTRA.SOLV.lig_0>
-4.1818

>  <SCORE.INTRA.VDW>
0

>  <SCORE.INTRA.VDW.0>
0

>  <SCORE.INTRA.norm>
0

>  <SCORE.RESTR>
0

>  <SCORE.RESTR.CAVITY>
0

>  <SCORE.RESTR.norm>
0

>  <SCORE.SYSTEM>
0

>  <SCORE.SYSTEM.CONST>
0

>  <SCORE.SYSTEM.DIHEDRAL>
0

>  <SCORE.SYSTEM.SOLV>
0

>  <SCORE.SYSTEM.norm>
0

>  <SCORE.heavy>
10

>  <SCORE.norm>
-2.37783

>  <RMSD>
3.126

$$$$
ligand
 OpenBabel11021811503D
libRbt.so/2013.1/901 2013/11/27
 10 11  0  0  0  0  0  0  0  0999 V2000
   17.7368   -0.6317    2.7455 N   0  0  0  0  0  0  0  0  0  0  0  0
   16.6035   -0.7768    3.4066 C   0  0  0  0  0  0  0  0  0  0  0  0
   16.2095   -2.0554    3.8152 N   0  0  0  0  0  0  0  0  0  0  0  0
   16.9738   -3.1160    3.5199 C   0  0  0  0  0  0  0  0  0  0  0  0
   18.1124   -2.9641    2.8478 C   0  0  0  0  0  0  0  0  0  0  0  0
   18.5197   -1.7565    2.4640 C   0  0  0  0  0  0  0  0  0  0  0  0
   19.5859   -1.6148    1.8675 O   0  0  0  0  0  0  0  0  0  0  0  0
   18.6204   -4.1741    2.6308 N   0  0  0  0  0  0  0  0  0  0  0  0
   17.8028   -5.0724    3.1710 C   0  0  0  0  0  0  0  0  0  0  0  0
   16.7889   -4.4156    3.7274 N   0  0  0  0  0  0  0  0  0  0  0  0
  1  2  1  0  0  0  0
  1  6  1  0  0  0  0
  2  3  2  0  0  0  0
  3  4  1  0  0  0  0
  4  5  2  0  0  0  0
  4 10  1  0  0  0  0
  5  6  1  0  0  0  0
  5  8  1  0  0  0  0
  6  7  2  0  0  0  0
  8  9  1  0  0  0  0
  9 10  2  0  0  0  0
M  END
>  <CHROM.1>
17.73092083,-2.63600557,2.99747677,1.40479914,0.51181304,-0.10487847

>  <Name>
ligand

>  <RI>
0

>  <Rbt.Current_Directory>
/home/itssahil/PROJECTS/Mol_Feturizer/New_Systems/rnas/4NYD

>  <Rbt.Executable>
rbdock ($Id: //depot/dev/client3/rdock/2013.1/src/exe/rbdock.cxx#4 $)

>  <Rbt.Library>
libRbt.so (2013.1, Build901 2013/11/27)

>  <Rbt.Parameter_File>
/export/apps/rDock/src/rDock_2013.1_src/data/scripts/dock_solv.prm

>  <Rbt.Receptor>
prm/pocket_docking_6.prm

>  <SCORE>
-23.8216

>  <SCORE.INTER>
-23.8216

>  <SCORE.INTER.CONST>
1

>  <SCORE.INTER.POLAR>
0

>  <SCORE.INTER.ROT>
0

>  <SCORE.INTER.SOLV>
3.44553

>  <SCORE.INTER.VDW>
-20.6296

>  <SCORE.INTER.norm>
-2.38216

>  <SCORE.INTRA>
0

>  <SCORE.INTRA.DIHEDRAL>
0

>  <SCORE.INTRA.DIHEDRAL.0>
0

>  <SCORE.INTRA.POLAR>
0

>  <SCORE.INTRA.POLAR.0>
0

>  <SCORE.INTRA.REPUL>
0

>  <SCORE.INTRA.REPUL.0>
0

>  <SCORE.INTRA.SOLV>
0

>  <SCORE.INTRA.SOLV.lig_0>
-4.1818

>  <SCORE.INTRA.VDW>
0

>  <SCORE.INTRA.VDW.0>
0

>  <SCORE.INTRA.norm>
0

>  <SCORE.RESTR>
0

>  <SCORE.RESTR.CAVITY>
0

>  <SCORE.RESTR.norm>
0

>  <SCORE.SYSTEM>
0

>  <SCORE.SYSTEM.CONST>
0

>  <SCORE.SYSTEM.DIHEDRAL>
0

>  <SCORE.SYSTEM.SOLV>
0

>  <SCORE.SYSTEM.norm>
0

>  <SCORE.heavy>
10

>  <SCORE.norm>
-2.38216

>  <RMSD>
3.127

$$$$
ligand
 OpenBabel11021811503D
libRbt.so/2013.1/901 2013/11/27
 10 11  0  0  0  0  0  0  0  0999 V2000
   17.6677   -0.7307    2.7952 N   0  0  0  0  0  0  0  0  0  0  0  0
   16.5697   -0.9255    3.5013 C   0  0  0  0  0  0  0  0  0  0  0  0
   16.2403   -2.2225    3.9091 N   0  0  0  0  0  0  0  0  0  0  0  0
   17.0296   -3.2505    3.5679 C   0  0  0  0  0  0  0  0  0  0  0  0
   18.1324   -3.0486    2.8506 C   0  0  0  0  0  0  0  0  0  0  0  0
   18.4786   -1.8223    2.4662 C   0  0  0  0  0  0  0  0  0  0  0  0
   19.5126   -1.6342    1.8273 O   0  0  0  0  0  0  0  0  0  0  0  0
   18.6746   -4.2363    2.5964 N   0  0  0  0  0  0  0  0  0  0  0  0
   17.9141   -5.1706    3.1584 C   0  0  0  0  0  0  0  0  0  0  0  0
   16.9014   -4.5585    3.7656 N   0  0  0  0  0  0  0  0  0  0  0  0
  1  2  1  0  0  0  0
  1  6  1  0  0  0  0
  2  3  2  0  0  0  0
  3  4  1  0  0  0  0
  4  5  2  0  0  0  0
  4 10  1  0  0  0  0
  5  6  1  0  0  0  0
  5  8  1  0  0  0  0
  6  7  2  0  0  0  0
  8  9  1  0  0  0  0
  9 10  2  0  0  0  0
M  END
>  <CHROM.1>
17.74586847,-2.73668370,3.02053489,1.45267175,0.54973395,-0.11657170

>  <Name>
ligand

>  <RI>
0

>  <Rbt.Current_Directory>
/home/itssahil/PROJECTS/Mol_Feturizer/New_Systems/rnas/4NYD

>  <Rbt.Executable>
rbdock ($Id: //depot/dev/client3/rdock/2013.1/src/exe/rbdock.cxx#4 $)

>  <Rbt.Library>
libRbt.so (2013.1, Build901 2013/11/27)

>  <Rbt.Parameter_File>
/export/apps/rDock/src/rDock_2013.1_src/data/scripts/dock_solv.prm

>  <Rbt.Receptor>
prm/pocket_docking_6.prm

>  <SCORE>
-23.7964

>  <SCORE.INTER>
-23.7964

>  <SCORE.INTER.CONST>
1

>  <SCORE.INTER.POLAR>
0

>  <SCORE.INTER.ROT>
0

>  <SCORE.INTER.SOLV>
3.46368

>  <SCORE.INTER.VDW>
-20.6188

>  <SCORE.INTER.norm>
-2.37964

>  <SCORE.INTRA>
0

>  <SCORE.INTRA.DIHEDRAL>
0

>  <SCORE.INTRA.DIHEDRAL.0>
0

>  <SCORE.INTRA.POLAR>
0

>  <SCORE.INTRA.POLAR.0>
0

>  <SCORE.INTRA.REPUL>
0

>  <SCORE.INTRA.REPUL.0>
0

>  <SCORE.INTRA.SOLV>
0

>  <SCORE.INTRA.SOLV.lig_0>
-4.1818

>  <SCORE.INTRA.VDW>
0

>  <SCORE.INTRA.VDW.0>
0

>  <SCORE.INTRA.norm>
0

>  <SCORE.RESTR>
0

>  <SCORE.RESTR.CAVITY>
0

>  <SCORE.RESTR.norm>
0

>  <SCORE.SYSTEM>
0

>  <SCORE.SYSTEM.CONST>
0

>  <SCORE.SYSTEM.DIHEDRAL>
0

>  <SCORE.SYSTEM.SOLV>
0

>  <SCORE.SYSTEM.norm>
0

>  <SCORE.heavy>
10

>  <SCORE.norm>
-2.37964

>  <RMSD>
3.127

$$$$
ligand
 OpenBabel11021811503D
libRbt.so/2013.1/901 2013/11/27
 10 11  0  0  0  0  0  0  0  0999 V2000
   17.6910   -0.6968    2.7757 N   0  0  0  0  0  0  0  0  0  0  0  0
   16.5951   -0.8732    3.4901 C   0  0  0  0  0  0  0  0  0  0  0  0
   16.2516   -2.1635    3.9074 N   0  0  0  0  0  0  0  0  0  0  0  0
   17.0251   -3.2036    3.5670 C   0  0  0  0  0  0  0  0  0  0  0  0
   18.1257   -3.0202    2.8414 C   0  0  0  0  0  0  0  0  0  0  0  0
   18.4854   -1.8008    2.4477 C   0  0  0  0  0  0  0  0  0  0  0  0
   19.5175   -1.6299    1.8011 O   0  0  0  0  0  0  0  0  0  0  0  0
   18.6506   -4.2164    2.5906 N   0  0  0  0  0  0  0  0  0  0  0  0
   17.8817   -5.1375    3.1629 C   0  0  0  0  0  0  0  0  0  0  0  0
   16.8811   -4.5086    3.7730 N   0  0  0  0  0  0  0  0  0  0  0  0
  1  2  1  0  0  0  0
  1  6  1  0  0  0  0
  2  3  2  0  0  0  0
  3  4  1  0  0  0  0
  4  5  2  0  0  0  0
  4 10  1  0  0  0  0
  5  6  1  0  0  0  0
  5  8  1  0  0  0  0
  6  7  2  0  0  0  0
  8  9  1  0  0  0  0
  9 10  2  0  0  0  0
M  END
>  <CHROM.1>
17.74438255,-2.70233797,3.01206422,1.43826208,0.55773468,-0.11469552

>  <Name>
ligand

>  <RI>
0

>  <Rbt.Current_Directory>
/home/itssahil/PROJECTS/Mol_Feturizer/New_Systems/rnas/4NYD

>  <Rbt.Executable>
rbdock ($Id: //depot/dev/client3/rdock/2013.1/src/exe/rbdock.cxx#4 $)

>  <Rbt.Library>
libRbt.so (2013.1, Build901 2013/11/27)

>  <Rbt.Parameter_File>
/export/apps/rDock/src/rDock_2013.1_src/data/scripts/dock_solv.prm

>  <Rbt.Receptor>
prm/pocket_docking_7.prm

>  <SCORE>
-23.7765

>  <SCORE.INTER>
-23.7765

>  <SCORE.INTER.CONST>
1

>  <SCORE.INTER.POLAR>
0

>  <SCORE.INTER.ROT>
0

>  <SCORE.INTER.SOLV>
3.46227

>  <SCORE.INTER.VDW>
-20.6051

>  <SCORE.INTER.norm>
-2.37765

>  <SCORE.INTRA>
0

>  <SCORE.INTRA.DIHEDRAL>
0

>  <SCORE.INTRA.DIHEDRAL.0>
0

>  <SCORE.INTRA.POLAR>
0

>  <SCORE.INTRA.POLAR.0>
0

>  <SCORE.INTRA.REPUL>
0

>  <SCORE.INTRA.REPUL.0>
0

>  <SCORE.INTRA.SOLV>
0

>  <SCORE.INTRA.SOLV.lig_0>
-4.1818

>  <SCORE.INTRA.VDW>
0

>  <SCORE.INTRA.VDW.0>
0

>  <SCORE.INTRA.norm>
0

>  <SCORE.RESTR>
0

>  <SCORE.RESTR.CAVITY>
0

>  <SCORE.RESTR.norm>
0

>  <SCORE.SYSTEM>
0

>  <SCORE.SYSTEM.CONST>
0

>  <SCORE.SYSTEM.DIHEDRAL>
0

>  <SCORE.SYSTEM.SOLV>
0

>  <SCORE.SYSTEM.norm>
0

>  <SCORE.heavy>
10

>  <SCORE.norm>
-2.37765

>  <RMSD>
3.127

$$$$
ligand
 OpenBabel11021811503D
libRbt.so/2013.1/901 2013/11/27
 10 11  0  0  0  0  0  0  0  0999 V2000
   17.7354   -0.6363    2.7293 N   0  0  0  0  0  0  0  0  0  0  0  0
   16.6097   -0.7762    3.4043 C   0  0  0  0  0  0  0  0  0  0  0  0
   16.2173   -2.0524    3.8219 N   0  0  0  0  0  0  0  0  0  0  0  0
   16.9752   -3.1159    3.5210 C   0  0  0  0  0  0  0  0  0  0  0  0
   18.1062   -2.9692    2.8349 C   0  0  0  0  0  0  0  0  0  0  0  0
   18.5120   -1.7640    2.4423 C   0  0  0  0  0  0  0  0  0  0  0  0
   19.5713   -1.6270    1.8326 O   0  0  0  0  0  0  0  0  0  0  0  0
   18.6084   -4.1813    2.6159 N   0  0  0  0  0  0  0  0  0  0  0  0
   17.7951   -5.0757    3.1688 C   0  0  0  0  0  0  0  0  0  0  0  0
   16.7895   -4.4144    3.7350 N   0  0  0  0  0  0  0  0  0  0  0  0
  1  2  1  0  0  0  0
  1  6  1  0  0  0  0
  2  3  2  0  0  0  0
  3  4  1  0  0  0  0
  4  5  2  0  0  0  0
  4 10  1  0  0  0  0
  5  6  1  0  0  0  0
  5  8  1  0  0  0  0
  6  7  2  0  0  0  0
  8  9  1  0  0  0  0
  9 10  2  0  0  0  0
M  END
>  <CHROM.1>
17.72734256,-2.63966890,2.98799322,1.40328945,0.52394491,-0.10744291

>  <Name>
ligand

>  <RI>
0

>  <Rbt.Current_Directory>
/home/itssahil/PROJECTS/Mol_Feturizer/New_Systems/rnas/4NYD

>  <Rbt.Executable>
rbdock ($Id: //depot/dev/client3/rdock/2013.1/src/exe/rbdock.cxx#4 $)

>  <Rbt.Library>
libRbt.so (2013.1, Build901 2013/11/27)

>  <Rbt.Parameter_File>
/export/apps/rDock/src/rDock_2013.1_src/data/scripts/dock_solv.prm

>  <Rbt.Receptor>
prm/pocket_docking_8.prm

>  <SCORE>
-23.7925

>  <SCORE.INTER>
-23.7925

>  <SCORE.INTER.CONST>
1

>  <SCORE.INTER.POLAR>
0

>  <SCORE.INTER.ROT>
0

>  <SCORE.INTER.SOLV>
3.43859

>  <SCORE.INTER.VDW>
-20.6079

>  <SCORE.INTER.norm>
-2.37925

>  <SCORE.INTRA>
0

>  <SCORE.INTRA.DIHEDRAL>
0

>  <SCORE.INTRA.DIHEDRAL.0>
0

>  <SCORE.INTRA.POLAR>
0

>  <SCORE.INTRA.POLAR.0>
0

>  <SCORE.INTRA.REPUL>
0

>  <SCORE.INTRA.REPUL.0>
0

>  <SCORE.INTRA.SOLV>
0

>  <SCORE.INTRA.SOLV.lig_0>
-4.1818

>  <SCORE.INTRA.VDW>
0

>  <SCORE.INTRA.VDW.0>
0

>  <SCORE.INTRA.norm>
0

>  <SCORE.RESTR>
0

>  <SCORE.RESTR.CAVITY>
0

>  <SCORE.RESTR.norm>
0

>  <SCORE.SYSTEM>
0

>  <SCORE.SYSTEM.CONST>
0

>  <SCORE.SYSTEM.DIHEDRAL>
0

>  <SCORE.SYSTEM.SOLV>
0

>  <SCORE.SYSTEM.norm>
0

>  <SCORE.heavy>
10

>  <SCORE.norm>
-2.37925

>  <RMSD>
3.127

$$$$
ligand
 OpenBabel11021811503D
libRbt.so/2013.1/901 2013/11/27
 10 11  0  0  0  0  0  0  0  0999 V2000
   17.7335   -0.6306    2.7261 N   0  0  0  0  0  0  0  0  0  0  0  0
   16.6116   -0.7726    3.4069 C   0  0  0  0  0  0  0  0  0  0  0  0
   16.2198   -2.0504    3.8200 N   0  0  0  0  0  0  0  0  0  0  0  0
   16.9745   -3.1134    3.5092 C   0  0  0  0  0  0  0  0  0  0  0  0
   18.1017   -2.9646    2.8172 C   0  0  0  0  0  0  0  0  0  0  0  0
   18.5069   -1.7579    2.4287 C   0  0  0  0  0  0  0  0  0  0  0  0
   19.5628   -1.6192    1.8135 O   0  0  0  0  0  0  0  0  0  0  0  0
   18.6009   -4.1762    2.5890 N   0  0  0  0  0  0  0  0  0  0  0  0
   17.7895   -5.0724    3.1419 C   0  0  0  0  0  0  0  0  0  0  0  0
   16.7882   -4.4127    3.7174 N   0  0  0  0  0  0  0  0  0  0  0  0
  1  2  1  0  0  0  0
  1  6  1  0  0  0  0
  2  3  2  0  0  0  0
  3  4  1  0  0  0  0
  4  5  2  0  0  0  0
  4 10  1  0  0  0  0
  5  6  1  0  0  0  0
  5  8  1  0  0  0  0
  6  7  2  0  0  0  0
  8  9  1  0  0  0  0
  9 10  2  0  0  0  0
M  END
>  <CHROM.1>
17.72418384,-2.63536988,2.97431856,1.40239219,0.52985914,-0.10172170

>  <Name>
ligand

>  <RI>
0

>  <Rbt.Current_Directory>
/home/itssahil/PROJECTS/Mol_Feturizer/New_Systems/rnas/4NYD

>  <Rbt.Executable>
rbdock ($Id: //depot/dev/client3/rdock/2013.1/src/exe/rbdock.cxx#4 $)

>  <Rbt.Library>
libRbt.so (2013.1, Build901 2013/11/27)

>  <Rbt.Parameter_File>
/export/apps/rDock/src/rDock_2013.1_src/data/scripts/dock_solv.prm

>  <Rbt.Receptor>
prm/pocket_docking_8.prm

>  <SCORE>
-23.8161

>  <SCORE.INTER>
-23.8161

>  <SCORE.INTER.CONST>
1

>  <SCORE.INTER.POLAR>
0

>  <SCORE.INTER.ROT>
0

>  <SCORE.INTER.SOLV>
3.43483

>  <SCORE.INTER.VDW>
-20.6224

>  <SCORE.INTER.norm>
-2.38161

>  <SCORE.INTRA>
0

>  <SCORE.INTRA.DIHEDRAL>
0

>  <SCORE.INTRA.DIHEDRAL.0>
0

>  <SCORE.INTRA.POLAR>
0

>  <SCORE.INTRA.POLAR.0>
0

>  <SCORE.INTRA.REPUL>
0

>  <SCORE.INTRA.REPUL.0>
0

>  <SCORE.INTRA.SOLV>
0

>  <SCORE.INTRA.SOLV.lig_0>
-4.1818

>  <SCORE.INTRA.VDW>
0

>  <SCORE.INTRA.VDW.0>
0

>  <SCORE.INTRA.norm>
0

>  <SCORE.RESTR>
0

>  <SCORE.RESTR.CAVITY>
0

>  <SCORE.RESTR.norm>
0

>  <SCORE.SYSTEM>
0

>  <SCORE.SYSTEM.CONST>
0

>  <SCORE.SYSTEM.DIHEDRAL>
0

>  <SCORE.SYSTEM.SOLV>
0

>  <SCORE.SYSTEM.norm>
0

>  <SCORE.heavy>
10

>  <SCORE.norm>
-2.38161

>  <RMSD>
3.127

$$$$
ligand
 OpenBabel11021811503D
libRbt.so/2013.1/901 2013/11/27
 10 11  0  0  0  0  0  0  0  0999 V2000
   17.7379   -0.6514    2.7177 N   0  0  0  0  0  0  0  0  0  0  0  0
   16.6161   -0.7801    3.4012 C   0  0  0  0  0  0  0  0  0  0  0  0
   16.2149   -2.0521    3.8232 N   0  0  0  0  0  0  0  0  0  0  0  0
   16.9607   -3.1230    3.5181 C   0  0  0  0  0  0  0  0  0  0  0  0
   18.0878   -2.9876    2.8233 C   0  0  0  0  0  0  0  0  0  0  0  0
   18.5018   -1.7867    2.4262 C   0  0  0  0  0  0  0  0  0  0  0  0
   19.5578   -1.6603    1.8085 O   0  0  0  0  0  0  0  0  0  0  0  0
   18.5770   -4.2046    2.6021 N   0  0  0  0  0  0  0  0  0  0  0  0
   17.7596   -5.0907    3.1621 C   0  0  0  0  0  0  0  0  0  0  0  0
   16.7645   -4.4195    3.7350 N   0  0  0  0  0  0  0  0  0  0  0  0
  1  2  1  0  0  0  0
  1  6  1  0  0  0  0
  2  3  2  0  0  0  0
  3  4  1  0  0  0  0
  4  5  2  0  0  0  0
  4 10  1  0  0  0  0
  5  6  1  0  0  0  0
  5  8  1  0  0  0  0
  6  7  2  0  0  0  0
  8  9  1  0  0  0  0
  9 10  2  0  0  0  0
M  END
>  <CHROM.1>
17.71316923,-2.65440501,2.97886545,1.39347577,0.53234185,-0.10368251

>  <Name>
ligand

>  <RI>
0

>  <Rbt.Current_Directory>
/home/itssahil/PROJECTS/Mol_Feturizer/New_Systems/rnas/4NYD

>  <Rbt.Executable>
rbdock ($Id: //depot/dev/client3/rdock/2013.1/src/exe/rbdock.cxx#4 $)

>  <Rbt.Library>
libRbt.so (2013.1, Build901 2013/11/27)

>  <Rbt.Parameter_File>
/export/apps/rDock/src/rDock_2013.1_src/data/scripts/dock_solv.prm

>  <Rbt.Receptor>
prm/blind_docking_40.prm

>  <SCORE>
-23.7992

>  <SCORE.INTER>
-23.7992

>  <SCORE.INTER.CONST>
1

>  <SCORE.INTER.POLAR>
0

>  <SCORE.INTER.ROT>
0

>  <SCORE.INTER.SOLV>
3.44229

>  <SCORE.INTER.VDW>
-20.6136

>  <SCORE.INTER.norm>
-2.37992

>  <SCORE.INTRA>
0

>  <SCORE.INTRA.DIHEDRAL>
0

>  <SCORE.INTRA.DIHEDRAL.0>
0

>  <SCORE.INTRA.POLAR>
0

>  <SCORE.INTRA.POLAR.0>
0

>  <SCORE.INTRA.REPUL>
0

>  <SCORE.INTRA.REPUL.0>
0

>  <SCORE.INTRA.SOLV>
0

>  <SCORE.INTRA.SOLV.lig_0>
-4.1818

>  <SCORE.INTRA.VDW>
0

>  <SCORE.INTRA.VDW.0>
0

>  <SCORE.INTRA.norm>
0

>  <SCORE.RESTR>
0

>  <SCORE.RESTR.CAVITY>
0

>  <SCORE.RESTR.norm>
0

>  <SCORE.SYSTEM>
0

>  <SCORE.SYSTEM.CONST>
0

>  <SCORE.SYSTEM.DIHEDRAL>
0

>  <SCORE.SYSTEM.SOLV>
0

>  <SCORE.SYSTEM.norm>
0

>  <SCORE.heavy>
10

>  <SCORE.norm>
-2.37992

>  <RMSD>
3.128

$$$$
ligand
 OpenBabel11021811503D
libRbt.so/2013.1/901 2013/11/27
 10 11  0  0  0  0  0  0  0  0999 V2000
   17.6477   -0.6748    2.7582 N   0  0  0  0  0  0  0  0  0  0  0  0
   16.5517   -0.8813    3.4642 C   0  0  0  0  0  0  0  0  0  0  0  0
   16.2337   -2.1824    3.8678 N   0  0  0  0  0  0  0  0  0  0  0  0
   17.0316   -3.2025    3.5228 C   0  0  0  0  0  0  0  0  0  0  0  0
   18.1322   -2.9887    2.8056 C   0  0  0  0  0  0  0  0  0  0  0  0
   18.4678   -1.7583    2.4251 C   0  0  0  0  0  0  0  0  0  0  0  0
   19.4998   -1.5591    1.7864 O   0  0  0  0  0  0  0  0  0  0  0  0
   18.6844   -4.1709    2.5472 N   0  0  0  0  0  0  0  0  0  0  0  0
   17.9323   -5.1136    3.1065 C   0  0  0  0  0  0  0  0  0  0  0  0
   16.9147   -4.5121    3.7161 N   0  0  0  0  0  0  0  0  0  0  0  0
  1  2  1  0  0  0  0
  1  6  1  0  0  0  0
  2  3  2  0  0  0  0
  3  4  1  0  0  0  0
  4  5  2  0  0  0  0
  4 10  1  0  0  0  0
  5  6  1  0  0  0  0
  5  8  1  0  0  0  0
  6  7  2  0  0  0  0
  8  9  1  0  0  0  0
  9 10  2  0  0  0  0
M  END
>  <CHROM.1>
17.74314323,-2.68070838,2.97679238,1.46271685,0.54922769,-0.11847959

>  <Name>
ligand

>  <RI>
0

>  <Rbt.Current_Directory>
/home/itssahil/PROJECTS/Mol_Feturizer/New_Systems/rnas/4NYD

>  <Rbt.Executable>
rbdock ($Id: //depot/dev/client3/rdock/2013.1/src/exe/rbdock.cxx#4 $)

>  <Rbt.Library>
libRbt.so (2013.1, Build901 2013/11/27)

>  <Rbt.Parameter_File>
/export/apps/rDock/src/rDock_2013.1_src/data/scripts/dock_solv.prm

>  <Rbt.Receptor>
prm/pocket_docking_3.prm

>  <SCORE>
-23.7465

>  <SCORE.INTER>
-23.7465

>  <SCORE.INTER.CONST>
1

>  <SCORE.INTER.POLAR>
0

>  <SCORE.INTER.ROT>
0

>  <SCORE.INTER.SOLV>
3.42181

>  <SCORE.INTER.VDW>
-20.5716

>  <SCORE.INTER.norm>
-2.37465

>  <SCORE.INTRA>
0

>  <SCORE.INTRA.DIHEDRAL>
0

>  <SCORE.INTRA.DIHEDRAL.0>
0

>  <SCORE.INTRA.POLAR>
0

>  <SCORE.INTRA.POLAR.0>
0

>  <SCORE.INTRA.REPUL>
0

>  <SCORE.INTRA.REPUL.0>
0

>  <SCORE.INTRA.SOLV>
0

>  <SCORE.INTRA.SOLV.lig_0>
-4.1818

>  <SCORE.INTRA.VDW>
0

>  <SCORE.INTRA.VDW.0>
0

>  <SCORE.INTRA.norm>
0

>  <SCORE.RESTR>
0

>  <SCORE.RESTR.CAVITY>
0

>  <SCORE.RESTR.norm>
0

>  <SCORE.SYSTEM>
0

>  <SCORE.SYSTEM.CONST>
0

>  <SCORE.SYSTEM.DIHEDRAL>
0

>  <SCORE.SYSTEM.SOLV>
0

>  <SCORE.SYSTEM.norm>
0

>  <SCORE.heavy>
10

>  <SCORE.norm>
-2.37465

>  <RMSD>
3.128

$$$$
ligand
 OpenBabel11021811503D
libRbt.so/2013.1/901 2013/11/27
 10 11  0  0  0  0  0  0  0  0999 V2000
   17.6643   -0.7337    2.7959 N   0  0  0  0  0  0  0  0  0  0  0  0
   16.5626   -0.9261    3.4970 C   0  0  0  0  0  0  0  0  0  0  0  0
   16.2328   -2.2212    3.9104 N   0  0  0  0  0  0  0  0  0  0  0  0
   17.0254   -3.2499    3.5794 C   0  0  0  0  0  0  0  0  0  0  0  0
   18.1318   -3.0505    2.8670 C   0  0  0  0  0  0  0  0  0  0  0  0
   18.4785   -1.8260    2.4775 C   0  0  0  0  0  0  0  0  0  0  0  0
   19.5157   -1.6400    1.8433 O   0  0  0  0  0  0  0  0  0  0  0  0
   18.6771   -4.2389    2.6226 N   0  0  0  0  0  0  0  0  0  0  0  0
   17.9149   -5.1711    3.1857 C   0  0  0  0  0  0  0  0  0  0  0  0
   16.8979   -4.5569    3.7838 N   0  0  0  0  0  0  0  0  0  0  0  0
  1  2  1  0  0  0  0
  1  6  1  0  0  0  0
  2  3  2  0  0  0  0
  3  4  1  0  0  0  0
  4  5  2  0  0  0  0
  4 10  1  0  0  0  0
  5  6  1  0  0  0  0
  5  8  1  0  0  0  0
  6  7  2  0  0  0  0
  8  9  1  0  0  0  0
  9 10  2  0  0  0  0
M  END
>  <CHROM.1>
17.74394982,-2.73822431,3.03303276,1.45355064,0.54411855,-0.12271664

>  <Name>
ligand

>  <RI>
0

>  <Rbt.Current_Directory>
/home/itssahil/PROJECTS/Mol_Feturizer/New_Systems/rnas/4NYD

>  <Rbt.Executable>
rbdock ($Id: //depot/dev/client3/rdock/2013.1/src/exe/rbdock.cxx#4 $)

>  <Rbt.Library>
libRbt.so (2013.1, Build901 2013/11/27)

>  <Rbt.Parameter_File>
/export/apps/rDock/src/rDock_2013.1_src/data/scripts/dock_solv.prm

>  <Rbt.Receptor>
prm/pocket_docking_7.prm

>  <SCORE>
-23.7639

>  <SCORE.INTER>
-23.7639

>  <SCORE.INTER.CONST>
1

>  <SCORE.INTER.POLAR>
0

>  <SCORE.INTER.ROT>
0

>  <SCORE.INTER.SOLV>
3.46982

>  <SCORE.INTER.VDW>
-20.5992

>  <SCORE.INTER.norm>
-2.37639

>  <SCORE.INTRA>
0

>  <SCORE.INTRA.DIHEDRAL>
0

>  <SCORE.INTRA.DIHEDRAL.0>
0

>  <SCORE.INTRA.POLAR>
0

>  <SCORE.INTRA.POLAR.0>
0

>  <SCORE.INTRA.REPUL>
0

>  <SCORE.INTRA.REPUL.0>
0

>  <SCORE.INTRA.SOLV>
0

>  <SCORE.INTRA.SOLV.lig_0>
-4.1818

>  <SCORE.INTRA.VDW>
0

>  <SCORE.INTRA.VDW.0>
0

>  <SCORE.INTRA.norm>
0

>  <SCORE.RESTR>
0

>  <SCORE.RESTR.CAVITY>
0

>  <SCORE.RESTR.norm>
0

>  <SCORE.SYSTEM>
0

>  <SCORE.SYSTEM.CONST>
0

>  <SCORE.SYSTEM.DIHEDRAL>
0

>  <SCORE.SYSTEM.SOLV>
0

>  <SCORE.SYSTEM.norm>
0

>  <SCORE.heavy>
10

>  <SCORE.norm>
-2.37639

>  <RMSD>
3.128

$$$$
ligand
 OpenBabel11021811503D
libRbt.so/2013.1/901 2013/11/27
 10 11  0  0  0  0  0  0  0  0999 V2000
   17.6809   -0.7375    2.8158 N   0  0  0  0  0  0  0  0  0  0  0  0
   16.5714   -0.9268    3.5053 C   0  0  0  0  0  0  0  0  0  0  0  0
   16.2264   -2.2228    3.9029 N   0  0  0  0  0  0  0  0  0  0  0  0
   17.0127   -3.2554    3.5688 C   0  0  0  0  0  0  0  0  0  0  0  0
   18.1271   -3.0591    2.8682 C   0  0  0  0  0  0  0  0  0  0  0  0
   18.4881   -1.8340    2.4939 C   0  0  0  0  0  0  0  0  0  0  0  0
   19.5326   -1.6511    1.8707 O   0  0  0  0  0  0  0  0  0  0  0  0
   18.6639   -4.2499    2.6170 N   0  0  0  0  0  0  0  0  0  0  0  0
   17.8884   -5.1806    3.1642 C   0  0  0  0  0  0  0  0  0  0  0  0
   16.8718   -4.5632    3.7593 N   0  0  0  0  0  0  0  0  0  0  0  0
  1  2  1  0  0  0  0
  1  6  1  0  0  0  0
  2  3  2  0  0  0  0
  3  4  1  0  0  0  0
  4  5  2  0  0  0  0
  4 10  1  0  0  0  0
  5  6  1  0  0  0  0
  5  8  1  0  0  0  0
  6  7  2  0  0  0  0
  8  9  1  0  0  0  0
  9 10  2  0  0  0  0
M  END
>  <CHROM.1>
17.74059668,-2.74490172,3.03390966,1.44198429,0.53635035,-0.10698217

>  <Name>
ligand

>  <RI>
0

>  <Rbt.Current_Directory>
/home/itssahil/PROJECTS/Mol_Feturizer/New_Systems/rnas/4NYD

>  <Rbt.Executable>
rbdock ($Id: //depot/dev/client3/rdock/2013.1/src/exe/rbdock.cxx#4 $)

>  <Rbt.Library>
libRbt.so (2013.1, Build901 2013/11/27)

>  <Rbt.Parameter_File>
/export/apps/rDock/src/rDock_2013.1_src/data/scripts/dock_solv.prm

>  <Rbt.Receptor>
prm/pocket_docking_7.prm

>  <SCORE>
-23.8194

>  <SCORE.INTER>
-23.8194

>  <SCORE.INTER.CONST>
1

>  <SCORE.INTER.POLAR>
0

>  <SCORE.INTER.ROT>
0

>  <SCORE.INTER.SOLV>
3.4826

>  <SCORE.INTER.VDW>
-20.6405

>  <SCORE.INTER.norm>
-2.38194

>  <SCORE.INTRA>
0

>  <SCORE.INTRA.DIHEDRAL>
0

>  <SCORE.INTRA.DIHEDRAL.0>
0

>  <SCORE.INTRA.POLAR>
0

>  <SCORE.INTRA.POLAR.0>
0

>  <SCORE.INTRA.REPUL>
0

>  <SCORE.INTRA.REPUL.0>
0

>  <SCORE.INTRA.SOLV>
0

>  <SCORE.INTRA.SOLV.lig_0>
-4.1818

>  <SCORE.INTRA.VDW>
0

>  <SCORE.INTRA.VDW.0>
0

>  <SCORE.INTRA.norm>
0

>  <SCORE.RESTR>
0

>  <SCORE.RESTR.CAVITY>
0

>  <SCORE.RESTR.norm>
0

>  <SCORE.SYSTEM>
0

>  <SCORE.SYSTEM.CONST>
0

>  <SCORE.SYSTEM.DIHEDRAL>
0

>  <SCORE.SYSTEM.SOLV>
0

>  <SCORE.SYSTEM.norm>
0

>  <SCORE.heavy>
10

>  <SCORE.norm>
-2.38194

>  <RMSD>
3.128

$$$$
ligand
 OpenBabel11021811503D
libRbt.so/2013.1/901 2013/11/27
 10 11  0  0  0  0  0  0  0  0999 V2000
   17.6769   -0.6869    2.7419 N   0  0  0  0  0  0  0  0  0  0  0  0
   16.5864   -0.8594    3.4654 C   0  0  0  0  0  0  0  0  0  0  0  0
   16.2498   -2.1464    3.8982 N   0  0  0  0  0  0  0  0  0  0  0  0
   17.0243   -3.1875    3.5631 C   0  0  0  0  0  0  0  0  0  0  0  0
   18.1194   -3.0081    2.8282 C   0  0  0  0  0  0  0  0  0  0  0  0
   18.4725   -1.7917    2.4197 C   0  0  0  0  0  0  0  0  0  0  0  0
   19.4997   -1.6241    1.7644 O   0  0  0  0  0  0  0  0  0  0  0  0
   18.6464   -4.2052    2.5860 N   0  0  0  0  0  0  0  0  0  0  0  0
   17.8844   -5.1227    3.1729 C   0  0  0  0  0  0  0  0  0  0  0  0
   16.8859   -4.4909    3.7834 N   0  0  0  0  0  0  0  0  0  0  0  0
  1  2  1  0  0  0  0
  1  6  1  0  0  0  0
  2  3  2  0  0  0  0
  3  4  1  0  0  0  0
  4  5  2  0  0  0  0
  4 10  1  0  0  0  0
  5  6  1  0  0  0  0
  5  8  1  0  0  0  0
  6  7  2  0  0  0  0
  8  9  1  0  0  0  0
  9 10  2  0  0  0  0
M  END
>  <CHROM.1>
17.73825071,-2.68970970,2.99823363,1.44294960,0.56408467,-0.12737853

>  <Name>
ligand

>  <RI>
0

>  <Rbt.Current_Directory>
/home/itssahil/PROJECTS/Mol_Feturizer/New_Systems/rnas/4NYD

>  <Rbt.Executable>
rbdock ($Id: //depot/dev/client3/rdock/2013.1/src/exe/rbdock.cxx#4 $)

>  <Rbt.Library>
libRbt.so (2013.1, Build901 2013/11/27)

>  <Rbt.Parameter_File>
/export/apps/rDock/src/rDock_2013.1_src/data/scripts/dock_solv.prm

>  <Rbt.Receptor>
prm/pocket_docking_7.prm

>  <SCORE>
-23.7686

>  <SCORE.INTER>
-23.7686

>  <SCORE.INTER.CONST>
1

>  <SCORE.INTER.POLAR>
0

>  <SCORE.INTER.ROT>
0

>  <SCORE.INTER.SOLV>
3.44625

>  <SCORE.INTER.VDW>
-20.5945

>  <SCORE.INTER.norm>
-2.37686

>  <SCORE.INTRA>
0

>  <SCORE.INTRA.DIHEDRAL>
0

>  <SCORE.INTRA.DIHEDRAL.0>
0

>  <SCORE.INTRA.POLAR>
0

>  <SCORE.INTRA.POLAR.0>
0

>  <SCORE.INTRA.REPUL>
0

>  <SCORE.INTRA.REPUL.0>
0

>  <SCORE.INTRA.SOLV>
0

>  <SCORE.INTRA.SOLV.lig_0>
-4.1818

>  <SCORE.INTRA.VDW>
0

>  <SCORE.INTRA.VDW.0>
0

>  <SCORE.INTRA.norm>
0

>  <SCORE.RESTR>
0

>  <SCORE.RESTR.CAVITY>
0

>  <SCORE.RESTR.norm>
0

>  <SCORE.SYSTEM>
0

>  <SCORE.SYSTEM.CONST>
0

>  <SCORE.SYSTEM.DIHEDRAL>
0

>  <SCORE.SYSTEM.SOLV>
0

>  <SCORE.SYSTEM.norm>
0

>  <SCORE.heavy>
10

>  <SCORE.norm>
-2.37686

>  <RMSD>
3.128

$$$$
ligand
 OpenBabel11021811503D
libRbt.so/2013.1/901 2013/11/27
 10 11  0  0  0  0  0  0  0  0999 V2000
   17.6826   -0.6822    2.7581 N   0  0  0  0  0  0  0  0  0  0  0  0
   16.5889   -0.8563    3.4764 C   0  0  0  0  0  0  0  0  0  0  0  0
   16.2466   -2.1451    3.8989 N   0  0  0  0  0  0  0  0  0  0  0  0
   17.0190   -3.1864    3.5594 C   0  0  0  0  0  0  0  0  0  0  0  0
   18.1174   -3.0054    2.8298 C   0  0  0  0  0  0  0  0  0  0  0  0
   18.4759   -1.7872    2.4311 C   0  0  0  0  0  0  0  0  0  0  0  0
   19.5060   -1.6184    1.7808 O   0  0  0  0  0  0  0  0  0  0  0  0
   18.6415   -4.2024    2.5811 N   0  0  0  0  0  0  0  0  0  0  0  0
   17.8743   -5.1216    3.1587 C   0  0  0  0  0  0  0  0  0  0  0  0
   16.8756   -4.4908    3.7700 N   0  0  0  0  0  0  0  0  0  0  0  0
  1  2  1  0  0  0  0
  1  6  1  0  0  0  0
  2  3  2  0  0  0  0
  3  4  1  0  0  0  0
  4  5  2  0  0  0  0
  4 10  1  0  0  0  0
  5  6  1  0  0  0  0
  5  8  1  0  0  0  0
  6  7  2  0  0  0  0
  8  9  1  0  0  0  0
  9 10  2  0  0  0  0
M  END
>  <CHROM.1>
17.73661229,-2.68693104,3.00062998,1.43864969,0.56081101,-0.11808073

>  <Name>
ligand

>  <RI>
0

>  <Rbt.Current_Directory>
/home/itssahil/PROJECTS/Mol_Feturizer/New_Systems/rnas/4NYD

>  <Rbt.Executable>
rbdock ($Id: //depot/dev/client3/rdock/2013.1/src/exe/rbdock.cxx#4 $)

>  <Rbt.Library>
libRbt.so (2013.1, Build901 2013/11/27)

>  <Rbt.Parameter_File>
/export/apps/rDock/src/rDock_2013.1_src/data/scripts/dock_solv.prm

>  <Rbt.Receptor>
prm/blind_docking_40.prm

>  <SCORE>
-23.7735

>  <SCORE.INTER>
-23.7735

>  <SCORE.INTER.CONST>
1

>  <SCORE.INTER.POLAR>
0

>  <SCORE.INTER.ROT>
0

>  <SCORE.INTER.SOLV>
3.45397

>  <SCORE.INTER.VDW>
-20.6003

>  <SCORE.INTER.norm>
-2.37735

>  <SCORE.INTRA>
0

>  <SCORE.INTRA.DIHEDRAL>
0

>  <SCORE.INTRA.DIHEDRAL.0>
0

>  <SCORE.INTRA.POLAR>
0

>  <SCORE.INTRA.POLAR.0>
0

>  <SCORE.INTRA.REPUL>
0

>  <SCORE.INTRA.REPUL.0>
0

>  <SCORE.INTRA.SOLV>
0

>  <SCORE.INTRA.SOLV.lig_0>
-4.1818

>  <SCORE.INTRA.VDW>
0

>  <SCORE.INTRA.VDW.0>
0

>  <SCORE.INTRA.norm>
0

>  <SCORE.RESTR>
0

>  <SCORE.RESTR.CAVITY>
0

>  <SCORE.RESTR.norm>
0

>  <SCORE.SYSTEM>
0

>  <SCORE.SYSTEM.CONST>
0

>  <SCORE.SYSTEM.DIHEDRAL>
0

>  <SCORE.SYSTEM.SOLV>
0

>  <SCORE.SYSTEM.norm>
0

>  <SCORE.heavy>
10

>  <SCORE.norm>
-2.37735

>  <RMSD>
3.129

$$$$
ligand
 OpenBabel11021811503D
libRbt.so/2013.1/901 2013/11/27
 10 11  0  0  0  0  0  0  0  0999 V2000
   17.7235   -0.6451    2.7014 N   0  0  0  0  0  0  0  0  0  0  0  0
   16.6123   -0.7778    3.4013 C   0  0  0  0  0  0  0  0  0  0  0  0
   16.2241   -2.0506    3.8326 N   0  0  0  0  0  0  0  0  0  0  0  0
   16.9711   -3.1184    3.5199 C   0  0  0  0  0  0  0  0  0  0  0  0
   18.0874   -2.9791    2.8086 C   0  0  0  0  0  0  0  0  0  0  0  0
   18.4893   -1.7772    2.4022 C   0  0  0  0  0  0  0  0  0  0  0  0
   19.5356   -1.6470    1.7690 O   0  0  0  0  0  0  0  0  0  0  0  0
   18.5800   -4.1941    2.5839 N   0  0  0  0  0  0  0  0  0  0  0  0
   17.7754   -5.0829    3.1581 C   0  0  0  0  0  0  0  0  0  0  0  0
   16.7850   -4.4153    3.7432 N   0  0  0  0  0  0  0  0  0  0  0  0
  1  2  1  0  0  0  0
  1  6  1  0  0  0  0
  2  3  2  0  0  0  0
  3  4  1  0  0  0  0
  4  5  2  0  0  0  0
  4 10  1  0  0  0  0
  5  6  1  0  0  0  0
  5  8  1  0  0  0  0
  6  7  2  0  0  0  0
  8  9  1  0  0  0  0
  9 10  2  0  0  0  0
M  END
>  <CHROM.1>
17.71330612,-2.64740786,2.96858308,1.40145834,0.54602523,-0.11066104

>  <Name>
ligand

>  <RI>
0

>  <Rbt.Current_Directory>
/home/itssahil/PROJECTS/Mol_Feturizer/New_Systems/rnas/4NYD

>  <Rbt.Executable>
rbdock ($Id: //depot/dev/client3/rdock/2013.1/src/exe/rbdock.cxx#4 $)

>  <Rbt.Library>
libRbt.so (2013.1, Build901 2013/11/27)

>  <Rbt.Parameter_File>
/export/apps/rDock/src/rDock_2013.1_src/data/scripts/dock_solv.prm

>  <Rbt.Receptor>
prm/blind_docking_80.prm

>  <SCORE>
-23.8137

>  <SCORE.INTER>
-23.8137

>  <SCORE.INTER.CONST>
1

>  <SCORE.INTER.POLAR>
0

>  <SCORE.INTER.ROT>
0

>  <SCORE.INTER.SOLV>
3.43581

>  <SCORE.INTER.VDW>
-20.6211

>  <SCORE.INTER.norm>
-2.38137

>  <SCORE.INTRA>
0

>  <SCORE.INTRA.DIHEDRAL>
0

>  <SCORE.INTRA.DIHEDRAL.0>
0

>  <SCORE.INTRA.POLAR>
0

>  <SCORE.INTRA.POLAR.0>
0

>  <SCORE.INTRA.REPUL>
0

>  <SCORE.INTRA.REPUL.0>
0

>  <SCORE.INTRA.SOLV>
0

>  <SCORE.INTRA.SOLV.lig_0>
-4.1818

>  <SCORE.INTRA.VDW>
0

>  <SCORE.INTRA.VDW.0>
0

>  <SCORE.INTRA.norm>
0

>  <SCORE.RESTR>
0

>  <SCORE.RESTR.CAVITY>
0

>  <SCORE.RESTR.norm>
0

>  <SCORE.SYSTEM>
0

>  <SCORE.SYSTEM.CONST>
0

>  <SCORE.SYSTEM.DIHEDRAL>
0

>  <SCORE.SYSTEM.SOLV>
0

>  <SCORE.SYSTEM.norm>
0

>  <SCORE.heavy>
10

>  <SCORE.norm>
-2.38137

>  <RMSD>
3.129

$$$$
ligand
 OpenBabel11021811503D
libRbt.so/2013.1/901 2013/11/27
 10 11  0  0  0  0  0  0  0  0999 V2000
   17.6861   -0.7178    2.8058 N   0  0  0  0  0  0  0  0  0  0  0  0
   16.5735   -0.9013    3.4919 C   0  0  0  0  0  0  0  0  0  0  0  0
   16.2183   -2.1961    3.8847 N   0  0  0  0  0  0  0  0  0  0  0  0
   16.9981   -3.2332    3.5493 C   0  0  0  0  0  0  0  0  0  0  0  0
   18.1157   -3.0426    2.8521 C   0  0  0  0  0  0  0  0  0  0  0  0
   18.4863   -1.8190    2.4825 C   0  0  0  0  0  0  0  0  0  0  0  0
   19.5336   -1.6417    1.8624 O   0  0  0  0  0  0  0  0  0  0  0  0
   18.6445   -4.2365    2.5984 N   0  0  0  0  0  0  0  0  0  0  0  0
   17.8611   -5.1633    3.1408 C   0  0  0  0  0  0  0  0  0  0  0  0
   16.8473   -4.5405    3.7352 N   0  0  0  0  0  0  0  0  0  0  0  0
  1  2  1  0  0  0  0
  1  6  1  0  0  0  0
  2  3  2  0  0  0  0
  3  4  1  0  0  0  0
  4  5  2  0  0  0  0
  4 10  1  0  0  0  0
  5  6  1  0  0  0  0
  5  8  1  0  0  0  0
  6  7  2  0  0  0  0
  8  9  1  0  0  0  0
  9 10  2  0  0  0  0
M  END
>  <CHROM.1>
17.73094470,-2.72623422,3.01777874,1.43342563,0.53459282,-0.09947751

>  <Name>
ligand

>  <RI>
0

>  <Rbt.Current_Directory>
/home/itssahil/PROJECTS/Mol_Feturizer/New_Systems/rnas/4NYD

>  <Rbt.Executable>
rbdock ($Id: //depot/dev/client3/rdock/2013.1/src/exe/rbdock.cxx#4 $)

>  <Rbt.Library>
libRbt.so (2013.1, Build901 2013/11/27)

>  <Rbt.Parameter_File>
/export/apps/rDock/src/rDock_2013.1_src/data/scripts/dock_solv.prm

>  <Rbt.Receptor>
prm/pocket_docking_5.prm

>  <SCORE>
-23.7786

>  <SCORE.INTER>
-23.7786

>  <SCORE.INTER.CONST>
1

>  <SCORE.INTER.POLAR>
0

>  <SCORE.INTER.ROT>
0

>  <SCORE.INTER.SOLV>
3.4712

>  <SCORE.INTER.VDW>
-20.6095

>  <SCORE.INTER.norm>
-2.37786

>  <SCORE.INTRA>
0

>  <SCORE.INTRA.DIHEDRAL>
0

>  <SCORE.INTRA.DIHEDRAL.0>
0

>  <SCORE.INTRA.POLAR>
0

>  <SCORE.INTRA.POLAR.0>
0

>  <SCORE.INTRA.REPUL>
0

>  <SCORE.INTRA.REPUL.0>
0

>  <SCORE.INTRA.SOLV>
0

>  <SCORE.INTRA.SOLV.lig_0>
-4.1818

>  <SCORE.INTRA.VDW>
0

>  <SCORE.INTRA.VDW.0>
0

>  <SCORE.INTRA.norm>
0

>  <SCORE.RESTR>
0

>  <SCORE.RESTR.CAVITY>
0

>  <SCORE.RESTR.norm>
0

>  <SCORE.SYSTEM>
0

>  <SCORE.SYSTEM.CONST>
0

>  <SCORE.SYSTEM.DIHEDRAL>
0

>  <SCORE.SYSTEM.SOLV>
0

>  <SCORE.SYSTEM.norm>
0

>  <SCORE.heavy>
10

>  <SCORE.norm>
-2.37786

>  <RMSD>
3.129

$$$$
ligand
 OpenBabel11021811503D
libRbt.so/2013.1/901 2013/11/27
 10 11  0  0  0  0  0  0  0  0999 V2000
   17.7337   -0.6302    2.7544 N   0  0  0  0  0  0  0  0  0  0  0  0
   16.6051   -0.7781    3.4228 C   0  0  0  0  0  0  0  0  0  0  0  0
   16.2125   -2.0587    3.8263 N   0  0  0  0  0  0  0  0  0  0  0  0
   16.9734   -3.1183    3.5189 C   0  0  0  0  0  0  0  0  0  0  0  0
   18.1073   -2.9635    2.8394 C   0  0  0  0  0  0  0  0  0  0  0  0
   18.5132   -1.7541    2.4603 C   0  0  0  0  0  0  0  0  0  0  0  0
   19.5752   -1.6099    1.8569 O   0  0  0  0  0  0  0  0  0  0  0  0
   18.6122   -4.1728    2.6112 N   0  0  0  0  0  0  0  0  0  0  0  0
   17.7976   -5.0735    3.1517 C   0  0  0  0  0  0  0  0  0  0  0  0
   16.7885   -4.4191    3.7195 N   0  0  0  0  0  0  0  0  0  0  0  0
  1  2  1  0  0  0  0
  1  6  1  0  0  0  0
  2  3  2  0  0  0  0
  3  4  1  0  0  0  0
  4  5  2  0  0  0  0
  4 10  1  0  0  0  0
  5  6  1  0  0  0  0
  5  8  1  0  0  0  0
  6  7  2  0  0  0  0
  8  9  1  0  0  0  0
  9 10  2  0  0  0  0
M  END
>  <CHROM.1>
17.72728478,-2.63599076,2.99393321,1.40431224,0.51915882,-0.09838095

>  <Name>
ligand

>  <RI>
0

>  <Rbt.Current_Directory>
/home/itssahil/PROJECTS/Mol_Feturizer/New_Systems/rnas/4NYD

>  <Rbt.Executable>
rbdock ($Id: //depot/dev/client3/rdock/2013.1/src/exe/rbdock.cxx#4 $)

>  <Rbt.Library>
libRbt.so (2013.1, Build901 2013/11/27)

>  <Rbt.Parameter_File>
/export/apps/rDock/src/rDock_2013.1_src/data/scripts/dock_solv.prm

>  <Rbt.Receptor>
prm/pocket_docking_7.prm

>  <SCORE>
-23.7851

>  <SCORE.INTER>
-23.7851

>  <SCORE.INTER.CONST>
1

>  <SCORE.INTER.POLAR>
0

>  <SCORE.INTER.ROT>
0

>  <SCORE.INTER.SOLV>
3.45257

>  <SCORE.INTER.VDW>
-20.6076

>  <SCORE.INTER.norm>
-2.37851

>  <SCORE.INTRA>
0

>  <SCORE.INTRA.DIHEDRAL>
0

>  <SCORE.INTRA.DIHEDRAL.0>
0

>  <SCORE.INTRA.POLAR>
0

>  <SCORE.INTRA.POLAR.0>
0

>  <SCORE.INTRA.REPUL>
0

>  <SCORE.INTRA.REPUL.0>
0

>  <SCORE.INTRA.SOLV>
0

>  <SCORE.INTRA.SOLV.lig_0>
-4.1818

>  <SCORE.INTRA.VDW>
0

>  <SCORE.INTRA.VDW.0>
0

>  <SCORE.INTRA.norm>
0

>  <SCORE.RESTR>
0

>  <SCORE.RESTR.CAVITY>
0

>  <SCORE.RESTR.norm>
0

>  <SCORE.SYSTEM>
0

>  <SCORE.SYSTEM.CONST>
0

>  <SCORE.SYSTEM.DIHEDRAL>
0

>  <SCORE.SYSTEM.SOLV>
0

>  <SCORE.SYSTEM.norm>
0

>  <SCORE.heavy>
10

>  <SCORE.norm>
-2.37851

>  <RMSD>
3.129

$$$$
ligand
 OpenBabel11021811503D
libRbt.so/2013.1/901 2013/11/27
 10 11  0  0  0  0  0  0  0  0999 V2000
   17.7186   -0.6323    2.7225 N   0  0  0  0  0  0  0  0  0  0  0  0
   16.6004   -0.7770    3.4088 C   0  0  0  0  0  0  0  0  0  0  0  0
   16.2160   -2.0551    3.8277 N   0  0  0  0  0  0  0  0  0  0  0  0
   16.9739   -3.1158    3.5169 C   0  0  0  0  0  0  0  0  0  0  0  0
   18.0973   -2.9644    2.8194 C   0  0  0  0  0  0  0  0  0  0  0  0
   18.4955   -1.7572    2.4251 C   0  0  0  0  0  0  0  0  0  0  0  0
   19.5481   -1.6159    1.8048 O   0  0  0  0  0  0  0  0  0  0  0  0
   18.6007   -4.1746    2.5927 N   0  0  0  0  0  0  0  0  0  0  0  0
   17.7958   -5.0725    3.1520 C   0  0  0  0  0  0  0  0  0  0  0  0
   16.7942   -4.4153    3.7300 N   0  0  0  0  0  0  0  0  0  0  0  0
  1  2  1  0  0  0  0
  1  6  1  0  0  0  0
  2  3  2  0  0  0  0
  3  4  1  0  0  0  0
  4  5  2  0  0  0  0
  4 10  1  0  0  0  0
  5  6  1  0  0  0  0
  5  8  1  0  0  0  0
  6  7  2  0  0  0  0
  8  9  1  0  0  0  0
  9 10  2  0  0  0  0
M  END
>  <CHROM.1>
17.71911053,-2.63627634,2.97709245,1.40792794,0.53389028,-0.10769665

>  <Name>
ligand

>  <RI>
0

>  <Rbt.Current_Directory>
/home/itssahil/PROJECTS/Mol_Feturizer/New_Systems/rnas/4NYD

>  <Rbt.Executable>
rbdock ($Id: //depot/dev/client3/rdock/2013.1/src/exe/rbdock.cxx#4 $)

>  <Rbt.Library>
libRbt.so (2013.1, Build901 2013/11/27)

>  <Rbt.Parameter_File>
/export/apps/rDock/src/rDock_2013.1_src/data/scripts/dock_solv.prm

>  <Rbt.Receptor>
prm/blind_docking_40.prm

>  <SCORE>
-23.8239

>  <SCORE.INTER>
-23.8239

>  <SCORE.INTER.CONST>
1

>  <SCORE.INTER.POLAR>
0

>  <SCORE.INTER.ROT>
0

>  <SCORE.INTER.SOLV>
3.43451

>  <SCORE.INTER.VDW>
-20.6275

>  <SCORE.INTER.norm>
-2.38239

>  <SCORE.INTRA>
0

>  <SCORE.INTRA.DIHEDRAL>
0

>  <SCORE.INTRA.DIHEDRAL.0>
0

>  <SCORE.INTRA.POLAR>
0

>  <SCORE.INTRA.POLAR.0>
0

>  <SCORE.INTRA.REPUL>
0

>  <SCORE.INTRA.REPUL.0>
0

>  <SCORE.INTRA.SOLV>
0

>  <SCORE.INTRA.SOLV.lig_0>
-4.1818

>  <SCORE.INTRA.VDW>
0

>  <SCORE.INTRA.VDW.0>
0

>  <SCORE.INTRA.norm>
0

>  <SCORE.RESTR>
0

>  <SCORE.RESTR.CAVITY>
0

>  <SCORE.RESTR.norm>
0

>  <SCORE.SYSTEM>
0

>  <SCORE.SYSTEM.CONST>
0

>  <SCORE.SYSTEM.DIHEDRAL>
0

>  <SCORE.SYSTEM.SOLV>
0

>  <SCORE.SYSTEM.norm>
0

>  <SCORE.heavy>
10

>  <SCORE.norm>
-2.38239

>  <RMSD>
3.130

$$$$
ligand
 OpenBabel11021811503D
libRbt.so/2013.1/901 2013/11/27
 10 11  0  0  0  0  0  0  0  0999 V2000
   17.7208   -0.6334    2.7277 N   0  0  0  0  0  0  0  0  0  0  0  0
   16.5992   -0.7788    3.4083 C   0  0  0  0  0  0  0  0  0  0  0  0
   16.2138   -2.0571    3.8257 N   0  0  0  0  0  0  0  0  0  0  0  0
   16.9742   -3.1173    3.5192 C   0  0  0  0  0  0  0  0  0  0  0  0
   18.1010   -2.9651    2.8275 C   0  0  0  0  0  0  0  0  0  0  0  0
   18.5002   -1.7578    2.4348 C   0  0  0  0  0  0  0  0  0  0  0  0
   19.5559   -1.6158    1.8199 O   0  0  0  0  0  0  0  0  0  0  0  0
   18.6067   -4.1750    2.6039 N   0  0  0  0  0  0  0  0  0  0  0  0
   17.7996   -5.0733    3.1594 C   0  0  0  0  0  0  0  0  0  0  0  0
   16.7945   -4.4168    3.7319 N   0  0  0  0  0  0  0  0  0  0  0  0
  1  2  1  0  0  0  0
  1  6  1  0  0  0  0
  2  3  2  0  0  0  0
  3  4  1  0  0  0  0
  4  5  2  0  0  0  0
  4 10  1  0  0  0  0
  5  6  1  0  0  0  0
  5  8  1  0  0  0  0
  6  7  2  0  0  0  0
  8  9  1  0  0  0  0
  9 10  2  0  0  0  0
M  END
>  <CHROM.1>
17.72172975,-2.63728952,2.98309987,1.40827907,0.52865520,-0.10828184

>  <Name>
ligand

>  <RI>
0

>  <Rbt.Current_Directory>
/home/itssahil/PROJECTS/Mol_Feturizer/New_Systems/rnas/4NYD

>  <Rbt.Executable>
rbdock ($Id: //depot/dev/client3/rdock/2013.1/src/exe/rbdock.cxx#4 $)

>  <Rbt.Library>
libRbt.so (2013.1, Build901 2013/11/27)

>  <Rbt.Parameter_File>
/export/apps/rDock/src/rDock_2013.1_src/data/scripts/dock_solv.prm

>  <Rbt.Receptor>
prm/pocket_docking_8.prm

>  <SCORE>
-23.8273

>  <SCORE.INTER>
-23.8273

>  <SCORE.INTER.CONST>
1

>  <SCORE.INTER.POLAR>
0

>  <SCORE.INTER.ROT>
0

>  <SCORE.INTER.SOLV>
3.43682

>  <SCORE.INTER.VDW>
-20.6305

>  <SCORE.INTER.norm>
-2.38273

>  <SCORE.INTRA>
0

>  <SCORE.INTRA.DIHEDRAL>
0

>  <SCORE.INTRA.DIHEDRAL.0>
0

>  <SCORE.INTRA.POLAR>
0

>  <SCORE.INTRA.POLAR.0>
0

>  <SCORE.INTRA.REPUL>
0

>  <SCORE.INTRA.REPUL.0>
0

>  <SCORE.INTRA.SOLV>
0

>  <SCORE.INTRA.SOLV.lig_0>
-4.1818

>  <SCORE.INTRA.VDW>
0

>  <SCORE.INTRA.VDW.0>
0

>  <SCORE.INTRA.norm>
0

>  <SCORE.RESTR>
0

>  <SCORE.RESTR.CAVITY>
0

>  <SCORE.RESTR.norm>
0

>  <SCORE.SYSTEM>
0

>  <SCORE.SYSTEM.CONST>
0

>  <SCORE.SYSTEM.DIHEDRAL>
0

>  <SCORE.SYSTEM.SOLV>
0

>  <SCORE.SYSTEM.norm>
0

>  <SCORE.heavy>
10

>  <SCORE.norm>
-2.38273

>  <RMSD>
3.130

$$$$
ligand
 OpenBabel11021811503D
libRbt.so/2013.1/901 2013/11/27
 10 11  0  0  0  0  0  0  0  0999 V2000
   17.6698   -0.7379    2.8310 N   0  0  0  0  0  0  0  0  0  0  0  0
   16.5567   -0.9337    3.5129 C   0  0  0  0  0  0  0  0  0  0  0  0
   16.2135   -2.2326    3.9028 N   0  0  0  0  0  0  0  0  0  0  0  0
   17.0051   -3.2612    3.5689 C   0  0  0  0  0  0  0  0  0  0  0  0
   18.1231   -3.0582    2.8759 C   0  0  0  0  0  0  0  0  0  0  0  0
   18.4825   -1.8303    2.5092 C   0  0  0  0  0  0  0  0  0  0  0  0
   19.5300   -1.6414    1.8931 O   0  0  0  0  0  0  0  0  0  0  0  0
   18.6652   -4.2462    2.6227 N   0  0  0  0  0  0  0  0  0  0  0  0
   17.8894   -5.1818    3.1611 C   0  0  0  0  0  0  0  0  0  0  0  0
   16.8672   -4.5702    3.7527 N   0  0  0  0  0  0  0  0  0  0  0  0
  1  2  1  0  0  0  0
  1  6  1  0  0  0  0
  2  3  2  0  0  0  0
  3  4  1  0  0  0  0
  4  5  2  0  0  0  0
  4 10  1  0  0  0  0
  5  6  1  0  0  0  0
  5  8  1  0  0  0  0
  6  7  2  0  0  0  0
  8  9  1  0  0  0  0
  9 10  2  0  0  0  0
M  END
>  <CHROM.1>
17.73458587,-2.74598369,3.04065975,1.44492789,0.53000826,-0.10406613

>  <Name>
ligand

>  <RI>
0

>  <Rbt.Current_Directory>
/home/itssahil/PROJECTS/Mol_Feturizer/New_Systems/rnas/4NYD

>  <Rbt.Executable>
rbdock ($Id: //depot/dev/client3/rdock/2013.1/src/exe/rbdock.cxx#4 $)

>  <Rbt.Library>
libRbt.so (2013.1, Build901 2013/11/27)

>  <Rbt.Parameter_File>
/export/apps/rDock/src/rDock_2013.1_src/data/scripts/dock_solv.prm

>  <Rbt.Receptor>
prm/pocket_docking_3.prm

>  <SCORE>
-23.7934

>  <SCORE.INTER>
-23.7934

>  <SCORE.INTER.CONST>
1

>  <SCORE.INTER.POLAR>
0

>  <SCORE.INTER.ROT>
0

>  <SCORE.INTER.SOLV>
3.49217

>  <SCORE.INTER.VDW>
-20.6263

>  <SCORE.INTER.norm>
-2.37934

>  <SCORE.INTRA>
0

>  <SCORE.INTRA.DIHEDRAL>
0

>  <SCORE.INTRA.DIHEDRAL.0>
0

>  <SCORE.INTRA.POLAR>
0

>  <SCORE.INTRA.POLAR.0>
0

>  <SCORE.INTRA.REPUL>
0

>  <SCORE.INTRA.REPUL.0>
0

>  <SCORE.INTRA.SOLV>
0

>  <SCORE.INTRA.SOLV.lig_0>
-4.1818

>  <SCORE.INTRA.VDW>
0

>  <SCORE.INTRA.VDW.0>
0

>  <SCORE.INTRA.norm>
0

>  <SCORE.RESTR>
0

>  <SCORE.RESTR.CAVITY>
0

>  <SCORE.RESTR.norm>
0

>  <SCORE.SYSTEM>
0

>  <SCORE.SYSTEM.CONST>
0

>  <SCORE.SYSTEM.DIHEDRAL>
0

>  <SCORE.SYSTEM.SOLV>
0

>  <SCORE.SYSTEM.norm>
0

>  <SCORE.heavy>
10

>  <SCORE.norm>
-2.37934

>  <RMSD>
3.131

$$$$
ligand
 OpenBabel11021811503D
libRbt.so/2013.1/901 2013/11/27
 10 11  0  0  0  0  0  0  0  0999 V2000
   17.7157   -0.6316    2.7222 N   0  0  0  0  0  0  0  0  0  0  0  0
   16.5980   -0.7767    3.4092 C   0  0  0  0  0  0  0  0  0  0  0  0
   16.2151   -2.0549    3.8294 N   0  0  0  0  0  0  0  0  0  0  0  0
   16.9739   -3.1151    3.5191 C   0  0  0  0  0  0  0  0  0  0  0  0
   18.0967   -2.9632    2.8208 C   0  0  0  0  0  0  0  0  0  0  0  0
   18.4935   -1.7559    2.4253 C   0  0  0  0  0  0  0  0  0  0  0  0
   19.5456   -1.6141    1.8043 O   0  0  0  0  0  0  0  0  0  0  0  0
   18.6012   -4.1730    2.5950 N   0  0  0  0  0  0  0  0  0  0  0  0
   17.7975   -5.0713    3.1555 C   0  0  0  0  0  0  0  0  0  0  0  0
   16.7956   -4.4146    3.7334 N   0  0  0  0  0  0  0  0  0  0  0  0
  1  2  1  0  0  0  0
  1  6  1  0  0  0  0
  2  3  2  0  0  0  0
  3  4  1  0  0  0  0
  4  5  2  0  0  0  0
  4 10  1  0  0  0  0
  5  6  1  0  0  0  0
  5  8  1  0  0  0  0
  6  7  2  0  0  0  0
  8  9  1  0  0  0  0
  9 10  2  0  0  0  0
M  END
>  <CHROM.1>
17.71826887,-2.63529675,2.97848715,1.40914802,0.53432914,-0.10919044

>  <Name>
ligand

>  <RI>
0

>  <Rbt.Current_Directory>
/home/itssahil/PROJECTS/Mol_Feturizer/New_Systems/rnas/4NYD

>  <Rbt.Executable>
rbdock ($Id: //depot/dev/client3/rdock/2013.1/src/exe/rbdock.cxx#4 $)

>  <Rbt.Library>
libRbt.so (2013.1, Build901 2013/11/27)

>  <Rbt.Parameter_File>
/export/apps/rDock/src/rDock_2013.1_src/data/scripts/dock_solv.prm

>  <Rbt.Receptor>
prm/pocket_docking_4.prm

>  <SCORE>
-23.8256

>  <SCORE.INTER>
-23.8256

>  <SCORE.INTER.CONST>
1

>  <SCORE.INTER.POLAR>
0

>  <SCORE.INTER.ROT>
0

>  <SCORE.INTER.SOLV>
3.43484

>  <SCORE.INTER.VDW>
-20.6287

>  <SCORE.INTER.norm>
-2.38256

>  <SCORE.INTRA>
0

>  <SCORE.INTRA.DIHEDRAL>
0

>  <SCORE.INTRA.DIHEDRAL.0>
0

>  <SCORE.INTRA.POLAR>
0

>  <SCORE.INTRA.POLAR.0>
0

>  <SCORE.INTRA.REPUL>
0

>  <SCORE.INTRA.REPUL.0>
0

>  <SCORE.INTRA.SOLV>
0

>  <SCORE.INTRA.SOLV.lig_0>
-4.1818

>  <SCORE.INTRA.VDW>
0

>  <SCORE.INTRA.VDW.0>
0

>  <SCORE.INTRA.norm>
0

>  <SCORE.RESTR>
0

>  <SCORE.RESTR.CAVITY>
0

>  <SCORE.RESTR.norm>
0

>  <SCORE.SYSTEM>
0

>  <SCORE.SYSTEM.CONST>
0

>  <SCORE.SYSTEM.DIHEDRAL>
0

>  <SCORE.SYSTEM.SOLV>
0

>  <SCORE.SYSTEM.norm>
0

>  <SCORE.heavy>
10

>  <SCORE.norm>
-2.38256

>  <RMSD>
3.131

$$$$
ligand
 OpenBabel11021811503D
libRbt.so/2013.1/901 2013/11/27
 10 11  0  0  0  0  0  0  0  0999 V2000
   17.6678   -0.6742    2.7687 N   0  0  0  0  0  0  0  0  0  0  0  0
   16.5776   -0.8622    3.4887 C   0  0  0  0  0  0  0  0  0  0  0  0
   16.2484   -2.1563    3.9055 N   0  0  0  0  0  0  0  0  0  0  0  0
   17.0298   -3.1885    3.5590 C   0  0  0  0  0  0  0  0  0  0  0  0
   18.1246   -2.9935    2.8277 C   0  0  0  0  0  0  0  0  0  0  0  0
   18.4707   -1.7701    2.4343 C   0  0  0  0  0  0  0  0  0  0  0  0
   19.4976   -1.5883    1.7823 O   0  0  0  0  0  0  0  0  0  0  0  0
   18.6593   -4.1843    2.5718 N   0  0  0  0  0  0  0  0  0  0  0  0
   17.9023   -5.1136    3.1466 C   0  0  0  0  0  0  0  0  0  0  0  0
   16.8991   -4.4952    3.7634 N   0  0  0  0  0  0  0  0  0  0  0  0
  1  2  1  0  0  0  0
  1  6  1  0  0  0  0
  2  3  2  0  0  0  0
  3  4  1  0  0  0  0
  4  5  2  0  0  0  0
  4 10  1  0  0  0  0
  5  6  1  0  0  0  0
  5  8  1  0  0  0  0
  6  7  2  0  0  0  0
  8  9  1  0  0  0  0
  9 10  2  0  0  0  0
M  END
>  <CHROM.1>
17.74129229,-2.67954592,3.00103603,1.45001249,0.56208255,-0.11913345

>  <Name>
ligand

>  <RI>
0

>  <Rbt.Current_Directory>
/home/itssahil/PROJECTS/Mol_Feturizer/New_Systems/rnas/4NYD

>  <Rbt.Executable>
rbdock ($Id: //depot/dev/client3/rdock/2013.1/src/exe/rbdock.cxx#4 $)

>  <Rbt.Library>
libRbt.so (2013.1, Build901 2013/11/27)

>  <Rbt.Parameter_File>
/export/apps/rDock/src/rDock_2013.1_src/data/scripts/dock_solv.prm

>  <Rbt.Receptor>
prm/pocket_docking_4.prm

>  <SCORE>
-23.7491

>  <SCORE.INTER>
-23.7491

>  <SCORE.INTER.CONST>
1

>  <SCORE.INTER.POLAR>
0

>  <SCORE.INTER.ROT>
0

>  <SCORE.INTER.SOLV>
3.4513

>  <SCORE.INTER.VDW>
-20.5832

>  <SCORE.INTER.norm>
-2.37491

>  <SCORE.INTRA>
0

>  <SCORE.INTRA.DIHEDRAL>
0

>  <SCORE.INTRA.DIHEDRAL.0>
0

>  <SCORE.INTRA.POLAR>
0

>  <SCORE.INTRA.POLAR.0>
0

>  <SCORE.INTRA.REPUL>
0

>  <SCORE.INTRA.REPUL.0>
0

>  <SCORE.INTRA.SOLV>
0

>  <SCORE.INTRA.SOLV.lig_0>
-4.1818

>  <SCORE.INTRA.VDW>
0

>  <SCORE.INTRA.VDW.0>
0

>  <SCORE.INTRA.norm>
0

>  <SCORE.RESTR>
0

>  <SCORE.RESTR.CAVITY>
0

>  <SCORE.RESTR.norm>
0

>  <SCORE.SYSTEM>
0

>  <SCORE.SYSTEM.CONST>
0

>  <SCORE.SYSTEM.DIHEDRAL>
0

>  <SCORE.SYSTEM.SOLV>
0

>  <SCORE.SYSTEM.norm>
0

>  <SCORE.heavy>
10

>  <SCORE.norm>
-2.37491

>  <RMSD>
3.131

$$$$
ligand
 OpenBabel11021811503D
libRbt.so/2013.1/901 2013/11/27
 10 11  0  0  0  0  0  0  0  0999 V2000
   17.7148   -0.6369    2.7162 N   0  0  0  0  0  0  0  0  0  0  0  0
   16.5970   -0.7798    3.4035 C   0  0  0  0  0  0  0  0  0  0  0  0
   16.2139   -2.0567    3.8276 N   0  0  0  0  0  0  0  0  0  0  0  0
   16.9726   -3.1179    3.5205 C   0  0  0  0  0  0  0  0  0  0  0  0
   18.0955   -2.9683    2.8219 C   0  0  0  0  0  0  0  0  0  0  0  0
   18.4925   -1.7623    2.4228 C   0  0  0  0  0  0  0  0  0  0  0  0
   19.5447   -1.6225    1.8015 O   0  0  0  0  0  0  0  0  0  0  0  0
   18.5999   -4.1789    2.5998 N   0  0  0  0  0  0  0  0  0  0  0  0
   17.7959   -5.0753    3.1630 C   0  0  0  0  0  0  0  0  0  0  0  0
   16.7941   -4.4167    3.7388 N   0  0  0  0  0  0  0  0  0  0  0  0
  1  2  1  0  0  0  0
  1  6  1  0  0  0  0
  2  3  2  0  0  0  0
  3  4  1  0  0  0  0
  4  5  2  0  0  0  0
  4 10  1  0  0  0  0
  5  6  1  0  0  0  0
  5  8  1  0  0  0  0
  6  7  2  0  0  0  0
  8  9  1  0  0  0  0
  9 10  2  0  0  0  0
M  END
>  <CHROM.1>
17.71709425,-2.63985156,2.97855753,1.40897621,0.53423853,-0.11212385

>  <Name>
ligand

>  <RI>
0

>  <Rbt.Current_Directory>
/home/itssahil/PROJECTS/Mol_Feturizer/New_Systems/rnas/4NYD

>  <Rbt.Executable>
rbdock ($Id: //depot/dev/client3/rdock/2013.1/src/exe/rbdock.cxx#4 $)

>  <Rbt.Library>
libRbt.so (2013.1, Build901 2013/11/27)

>  <Rbt.Parameter_File>
/export/apps/rDock/src/rDock_2013.1_src/data/scripts/dock_solv.prm

>  <Rbt.Receptor>
prm/pocket_docking_5.prm

>  <SCORE>
-23.825

>  <SCORE.INTER>
-23.825

>  <SCORE.INTER.CONST>
1

>  <SCORE.INTER.POLAR>
0

>  <SCORE.INTER.ROT>
0

>  <SCORE.INTER.SOLV>
3.43271

>  <SCORE.INTER.VDW>
-20.6276

>  <SCORE.INTER.norm>
-2.3825

>  <SCORE.INTRA>
0

>  <SCORE.INTRA.DIHEDRAL>
0

>  <SCORE.INTRA.DIHEDRAL.0>
0

>  <SCORE.INTRA.POLAR>
0

>  <SCORE.INTRA.POLAR.0>
0

>  <SCORE.INTRA.REPUL>
0

>  <SCORE.INTRA.REPUL.0>
0

>  <SCORE.INTRA.SOLV>
0

>  <SCORE.INTRA.SOLV.lig_0>
-4.1818

>  <SCORE.INTRA.VDW>
0

>  <SCORE.INTRA.VDW.0>
0

>  <SCORE.INTRA.norm>
0

>  <SCORE.RESTR>
0

>  <SCORE.RESTR.CAVITY>
0

>  <SCORE.RESTR.norm>
0

>  <SCORE.SYSTEM>
0

>  <SCORE.SYSTEM.CONST>
0

>  <SCORE.SYSTEM.DIHEDRAL>
0

>  <SCORE.SYSTEM.SOLV>
0

>  <SCORE.SYSTEM.norm>
0

>  <SCORE.heavy>
10

>  <SCORE.norm>
-2.3825

>  <RMSD>
3.131

$$$$
ligand
 OpenBabel11021811503D
libRbt.so/2013.1/901 2013/11/27
 10 11  0  0  0  0  0  0  0  0999 V2000
   17.7130   -0.6323    2.7157 N   0  0  0  0  0  0  0  0  0  0  0  0
   16.5966   -0.7775    3.4047 C   0  0  0  0  0  0  0  0  0  0  0  0
   16.2155   -2.0555    3.8273 N   0  0  0  0  0  0  0  0  0  0  0  0
   16.9748   -3.1154    3.5172 C   0  0  0  0  0  0  0  0  0  0  0  0
   18.0964   -2.9634    2.8170 C   0  0  0  0  0  0  0  0  0  0  0  0
   18.4915   -1.7563    2.4192 C   0  0  0  0  0  0  0  0  0  0  0  0
   19.5425   -1.6144    1.7964 O   0  0  0  0  0  0  0  0  0  0  0  0
   18.6017   -4.1731    2.5920 N   0  0  0  0  0  0  0  0  0  0  0  0
   17.7996   -5.0713    3.1551 C   0  0  0  0  0  0  0  0  0  0  0  0
   16.7980   -4.4147    3.7336 N   0  0  0  0  0  0  0  0  0  0  0  0
  1  2  1  0  0  0  0
  1  6  1  0  0  0  0
  2  3  2  0  0  0  0
  3  4  1  0  0  0  0
  4  5  2  0  0  0  0
  4 10  1  0  0  0  0
  5  6  1  0  0  0  0
  5  8  1  0  0  0  0
  6  7  2  0  0  0  0
  8  9  1  0  0  0  0
  9 10  2  0  0  0  0
M  END
>  <CHROM.1>
17.71791468,-2.63564778,2.97481437,1.41042051,0.53576478,-0.11122734

>  <Name>
ligand

>  <RI>
0

>  <Rbt.Current_Directory>
/home/itssahil/PROJECTS/Mol_Feturizer/New_Systems/rnas/4NYD

>  <Rbt.Executable>
rbdock ($Id: //depot/dev/client3/rdock/2013.1/src/exe/rbdock.cxx#4 $)

>  <Rbt.Library>
libRbt.so (2013.1, Build901 2013/11/27)

>  <Rbt.Parameter_File>
/export/apps/rDock/src/rDock_2013.1_src/data/scripts/dock_solv.prm

>  <Rbt.Receptor>
prm/pocket_docking_6.prm

>  <SCORE>
-23.8233

>  <SCORE.INTER>
-23.8233

>  <SCORE.INTER.CONST>
1

>  <SCORE.INTER.POLAR>
0

>  <SCORE.INTER.ROT>
0

>  <SCORE.INTER.SOLV>
3.43054

>  <SCORE.INTER.VDW>
-20.6257

>  <SCORE.INTER.norm>
-2.38233

>  <SCORE.INTRA>
0

>  <SCORE.INTRA.DIHEDRAL>
0

>  <SCORE.INTRA.DIHEDRAL.0>
0

>  <SCORE.INTRA.POLAR>
0

>  <SCORE.INTRA.POLAR.0>
0

>  <SCORE.INTRA.REPUL>
0

>  <SCORE.INTRA.REPUL.0>
0

>  <SCORE.INTRA.SOLV>
0

>  <SCORE.INTRA.SOLV.lig_0>
-4.1818

>  <SCORE.INTRA.VDW>
0

>  <SCORE.INTRA.VDW.0>
0

>  <SCORE.INTRA.norm>
0

>  <SCORE.RESTR>
0

>  <SCORE.RESTR.CAVITY>
0

>  <SCORE.RESTR.norm>
0

>  <SCORE.SYSTEM>
0

>  <SCORE.SYSTEM.CONST>
0

>  <SCORE.SYSTEM.DIHEDRAL>
0

>  <SCORE.SYSTEM.SOLV>
0

>  <SCORE.SYSTEM.norm>
0

>  <SCORE.heavy>
10

>  <SCORE.norm>
-2.38233

>  <RMSD>
3.131

$$$$
ligand
 OpenBabel11021811503D
libRbt.so/2013.1/901 2013/11/27
 10 11  0  0  0  0  0  0  0  0999 V2000
   17.6551   -0.7348    2.7949 N   0  0  0  0  0  0  0  0  0  0  0  0
   16.5586   -0.9284    3.5038 C   0  0  0  0  0  0  0  0  0  0  0  0
   16.2302   -2.2246    3.9146 N   0  0  0  0  0  0  0  0  0  0  0  0
   17.0187   -3.2532    3.5734 C   0  0  0  0  0  0  0  0  0  0  0  0
   18.1198   -3.0526    2.8532 C   0  0  0  0  0  0  0  0  0  0  0  0
   18.4652   -1.8270    2.4659 C   0  0  0  0  0  0  0  0  0  0  0  0
   19.4977   -1.6400    1.8243 O   0  0  0  0  0  0  0  0  0  0  0  0
   18.6614   -4.2408    2.5999 N   0  0  0  0  0  0  0  0  0  0  0  0
   17.9023   -5.1741    3.1653 C   0  0  0  0  0  0  0  0  0  0  0  0
   16.8909   -4.5608    3.7737 N   0  0  0  0  0  0  0  0  0  0  0  0
  1  2  1  0  0  0  0
  1  6  1  0  0  0  0
  2  3  2  0  0  0  0
  3  4  1  0  0  0  0
  4  5  2  0  0  0  0
  4 10  1  0  0  0  0
  5  6  1  0  0  0  0
  5  8  1  0  0  0  0
  6  7  2  0  0  0  0
  8  9  1  0  0  0  0
  9 10  2  0  0  0  0
M  END
>  <CHROM.1>
17.73369409,-2.74038285,3.02352395,1.45297968,0.55202181,-0.11849699

>  <Name>
ligand

>  <RI>
0

>  <Rbt.Current_Directory>
/home/itssahil/PROJECTS/Mol_Feturizer/New_Systems/rnas/4NYD

>  <Rbt.Executable>
rbdock ($Id: //depot/dev/client3/rdock/2013.1/src/exe/rbdock.cxx#4 $)

>  <Rbt.Library>
libRbt.so (2013.1, Build901 2013/11/27)

>  <Rbt.Parameter_File>
/export/apps/rDock/src/rDock_2013.1_src/data/scripts/dock_solv.prm

>  <Rbt.Receptor>
prm/pocket_docking_7.prm

>  <SCORE>
-23.8041

>  <SCORE.INTER>
-23.8041

>  <SCORE.INTER.CONST>
1

>  <SCORE.INTER.POLAR>
0

>  <SCORE.INTER.ROT>
0

>  <SCORE.INTER.SOLV>
3.46796

>  <SCORE.INTER.VDW>
-20.6254

>  <SCORE.INTER.norm>
-2.38041

>  <SCORE.INTRA>
0

>  <SCORE.INTRA.DIHEDRAL>
0

>  <SCORE.INTRA.DIHEDRAL.0>
0

>  <SCORE.INTRA.POLAR>
0

>  <SCORE.INTRA.POLAR.0>
0

>  <SCORE.INTRA.REPUL>
0

>  <SCORE.INTRA.REPUL.0>
0

>  <SCORE.INTRA.SOLV>
0

>  <SCORE.INTRA.SOLV.lig_0>
-4.1818

>  <SCORE.INTRA.VDW>
0

>  <SCORE.INTRA.VDW.0>
0

>  <SCORE.INTRA.norm>
0

>  <SCORE.RESTR>
0

>  <SCORE.RESTR.CAVITY>
0

>  <SCORE.RESTR.norm>
0

>  <SCORE.SYSTEM>
0

>  <SCORE.SYSTEM.CONST>
0

>  <SCORE.SYSTEM.DIHEDRAL>
0

>  <SCORE.SYSTEM.SOLV>
0

>  <SCORE.SYSTEM.norm>
0

>  <SCORE.heavy>
10

>  <SCORE.norm>
-2.38041

>  <RMSD>
3.131

$$$$
ligand
 OpenBabel11021811503D
libRbt.so/2013.1/901 2013/11/27
 10 11  0  0  0  0  0  0  0  0999 V2000
   17.6709   -0.7296    2.8276 N   0  0  0  0  0  0  0  0  0  0  0  0
   16.5724   -0.9251    3.5328 C   0  0  0  0  0  0  0  0  0  0  0  0
   16.2403   -2.2231    3.9350 N   0  0  0  0  0  0  0  0  0  0  0  0
   17.0275   -3.2513    3.5895 C   0  0  0  0  0  0  0  0  0  0  0  0
   18.1307   -3.0486    2.8731 C   0  0  0  0  0  0  0  0  0  0  0  0
   18.4796   -1.8215    2.4940 C   0  0  0  0  0  0  0  0  0  0  0  0
   19.5140   -1.6327    1.8560 O   0  0  0  0  0  0  0  0  0  0  0  0
   18.6704   -4.2364    2.6139 N   0  0  0  0  0  0  0  0  0  0  0  0
   17.9080   -5.1715    3.1719 C   0  0  0  0  0  0  0  0  0  0  0  0
   16.8965   -4.5598    3.7815 N   0  0  0  0  0  0  0  0  0  0  0  0
  1  2  1  0  0  0  0
  1  6  1  0  0  0  0
  2  3  2  0  0  0  0
  3  4  1  0  0  0  0
  4  5  2  0  0  0  0
  4 10  1  0  0  0  0
  5  6  1  0  0  0  0
  5  8  1  0  0  0  0
  6  7  2  0  0  0  0
  8  9  1  0  0  0  0
  9 10  2  0  0  0  0
M  END
>  <CHROM.1>
17.74483199,-2.73663575,3.04434414,1.45022953,0.54988963,-0.11103259

>  <Name>
ligand

>  <RI>
0

>  <Rbt.Current_Directory>
/home/itssahil/PROJECTS/Mol_Feturizer/New_Systems/rnas/4NYD

>  <Rbt.Executable>
rbdock ($Id: //depot/dev/client3/rdock/2013.1/src/exe/rbdock.cxx#4 $)

>  <Rbt.Library>
libRbt.so (2013.1, Build901 2013/11/27)

>  <Rbt.Parameter_File>
/export/apps/rDock/src/rDock_2013.1_src/data/scripts/dock_solv.prm

>  <Rbt.Receptor>
prm/pocket_docking_8.prm

>  <SCORE>
-23.7745

>  <SCORE.INTER>
-23.7745

>  <SCORE.INTER.CONST>
1

>  <SCORE.INTER.POLAR>
0

>  <SCORE.INTER.ROT>
0

>  <SCORE.INTER.SOLV>
3.49214

>  <SCORE.INTER.VDW>
-20.6137

>  <SCORE.INTER.norm>
-2.37745

>  <SCORE.INTRA>
0

>  <SCORE.INTRA.DIHEDRAL>
0

>  <SCORE.INTRA.DIHEDRAL.0>
0

>  <SCORE.INTRA.POLAR>
0

>  <SCORE.INTRA.POLAR.0>
0

>  <SCORE.INTRA.REPUL>
0

>  <SCORE.INTRA.REPUL.0>
0

>  <SCORE.INTRA.SOLV>
0

>  <SCORE.INTRA.SOLV.lig_0>
-4.1818

>  <SCORE.INTRA.VDW>
0

>  <SCORE.INTRA.VDW.0>
0

>  <SCORE.INTRA.norm>
0

>  <SCORE.RESTR>
0

>  <SCORE.RESTR.CAVITY>
0

>  <SCORE.RESTR.norm>
0

>  <SCORE.SYSTEM>
0

>  <SCORE.SYSTEM.CONST>
0

>  <SCORE.SYSTEM.DIHEDRAL>
0

>  <SCORE.SYSTEM.SOLV>
0

>  <SCORE.SYSTEM.norm>
0

>  <SCORE.heavy>
10

>  <SCORE.norm>
-2.37745

>  <RMSD>
3.131

$$$$
ligand
 OpenBabel11021811503D
libRbt.so/2013.1/901 2013/11/27
 10 11  0  0  0  0  0  0  0  0999 V2000
   17.6587   -0.6845    2.7403 N   0  0  0  0  0  0  0  0  0  0  0  0
   16.5665   -0.8622    3.4599 C   0  0  0  0  0  0  0  0  0  0  0  0
   16.2350   -2.1507    3.8924 N   0  0  0  0  0  0  0  0  0  0  0  0
   17.0162   -3.1880    3.5610 C   0  0  0  0  0  0  0  0  0  0  0  0
   18.1130   -3.0034    2.8300 C   0  0  0  0  0  0  0  0  0  0  0  0
   18.4613   -1.7854    2.4220 C   0  0  0  0  0  0  0  0  0  0  0  0
   19.4900   -1.6129    1.7703 O   0  0  0  0  0  0  0  0  0  0  0  0
   18.6472   -4.1978    2.5906 N   0  0  0  0  0  0  0  0  0  0  0  0
   17.8878   -5.1189    3.1753 C   0  0  0  0  0  0  0  0  0  0  0  0
   16.8837   -4.4918    3.7817 N   0  0  0  0  0  0  0  0  0  0  0  0
  1  2  1  0  0  0  0
  1  6  1  0  0  0  0
  2  3  2  0  0  0  0
  3  4  1  0  0  0  0
  4  5  2  0  0  0  0
  4 10  1  0  0  0  0
  5  6  1  0  0  0  0
  5  8  1  0  0  0  0
  6  7  2  0  0  0  0
  8  9  1  0  0  0  0
  9 10  2  0  0  0  0
M  END
>  <CHROM.1>
17.72956131,-2.68680636,2.99838537,1.44850533,0.55972932,-0.13105835

>  <Name>
ligand

>  <RI>
0

>  <Rbt.Current_Directory>
/home/itssahil/PROJECTS/Mol_Feturizer/New_Systems/rnas/4NYD

>  <Rbt.Executable>
rbdock ($Id: //depot/dev/client3/rdock/2013.1/src/exe/rbdock.cxx#4 $)

>  <Rbt.Library>
libRbt.so (2013.1, Build901 2013/11/27)

>  <Rbt.Parameter_File>
/export/apps/rDock/src/rDock_2013.1_src/data/scripts/dock_solv.prm

>  <Rbt.Receptor>
prm/pocket_docking_6.prm

>  <SCORE>
-23.792

>  <SCORE.INTER>
-23.792

>  <SCORE.INTER.CONST>
1

>  <SCORE.INTER.POLAR>
0

>  <SCORE.INTER.ROT>
0

>  <SCORE.INTER.SOLV>
3.44

>  <SCORE.INTER.VDW>
-20.608

>  <SCORE.INTER.norm>
-2.3792

>  <SCORE.INTRA>
0

>  <SCORE.INTRA.DIHEDRAL>
0

>  <SCORE.INTRA.DIHEDRAL.0>
0

>  <SCORE.INTRA.POLAR>
0

>  <SCORE.INTRA.POLAR.0>
0

>  <SCORE.INTRA.REPUL>
0

>  <SCORE.INTRA.REPUL.0>
0

>  <SCORE.INTRA.SOLV>
0

>  <SCORE.INTRA.SOLV.lig_0>
-4.1818

>  <SCORE.INTRA.VDW>
0

>  <SCORE.INTRA.VDW.0>
0

>  <SCORE.INTRA.norm>
0

>  <SCORE.RESTR>
0

>  <SCORE.RESTR.CAVITY>
0

>  <SCORE.RESTR.norm>
0

>  <SCORE.SYSTEM>
0

>  <SCORE.SYSTEM.CONST>
0

>  <SCORE.SYSTEM.DIHEDRAL>
0

>  <SCORE.SYSTEM.SOLV>
0

>  <SCORE.SYSTEM.norm>
0

>  <SCORE.heavy>
10

>  <SCORE.norm>
-2.3792

>  <RMSD>
3.132

$$$$
ligand
 OpenBabel11021811503D
libRbt.so/2013.1/901 2013/11/27
 10 11  0  0  0  0  0  0  0  0999 V2000
   17.6523   -0.7335    2.8027 N   0  0  0  0  0  0  0  0  0  0  0  0
   16.5539   -0.9296    3.5080 C   0  0  0  0  0  0  0  0  0  0  0  0
   16.2254   -2.2271    3.9147 N   0  0  0  0  0  0  0  0  0  0  0  0
   17.0158   -3.2542    3.5735 C   0  0  0  0  0  0  0  0  0  0  0  0
   18.1188   -3.0510    2.8570 C   0  0  0  0  0  0  0  0  0  0  0  0
   18.4643   -1.8242    2.4736 C   0  0  0  0  0  0  0  0  0  0  0  0
   19.4986   -1.6348    1.8355 O   0  0  0  0  0  0  0  0  0  0  0  0
   18.6622   -4.2381    2.6025 N   0  0  0  0  0  0  0  0  0  0  0  0
   17.9021   -5.1734    3.1635 C   0  0  0  0  0  0  0  0  0  0  0  0
   16.8885   -4.5624    3.7703 N   0  0  0  0  0  0  0  0  0  0  0  0
  1  2  1  0  0  0  0
  1  6  1  0  0  0  0
  2  3  2  0  0  0  0
  3  4  1  0  0  0  0
  4  5  2  0  0  0  0
  4 10  1  0  0  0  0
  5  6  1  0  0  0  0
  5  8  1  0  0  0  0
  6  7  2  0  0  0  0
  8  9  1  0  0  0  0
  9 10  2  0  0  0  0
M  END
>  <CHROM.1>
17.73194286,-2.73949922,3.02689966,1.45353084,0.54897793,-0.11643085

>  <Name>
ligand

>  <RI>
0

>  <Rbt.Current_Directory>
/home/itssahil/PROJECTS/Mol_Feturizer/New_Systems/rnas/4NYD

>  <Rbt.Executable>
rbdock ($Id: //depot/dev/client3/rdock/2013.1/src/exe/rbdock.cxx#4 $)

>  <Rbt.Library>
libRbt.so (2013.1, Build901 2013/11/27)

>  <Rbt.Parameter_File>
/export/apps/rDock/src/rDock_2013.1_src/data/scripts/dock_solv.prm

>  <Rbt.Receptor>
prm/blind_docking_40.prm

>  <SCORE>
-23.7991

>  <SCORE.INTER>
-23.7991

>  <SCORE.INTER.CONST>
1

>  <SCORE.INTER.POLAR>
0

>  <SCORE.INTER.ROT>
0

>  <SCORE.INTER.SOLV>
3.47104

>  <SCORE.INTER.VDW>
-20.6231

>  <SCORE.INTER.norm>
-2.37991

>  <SCORE.INTRA>
0

>  <SCORE.INTRA.DIHEDRAL>
0

>  <SCORE.INTRA.DIHEDRAL.0>
0

>  <SCORE.INTRA.POLAR>
0

>  <SCORE.INTRA.POLAR.0>
0

>  <SCORE.INTRA.REPUL>
0

>  <SCORE.INTRA.REPUL.0>
0

>  <SCORE.INTRA.SOLV>
0

>  <SCORE.INTRA.SOLV.lig_0>
-4.1818

>  <SCORE.INTRA.VDW>
0

>  <SCORE.INTRA.VDW.0>
0

>  <SCORE.INTRA.norm>
0

>  <SCORE.RESTR>
0

>  <SCORE.RESTR.CAVITY>
0

>  <SCORE.RESTR.norm>
0

>  <SCORE.SYSTEM>
0

>  <SCORE.SYSTEM.CONST>
0

>  <SCORE.SYSTEM.DIHEDRAL>
0

>  <SCORE.SYSTEM.SOLV>
0

>  <SCORE.SYSTEM.norm>
0

>  <SCORE.heavy>
10

>  <SCORE.norm>
-2.37991

>  <RMSD>
3.133

$$$$
ligand
 OpenBabel11021811503D
libRbt.so/2013.1/901 2013/11/27
 10 11  0  0  0  0  0  0  0  0999 V2000
   17.6479   -0.7284    2.7906 N   0  0  0  0  0  0  0  0  0  0  0  0
   16.5500   -0.9234    3.4969 C   0  0  0  0  0  0  0  0  0  0  0  0
   16.2246   -2.2195    3.9106 N   0  0  0  0  0  0  0  0  0  0  0  0
   17.0175   -3.2465    3.5749 C   0  0  0  0  0  0  0  0  0  0  0  0
   18.1201   -3.0444    2.8574 C   0  0  0  0  0  0  0  0  0  0  0  0
   18.4626   -1.8189    2.4674 C   0  0  0  0  0  0  0  0  0  0  0  0
   19.4964   -1.6305    1.8284 O   0  0  0  0  0  0  0  0  0  0  0  0
   18.6663   -4.2316    2.6093 N   0  0  0  0  0  0  0  0  0  0  0  0
   17.9085   -5.1657    3.1753 C   0  0  0  0  0  0  0  0  0  0  0  0
   16.8933   -4.5539    3.7787 N   0  0  0  0  0  0  0  0  0  0  0  0
  1  2  1  0  0  0  0
  1  6  1  0  0  0  0
  2  3  2  0  0  0  0
  3  4  1  0  0  0  0
  4  5  2  0  0  0  0
  4 10  1  0  0  0  0
  5  6  1  0  0  0  0
  5  8  1  0  0  0  0
  6  7  2  0  0  0  0
  8  9  1  0  0  0  0
  9 10  2  0  0  0  0
M  END
>  <CHROM.1>
17.73242034,-2.73300198,3.02559195,1.45636189,0.54863870,-0.12327664

>  <Name>
ligand

>  <RI>
0

>  <Rbt.Current_Directory>
/home/itssahil/PROJECTS/Mol_Feturizer/New_Systems/rnas/4NYD

>  <Rbt.Executable>
rbdock ($Id: //depot/dev/client3/rdock/2013.1/src/exe/rbdock.cxx#4 $)

>  <Rbt.Library>
libRbt.so (2013.1, Build901 2013/11/27)

>  <Rbt.Parameter_File>
/export/apps/rDock/src/rDock_2013.1_src/data/scripts/dock_solv.prm

>  <Rbt.Receptor>
prm/pocket_docking_8.prm

>  <SCORE>
-23.8049

>  <SCORE.INTER>
-23.8049

>  <SCORE.INTER.CONST>
1

>  <SCORE.INTER.POLAR>
0

>  <SCORE.INTER.ROT>
0

>  <SCORE.INTER.SOLV>
3.46324

>  <SCORE.INTER.VDW>
-20.6243

>  <SCORE.INTER.norm>
-2.38049

>  <SCORE.INTRA>
0

>  <SCORE.INTRA.DIHEDRAL>
0

>  <SCORE.INTRA.DIHEDRAL.0>
0

>  <SCORE.INTRA.POLAR>
0

>  <SCORE.INTRA.POLAR.0>
0

>  <SCORE.INTRA.REPUL>
0

>  <SCORE.INTRA.REPUL.0>
0

>  <SCORE.INTRA.SOLV>
0

>  <SCORE.INTRA.SOLV.lig_0>
-4.1818

>  <SCORE.INTRA.VDW>
0

>  <SCORE.INTRA.VDW.0>
0

>  <SCORE.INTRA.norm>
0

>  <SCORE.RESTR>
0

>  <SCORE.RESTR.CAVITY>
0

>  <SCORE.RESTR.norm>
0

>  <SCORE.SYSTEM>
0

>  <SCORE.SYSTEM.CONST>
0

>  <SCORE.SYSTEM.DIHEDRAL>
0

>  <SCORE.SYSTEM.SOLV>
0

>  <SCORE.SYSTEM.norm>
0

>  <SCORE.heavy>
10

>  <SCORE.norm>
-2.38049

>  <RMSD>
3.133

$$$$
ligand
 OpenBabel11021811503D
libRbt.so/2013.1/901 2013/11/27
 10 11  0  0  0  0  0  0  0  0999 V2000
   17.6701   -0.6758    2.7592 N   0  0  0  0  0  0  0  0  0  0  0  0
   16.5758   -0.8536    3.4756 C   0  0  0  0  0  0  0  0  0  0  0  0
   16.2370   -2.1437    3.8972 N   0  0  0  0  0  0  0  0  0  0  0  0
   17.0134   -3.1823    3.5588 C   0  0  0  0  0  0  0  0  0  0  0  0
   18.1124   -2.9975    2.8312 C   0  0  0  0  0  0  0  0  0  0  0  0
   18.4676   -1.7781    2.4334 C   0  0  0  0  0  0  0  0  0  0  0  0
   19.4983   -1.6057    1.7848 O   0  0  0  0  0  0  0  0  0  0  0  0
   18.6409   -4.1927    2.5831 N   0  0  0  0  0  0  0  0  0  0  0  0
   17.8758   -5.1146    3.1592 C   0  0  0  0  0  0  0  0  0  0  0  0
   16.8739   -4.4872    3.7689 N   0  0  0  0  0  0  0  0  0  0  0  0
  1  2  1  0  0  0  0
  1  6  1  0  0  0  0
  2  3  2  0  0  0  0
  3  4  1  0  0  0  0
  4  5  2  0  0  0  0
  4 10  1  0  0  0  0
  5  6  1  0  0  0  0
  5  8  1  0  0  0  0
  6  7  2  0  0  0  0
  8  9  1  0  0  0  0
  9 10  2  0  0  0  0
M  END
>  <CHROM.1>
17.73031972,-2.68035969,3.00138858,1.44227355,0.55871722,-0.11978275

>  <Name>
ligand

>  <RI>
0

>  <Rbt.Current_Directory>
/home/itssahil/PROJECTS/Mol_Feturizer/New_Systems/rnas/4NYD

>  <Rbt.Executable>
rbdock ($Id: //depot/dev/client3/rdock/2013.1/src/exe/rbdock.cxx#4 $)

>  <Rbt.Library>
libRbt.so (2013.1, Build901 2013/11/27)

>  <Rbt.Parameter_File>
/export/apps/rDock/src/rDock_2013.1_src/data/scripts/dock_solv.prm

>  <Rbt.Receptor>
prm/pocket_docking_8.prm

>  <SCORE>
-23.803

>  <SCORE.INTER>
-23.803

>  <SCORE.INTER.CONST>
1

>  <SCORE.INTER.POLAR>
0

>  <SCORE.INTER.ROT>
0

>  <SCORE.INTER.SOLV>
3.45174

>  <SCORE.INTER.VDW>
-20.6193

>  <SCORE.INTER.norm>
-2.3803

>  <SCORE.INTRA>
0

>  <SCORE.INTRA.DIHEDRAL>
0

>  <SCORE.INTRA.DIHEDRAL.0>
0

>  <SCORE.INTRA.POLAR>
0

>  <SCORE.INTRA.POLAR.0>
0

>  <SCORE.INTRA.REPUL>
0

>  <SCORE.INTRA.REPUL.0>
0

>  <SCORE.INTRA.SOLV>
0

>  <SCORE.INTRA.SOLV.lig_0>
-4.1818

>  <SCORE.INTRA.VDW>
0

>  <SCORE.INTRA.VDW.0>
0

>  <SCORE.INTRA.norm>
0

>  <SCORE.RESTR>
0

>  <SCORE.RESTR.CAVITY>
0

>  <SCORE.RESTR.norm>
0

>  <SCORE.SYSTEM>
0

>  <SCORE.SYSTEM.CONST>
0

>  <SCORE.SYSTEM.DIHEDRAL>
0

>  <SCORE.SYSTEM.SOLV>
0

>  <SCORE.SYSTEM.norm>
0

>  <SCORE.heavy>
10

>  <SCORE.norm>
-2.3803

>  <RMSD>
3.133

$$$$
ligand
 OpenBabel11021811503D
libRbt.so/2013.1/901 2013/11/27
 10 11  0  0  0  0  0  0  0  0999 V2000
   17.6800   -0.6579    2.7160 N   0  0  0  0  0  0  0  0  0  0  0  0
   16.5598   -0.8164    3.3959 C   0  0  0  0  0  0  0  0  0  0  0  0
   16.1953   -2.0974    3.8238 N   0  0  0  0  0  0  0  0  0  0  0  0
   16.9740   -3.1471    3.5278 C   0  0  0  0  0  0  0  0  0  0  0  0
   18.0994   -2.9819    2.8366 C   0  0  0  0  0  0  0  0  0  0  0  0
   18.4788   -1.7714    2.4341 C   0  0  0  0  0  0  0  0  0  0  0  0
   19.5330   -1.6169    1.8197 O   0  0  0  0  0  0  0  0  0  0  0  0
   18.6258   -4.1849    2.6244 N   0  0  0  0  0  0  0  0  0  0  0  0
   17.8331   -5.0920    3.1864 C   0  0  0  0  0  0  0  0  0  0  0  0
   16.8160   -4.4476    3.7514 N   0  0  0  0  0  0  0  0  0  0  0  0
  1  2  1  0  0  0  0
  1  6  1  0  0  0  0
  2  3  2  0  0  0  0
  3  4  1  0  0  0  0
  4  5  2  0  0  0  0
  4 10  1  0  0  0  0
  5  6  1  0  0  0  0
  5  8  1  0  0  0  0
  6  7  2  0  0  0  0
  8  9  1  0  0  0  0
  9 10  2  0  0  0  0
M  END
>  <CHROM.1>
17.71431135,-2.65922165,2.98874471,1.42749669,0.52496393,-0.12661180

>  <Name>
ligand

>  <RI>
0

>  <Rbt.Current_Directory>
/home/itssahil/PROJECTS/Mol_Feturizer/New_Systems/rnas/4NYD

>  <Rbt.Executable>
rbdock ($Id: //depot/dev/client3/rdock/2013.1/src/exe/rbdock.cxx#4 $)

>  <Rbt.Library>
libRbt.so (2013.1, Build901 2013/11/27)

>  <Rbt.Parameter_File>
/export/apps/rDock/src/rDock_2013.1_src/data/scripts/dock_solv.prm

>  <Rbt.Receptor>
prm/pocket_docking_8.prm

>  <SCORE>
-23.7654

>  <SCORE.INTER>
-23.7654

>  <SCORE.INTER.CONST>
1

>  <SCORE.INTER.POLAR>
0

>  <SCORE.INTER.ROT>
0

>  <SCORE.INTER.SOLV>
3.42066

>  <SCORE.INTER.VDW>
-20.5838

>  <SCORE.INTER.norm>
-2.37654

>  <SCORE.INTRA>
0

>  <SCORE.INTRA.DIHEDRAL>
0

>  <SCORE.INTRA.DIHEDRAL.0>
0

>  <SCORE.INTRA.POLAR>
0

>  <SCORE.INTRA.POLAR.0>
0

>  <SCORE.INTRA.REPUL>
0

>  <SCORE.INTRA.REPUL.0>
0

>  <SCORE.INTRA.SOLV>
0

>  <SCORE.INTRA.SOLV.lig_0>
-4.1818

>  <SCORE.INTRA.VDW>
0

>  <SCORE.INTRA.VDW.0>
0

>  <SCORE.INTRA.norm>
0

>  <SCORE.RESTR>
0

>  <SCORE.RESTR.CAVITY>
0

>  <SCORE.RESTR.norm>
0

>  <SCORE.SYSTEM>
0

>  <SCORE.SYSTEM.CONST>
0

>  <SCORE.SYSTEM.DIHEDRAL>
0

>  <SCORE.SYSTEM.SOLV>
0

>  <SCORE.SYSTEM.norm>
0

>  <SCORE.heavy>
10

>  <SCORE.norm>
-2.37654

>  <RMSD>
3.133

$$$$
ligand
 OpenBabel11021811503D
libRbt.so/2013.1/901 2013/11/27
 10 11  0  0  0  0  0  0  0  0999 V2000
   17.6614   -0.6820    2.7593 N   0  0  0  0  0  0  0  0  0  0  0  0
   16.5777   -0.8677    3.4897 C   0  0  0  0  0  0  0  0  0  0  0  0
   16.2485   -2.1615    3.9075 N   0  0  0  0  0  0  0  0  0  0  0  0
   17.0231   -3.1956    3.5515 C   0  0  0  0  0  0  0  0  0  0  0  0
   18.1112   -3.0028    2.8098 C   0  0  0  0  0  0  0  0  0  0  0  0
   18.4574   -1.7799    2.4151 C   0  0  0  0  0  0  0  0  0  0  0  0
   19.4784   -1.6002    1.7534 O   0  0  0  0  0  0  0  0  0  0  0  0
   18.6396   -4.1949    2.5466 N   0  0  0  0  0  0  0  0  0  0  0  0
   17.8852   -5.1227    3.1273 C   0  0  0  0  0  0  0  0  0  0  0  0
   16.8902   -4.5022    3.7550 N   0  0  0  0  0  0  0  0  0  0  0  0
  1  2  1  0  0  0  0
  1  6  1  0  0  0  0
  2  3  2  0  0  0  0
  3  4  1  0  0  0  0
  4  5  2  0  0  0  0
  4 10  1  0  0  0  0
  5  6  1  0  0  0  0
  5  8  1  0  0  0  0
  6  7  2  0  0  0  0
  8  9  1  0  0  0  0
  9 10  2  0  0  0  0
M  END
>  <CHROM.1>
17.73066983,-2.68792910,2.98745319,1.44760490,0.57225200,-0.11610003

>  <Name>
ligand

>  <RI>
0

>  <Rbt.Current_Directory>
/home/itssahil/PROJECTS/Mol_Feturizer/New_Systems/rnas/4NYD

>  <Rbt.Executable>
rbdock ($Id: //depot/dev/client3/rdock/2013.1/src/exe/rbdock.cxx#4 $)

>  <Rbt.Library>
libRbt.so (2013.1, Build901 2013/11/27)

>  <Rbt.Parameter_File>
/export/apps/rDock/src/rDock_2013.1_src/data/scripts/dock_solv.prm

>  <Rbt.Receptor>
prm/pocket_docking_8.prm

>  <SCORE>
-23.7773

>  <SCORE.INTER>
-23.7773

>  <SCORE.INTER.CONST>
1

>  <SCORE.INTER.POLAR>
0

>  <SCORE.INTER.ROT>
0

>  <SCORE.INTER.SOLV>
3.45048

>  <SCORE.INTER.VDW>
-20.6017

>  <SCORE.INTER.norm>
-2.37773

>  <SCORE.INTRA>
0

>  <SCORE.INTRA.DIHEDRAL>
0

>  <SCORE.INTRA.DIHEDRAL.0>
0

>  <SCORE.INTRA.POLAR>
0

>  <SCORE.INTRA.POLAR.0>
0

>  <SCORE.INTRA.REPUL>
0

>  <SCORE.INTRA.REPUL.0>
0

>  <SCORE.INTRA.SOLV>
0

>  <SCORE.INTRA.SOLV.lig_0>
-4.1818

>  <SCORE.INTRA.VDW>
0

>  <SCORE.INTRA.VDW.0>
0

>  <SCORE.INTRA.norm>
0

>  <SCORE.RESTR>
0

>  <SCORE.RESTR.CAVITY>
0

>  <SCORE.RESTR.norm>
0

>  <SCORE.SYSTEM>
0

>  <SCORE.SYSTEM.CONST>
0

>  <SCORE.SYSTEM.DIHEDRAL>
0

>  <SCORE.SYSTEM.SOLV>
0

>  <SCORE.SYSTEM.norm>
0

>  <SCORE.heavy>
10

>  <SCORE.norm>
-2.37773

>  <RMSD>
3.133

$$$$
ligand
 OpenBabel11021811503D
libRbt.so/2013.1/901 2013/11/27
 10 11  0  0  0  0  0  0  0  0999 V2000
   17.6597   -0.6828    2.7574 N   0  0  0  0  0  0  0  0  0  0  0  0
   16.5685   -0.8635    3.4778 C   0  0  0  0  0  0  0  0  0  0  0  0
   16.2358   -2.1542    3.9024 N   0  0  0  0  0  0  0  0  0  0  0  0
   17.0148   -3.1905    3.5627 C   0  0  0  0  0  0  0  0  0  0  0  0
   18.1105   -3.0028    2.8309 C   0  0  0  0  0  0  0  0  0  0  0  0
   18.4600   -1.7827    2.4302 C   0  0  0  0  0  0  0  0  0  0  0  0
   19.4877   -1.6075    1.7778 O   0  0  0  0  0  0  0  0  0  0  0  0
   18.6423   -4.1965    2.5826 N   0  0  0  0  0  0  0  0  0  0  0  0
   17.8826   -5.1203    3.1626 C   0  0  0  0  0  0  0  0  0  0  0  0
   16.8807   -4.4956    3.7750 N   0  0  0  0  0  0  0  0  0  0  0  0
  1  2  1  0  0  0  0
  1  6  1  0  0  0  0
  2  3  2  0  0  0  0
  3  4  1  0  0  0  0
  4  5  2  0  0  0  0
  4 10  1  0  0  0  0
  5  6  1  0  0  0  0
  5  8  1  0  0  0  0
  6  7  2  0  0  0  0
  8  9  1  0  0  0  0
  9 10  2  0  0  0  0
M  END
>  <CHROM.1>
17.72788916,-2.68679241,3.00203422,1.44693662,0.56179237,-0.12360206

>  <Name>
ligand

>  <RI>
0

>  <Rbt.Current_Directory>
/home/itssahil/PROJECTS/Mol_Feturizer/New_Systems/rnas/4NYD

>  <Rbt.Executable>
rbdock ($Id: //depot/dev/client3/rdock/2013.1/src/exe/rbdock.cxx#4 $)

>  <Rbt.Library>
libRbt.so (2013.1, Build901 2013/11/27)

>  <Rbt.Parameter_File>
/export/apps/rDock/src/rDock_2013.1_src/data/scripts/dock_solv.prm

>  <Rbt.Receptor>
prm/blind_docking_100.prm

>  <SCORE>
-23.8002

>  <SCORE.INTER>
-23.8002

>  <SCORE.INTER.CONST>
1

>  <SCORE.INTER.POLAR>
0

>  <SCORE.INTER.ROT>
0

>  <SCORE.INTER.SOLV>
3.4501

>  <SCORE.INTER.VDW>
-20.6168

>  <SCORE.INTER.norm>
-2.38002

>  <SCORE.INTRA>
0

>  <SCORE.INTRA.DIHEDRAL>
0

>  <SCORE.INTRA.DIHEDRAL.0>
0

>  <SCORE.INTRA.POLAR>
0

>  <SCORE.INTRA.POLAR.0>
0

>  <SCORE.INTRA.REPUL>
0

>  <SCORE.INTRA.REPUL.0>
0

>  <SCORE.INTRA.SOLV>
0

>  <SCORE.INTRA.SOLV.lig_0>
-4.1818

>  <SCORE.INTRA.VDW>
0

>  <SCORE.INTRA.VDW.0>
0

>  <SCORE.INTRA.norm>
0

>  <SCORE.RESTR>
0

>  <SCORE.RESTR.CAVITY>
0

>  <SCORE.RESTR.norm>
0

>  <SCORE.SYSTEM>
0

>  <SCORE.SYSTEM.CONST>
0

>  <SCORE.SYSTEM.DIHEDRAL>
0

>  <SCORE.SYSTEM.SOLV>
0

>  <SCORE.SYSTEM.norm>
0

>  <SCORE.heavy>
10

>  <SCORE.norm>
-2.38002

>  <RMSD>
3.134

$$$$
ligand
 OpenBabel11021811503D
libRbt.so/2013.1/901 2013/11/27
 10 11  0  0  0  0  0  0  0  0999 V2000
   17.6682   -0.6743    2.7766 N   0  0  0  0  0  0  0  0  0  0  0  0
   16.5753   -0.8586    3.4935 C   0  0  0  0  0  0  0  0  0  0  0  0
   16.2398   -2.1518    3.9081 N   0  0  0  0  0  0  0  0  0  0  0  0
   17.0179   -3.1869    3.5626 C   0  0  0  0  0  0  0  0  0  0  0  0
   18.1154   -2.9955    2.8345 C   0  0  0  0  0  0  0  0  0  0  0  0
   18.4675   -1.7731    2.4433 C   0  0  0  0  0  0  0  0  0  0  0  0
   19.4969   -1.5948    1.7942 O   0  0  0  0  0  0  0  0  0  0  0  0
   18.6461   -4.1882    2.5788 N   0  0  0  0  0  0  0  0  0  0  0  0
   17.8837   -5.1150    3.1506 C   0  0  0  0  0  0  0  0  0  0  0  0
   16.8815   -4.4932    3.7653 N   0  0  0  0  0  0  0  0  0  0  0  0
  1  2  1  0  0  0  0
  1  6  1  0  0  0  0
  2  3  2  0  0  0  0
  3  4  1  0  0  0  0
  4  5  2  0  0  0  0
  4 10  1  0  0  0  0
  5  6  1  0  0  0  0
  5  8  1  0  0  0  0
  6  7  2  0  0  0  0
  8  9  1  0  0  0  0
  9 10  2  0  0  0  0
M  END
>  <CHROM.1>
17.73294312,-2.68017353,3.00711277,1.44492494,0.55990460,-0.11539718

>  <Name>
ligand

>  <RI>
0

>  <Rbt.Current_Directory>
/home/itssahil/PROJECTS/Mol_Feturizer/New_Systems/rnas/4NYD

>  <Rbt.Executable>
rbdock ($Id: //depot/dev/client3/rdock/2013.1/src/exe/rbdock.cxx#4 $)

>  <Rbt.Library>
libRbt.so (2013.1, Build901 2013/11/27)

>  <Rbt.Parameter_File>
/export/apps/rDock/src/rDock_2013.1_src/data/scripts/dock_solv.prm

>  <Rbt.Receptor>
prm/blind_docking_60.prm

>  <SCORE>
-23.7826

>  <SCORE.INTER>
-23.7826

>  <SCORE.INTER.CONST>
1

>  <SCORE.INTER.POLAR>
0

>  <SCORE.INTER.ROT>
0

>  <SCORE.INTER.SOLV>
3.46031

>  <SCORE.INTER.VDW>
-20.6085

>  <SCORE.INTER.norm>
-2.37826

>  <SCORE.INTRA>
0

>  <SCORE.INTRA.DIHEDRAL>
0

>  <SCORE.INTRA.DIHEDRAL.0>
0

>  <SCORE.INTRA.POLAR>
0

>  <SCORE.INTRA.POLAR.0>
0

>  <SCORE.INTRA.REPUL>
0

>  <SCORE.INTRA.REPUL.0>
0

>  <SCORE.INTRA.SOLV>
0

>  <SCORE.INTRA.SOLV.lig_0>
-4.1818

>  <SCORE.INTRA.VDW>
0

>  <SCORE.INTRA.VDW.0>
0

>  <SCORE.INTRA.norm>
0

>  <SCORE.RESTR>
0

>  <SCORE.RESTR.CAVITY>
0

>  <SCORE.RESTR.norm>
0

>  <SCORE.SYSTEM>
0

>  <SCORE.SYSTEM.CONST>
0

>  <SCORE.SYSTEM.DIHEDRAL>
0

>  <SCORE.SYSTEM.SOLV>
0

>  <SCORE.SYSTEM.norm>
0

>  <SCORE.heavy>
10

>  <SCORE.norm>
-2.37826

>  <RMSD>
3.134

$$$$
ligand
 OpenBabel11021811503D
libRbt.so/2013.1/901 2013/11/27
 10 11  0  0  0  0  0  0  0  0999 V2000
   17.6760   -0.6709    2.7713 N   0  0  0  0  0  0  0  0  0  0  0  0
   16.5816   -0.8484    3.4875 C   0  0  0  0  0  0  0  0  0  0  0  0
   16.2379   -2.1395    3.9020 N   0  0  0  0  0  0  0  0  0  0  0  0
   17.0099   -3.1793    3.5570 C   0  0  0  0  0  0  0  0  0  0  0  0
   18.1090   -2.9948    2.8296 C   0  0  0  0  0  0  0  0  0  0  0  0
   18.4689   -1.7746    2.4385 C   0  0  0  0  0  0  0  0  0  0  0  0
   19.4997   -1.6026    1.7902 O   0  0  0  0  0  0  0  0  0  0  0  0
   18.6325   -4.1907    2.5743 N   0  0  0  0  0  0  0  0  0  0  0  0
   17.8641   -5.1127    3.1457 C   0  0  0  0  0  0  0  0  0  0  0  0
   16.8653   -4.4848    3.7597 N   0  0  0  0  0  0  0  0  0  0  0  0
  1  2  1  0  0  0  0
  1  6  1  0  0  0  0
  2  3  2  0  0  0  0
  3  4  1  0  0  0  0
  4  5  2  0  0  0  0
  4 10  1  0  0  0  0
  5  6  1  0  0  0  0
  5  8  1  0  0  0  0
  6  7  2  0  0  0  0
  8  9  1  0  0  0  0
  9 10  2  0  0  0  0
M  END
>  <CHROM.1>
17.72836429,-2.67706811,3.00194991,1.43765007,0.55994576,-0.11157945

>  <Name>
ligand

>  <RI>
0

>  <Rbt.Current_Directory>
/home/itssahil/PROJECTS/Mol_Feturizer/New_Systems/rnas/4NYD

>  <Rbt.Executable>
rbdock ($Id: //depot/dev/client3/rdock/2013.1/src/exe/rbdock.cxx#4 $)

>  <Rbt.Library>
libRbt.so (2013.1, Build901 2013/11/27)

>  <Rbt.Parameter_File>
/export/apps/rDock/src/rDock_2013.1_src/data/scripts/dock_solv.prm

>  <Rbt.Receptor>
prm/pocket_docking_3.prm

>  <SCORE>
-23.8038

>  <SCORE.INTER>
-23.8038

>  <SCORE.INTER.CONST>
1

>  <SCORE.INTER.POLAR>
0

>  <SCORE.INTER.ROT>
0

>  <SCORE.INTER.SOLV>
3.46097

>  <SCORE.INTER.VDW>
-20.6228

>  <SCORE.INTER.norm>
-2.38038

>  <SCORE.INTRA>
0

>  <SCORE.INTRA.DIHEDRAL>
0

>  <SCORE.INTRA.DIHEDRAL.0>
0

>  <SCORE.INTRA.POLAR>
0

>  <SCORE.INTRA.POLAR.0>
0

>  <SCORE.INTRA.REPUL>
0

>  <SCORE.INTRA.REPUL.0>
0

>  <SCORE.INTRA.SOLV>
0

>  <SCORE.INTRA.SOLV.lig_0>
-4.1818

>  <SCORE.INTRA.VDW>
0

>  <SCORE.INTRA.VDW.0>
0

>  <SCORE.INTRA.norm>
0

>  <SCORE.RESTR>
0

>  <SCORE.RESTR.CAVITY>
0

>  <SCORE.RESTR.norm>
0

>  <SCORE.SYSTEM>
0

>  <SCORE.SYSTEM.CONST>
0

>  <SCORE.SYSTEM.DIHEDRAL>
0

>  <SCORE.SYSTEM.SOLV>
0

>  <SCORE.SYSTEM.norm>
0

>  <SCORE.heavy>
10

>  <SCORE.norm>
-2.38038

>  <RMSD>
3.134

$$$$
ligand
 OpenBabel11021811503D
libRbt.so/2013.1/901 2013/11/27
 10 11  0  0  0  0  0  0  0  0999 V2000
   17.6671   -0.6769    2.7668 N   0  0  0  0  0  0  0  0  0  0  0  0
   16.5765   -0.8584    3.4879 C   0  0  0  0  0  0  0  0  0  0  0  0
   16.2415   -2.1502    3.9073 N   0  0  0  0  0  0  0  0  0  0  0  0
   17.0178   -3.1867    3.5622 C   0  0  0  0  0  0  0  0  0  0  0  0
   18.1131   -2.9982    2.8299 C   0  0  0  0  0  0  0  0  0  0  0  0
   18.4646   -1.7771    2.4340 C   0  0  0  0  0  0  0  0  0  0  0  0
   19.4920   -1.6014    1.7811 O   0  0  0  0  0  0  0  0  0  0  0  0
   18.6421   -4.1919    2.5759 N   0  0  0  0  0  0  0  0  0  0  0  0
   17.8810   -5.1165    3.1529 C   0  0  0  0  0  0  0  0  0  0  0  0
   16.8812   -4.4924    3.7691 N   0  0  0  0  0  0  0  0  0  0  0  0
  1  2  1  0  0  0  0
  1  6  1  0  0  0  0
  2  3  2  0  0  0  0
  3  4  1  0  0  0  0
  4  5  2  0  0  0  0
  4 10  1  0  0  0  0
  5  6  1  0  0  0  0
  5  8  1  0  0  0  0
  6  7  2  0  0  0  0
  8  9  1  0  0  0  0
  9 10  2  0  0  0  0
M  END
>  <CHROM.1>
17.73134193,-2.68208650,3.00287102,1.44460110,0.56326343,-0.11810089

>  <Name>
ligand

>  <RI>
0

>  <Rbt.Current_Directory>
/home/itssahil/PROJECTS/Mol_Feturizer/New_Systems/rnas/4NYD

>  <Rbt.Executable>
rbdock ($Id: //depot/dev/client3/rdock/2013.1/src/exe/rbdock.cxx#4 $)

>  <Rbt.Library>
libRbt.so (2013.1, Build901 2013/11/27)

>  <Rbt.Parameter_File>
/export/apps/rDock/src/rDock_2013.1_src/data/scripts/dock_solv.prm

>  <Rbt.Receptor>
prm/pocket_docking_5.prm

>  <SCORE>
-23.7825

>  <SCORE.INTER>
-23.7825

>  <SCORE.INTER.CONST>
1

>  <SCORE.INTER.POLAR>
0

>  <SCORE.INTER.ROT>
0

>  <SCORE.INTER.SOLV>
3.45621

>  <SCORE.INTER.VDW>
-20.6071

>  <SCORE.INTER.norm>
-2.37825

>  <SCORE.INTRA>
0

>  <SCORE.INTRA.DIHEDRAL>
0

>  <SCORE.INTRA.DIHEDRAL.0>
0

>  <SCORE.INTRA.POLAR>
0

>  <SCORE.INTRA.POLAR.0>
0

>  <SCORE.INTRA.REPUL>
0

>  <SCORE.INTRA.REPUL.0>
0

>  <SCORE.INTRA.SOLV>
0

>  <SCORE.INTRA.SOLV.lig_0>
-4.1818

>  <SCORE.INTRA.VDW>
0

>  <SCORE.INTRA.VDW.0>
0

>  <SCORE.INTRA.norm>
0

>  <SCORE.RESTR>
0

>  <SCORE.RESTR.CAVITY>
0

>  <SCORE.RESTR.norm>
0

>  <SCORE.SYSTEM>
0

>  <SCORE.SYSTEM.CONST>
0

>  <SCORE.SYSTEM.DIHEDRAL>
0

>  <SCORE.SYSTEM.SOLV>
0

>  <SCORE.SYSTEM.norm>
0

>  <SCORE.heavy>
10

>  <SCORE.norm>
-2.37825

>  <RMSD>
3.134

$$$$
ligand
 OpenBabel11021811503D
libRbt.so/2013.1/901 2013/11/27
 10 11  0  0  0  0  0  0  0  0999 V2000
   17.6740   -0.6711    2.7735 N   0  0  0  0  0  0  0  0  0  0  0  0
   16.5793   -0.8503    3.4890 C   0  0  0  0  0  0  0  0  0  0  0  0
   16.2394   -2.1414    3.9066 N   0  0  0  0  0  0  0  0  0  0  0  0
   17.0152   -3.1796    3.5653 C   0  0  0  0  0  0  0  0  0  0  0  0
   18.1146   -2.9934    2.8386 C   0  0  0  0  0  0  0  0  0  0  0  0
   18.4708   -1.7731    2.4446 C   0  0  0  0  0  0  0  0  0  0  0  0
   19.5018   -1.5995    1.7969 O   0  0  0  0  0  0  0  0  0  0  0  0
   18.6422   -4.1882    2.5871 N   0  0  0  0  0  0  0  0  0  0  0  0
   17.8762   -5.1112    3.1602 C   0  0  0  0  0  0  0  0  0  0  0  0
   16.8746   -4.4850    3.7714 N   0  0  0  0  0  0  0  0  0  0  0  0
  1  2  1  0  0  0  0
  1  6  1  0  0  0  0
  2  3  2  0  0  0  0
  3  4  1  0  0  0  0
  4  5  2  0  0  0  0
  4 10  1  0  0  0  0
  5  6  1  0  0  0  0
  5  8  1  0  0  0  0
  6  7  2  0  0  0  0
  8  9  1  0  0  0  0
  9 10  2  0  0  0  0
M  END
>  <CHROM.1>
17.73264927,-2.67644947,3.00966106,1.44133846,0.55846731,-0.11626644

>  <Name>
ligand

>  <RI>
0

>  <Rbt.Current_Directory>
/home/itssahil/PROJECTS/Mol_Feturizer/New_Systems/rnas/4NYD

>  <Rbt.Executable>
rbdock ($Id: //depot/dev/client3/rdock/2013.1/src/exe/rbdock.cxx#4 $)

>  <Rbt.Library>
libRbt.so (2013.1, Build901 2013/11/27)

>  <Rbt.Parameter_File>
/export/apps/rDock/src/rDock_2013.1_src/data/scripts/dock_solv.prm

>  <Rbt.Receptor>
prm/pocket_docking_8.prm

>  <SCORE>
-23.7673

>  <SCORE.INTER>
-23.7673

>  <SCORE.INTER.CONST>
1

>  <SCORE.INTER.POLAR>
0

>  <SCORE.INTER.ROT>
0

>  <SCORE.INTER.SOLV>
3.4621

>  <SCORE.INTER.VDW>
-20.5989

>  <SCORE.INTER.norm>
-2.37673

>  <SCORE.INTRA>
0

>  <SCORE.INTRA.DIHEDRAL>
0

>  <SCORE.INTRA.DIHEDRAL.0>
0

>  <SCORE.INTRA.POLAR>
0

>  <SCORE.INTRA.POLAR.0>
0

>  <SCORE.INTRA.REPUL>
0

>  <SCORE.INTRA.REPUL.0>
0

>  <SCORE.INTRA.SOLV>
0

>  <SCORE.INTRA.SOLV.lig_0>
-4.1818

>  <SCORE.INTRA.VDW>
0

>  <SCORE.INTRA.VDW.0>
0

>  <SCORE.INTRA.norm>
0

>  <SCORE.RESTR>
0

>  <SCORE.RESTR.CAVITY>
0

>  <SCORE.RESTR.norm>
0

>  <SCORE.SYSTEM>
0

>  <SCORE.SYSTEM.CONST>
0

>  <SCORE.SYSTEM.DIHEDRAL>
0

>  <SCORE.SYSTEM.SOLV>
0

>  <SCORE.SYSTEM.norm>
0

>  <SCORE.heavy>
10

>  <SCORE.norm>
-2.37673

>  <RMSD>
3.134

$$$$
ligand
 OpenBabel11021811503D
libRbt.so/2013.1/901 2013/11/27
 10 11  0  0  0  0  0  0  0  0999 V2000
   17.6679   -0.6740    2.7711 N   0  0  0  0  0  0  0  0  0  0  0  0
   16.5697   -0.8546    3.4809 C   0  0  0  0  0  0  0  0  0  0  0  0
   16.2278   -2.1466    3.8942 N   0  0  0  0  0  0  0  0  0  0  0  0
   17.0052   -3.1841    3.5545 C   0  0  0  0  0  0  0  0  0  0  0  0
   18.1081   -2.9964    2.8335 C   0  0  0  0  0  0  0  0  0  0  0  0
   18.4662   -1.7752    2.4438 C   0  0  0  0  0  0  0  0  0  0  0  0
   19.5004   -1.6003    1.8014 O   0  0  0  0  0  0  0  0  0  0  0  0
   18.6369   -4.1907    2.5821 N   0  0  0  0  0  0  0  0  0  0  0  0
   17.8682   -5.1149    3.1495 C   0  0  0  0  0  0  0  0  0  0  0  0
   16.8637   -4.4899    3.7572 N   0  0  0  0  0  0  0  0  0  0  0  0
  1  2  1  0  0  0  0
  1  6  1  0  0  0  0
  2  3  2  0  0  0  0
  3  4  1  0  0  0  0
  4  5  2  0  0  0  0
  4 10  1  0  0  0  0
  5  6  1  0  0  0  0
  5  8  1  0  0  0  0
  6  7  2  0  0  0  0
  8  9  1  0  0  0  0
  9 10  2  0  0  0  0
M  END
>  <CHROM.1>
17.72534646,-2.67980906,3.00340089,1.44067793,0.55368453,-0.11383810

>  <Name>
ligand

>  <RI>
0

>  <Rbt.Current_Directory>
/home/itssahil/PROJECTS/Mol_Feturizer/New_Systems/rnas/4NYD

>  <Rbt.Executable>
rbdock ($Id: //depot/dev/client3/rdock/2013.1/src/exe/rbdock.cxx#4 $)

>  <Rbt.Library>
libRbt.so (2013.1, Build901 2013/11/27)

>  <Rbt.Parameter_File>
/export/apps/rDock/src/rDock_2013.1_src/data/scripts/dock_solv.prm

>  <Rbt.Receptor>
prm/blind_docking_100.prm

>  <SCORE>
-23.7954

>  <SCORE.INTER>
-23.7954

>  <SCORE.INTER.CONST>
1

>  <SCORE.INTER.POLAR>
0

>  <SCORE.INTER.ROT>
0

>  <SCORE.INTER.SOLV>
3.45657

>  <SCORE.INTER.VDW>
-20.6158

>  <SCORE.INTER.norm>
-2.37954

>  <SCORE.INTRA>
0

>  <SCORE.INTRA.DIHEDRAL>
0

>  <SCORE.INTRA.DIHEDRAL.0>
0

>  <SCORE.INTRA.POLAR>
0

>  <SCORE.INTRA.POLAR.0>
0

>  <SCORE.INTRA.REPUL>
0

>  <SCORE.INTRA.REPUL.0>
0

>  <SCORE.INTRA.SOLV>
0

>  <SCORE.INTRA.SOLV.lig_0>
-4.1818

>  <SCORE.INTRA.VDW>
0

>  <SCORE.INTRA.VDW.0>
0

>  <SCORE.INTRA.norm>
0

>  <SCORE.RESTR>
0

>  <SCORE.RESTR.CAVITY>
0

>  <SCORE.RESTR.norm>
0

>  <SCORE.SYSTEM>
0

>  <SCORE.SYSTEM.CONST>
0

>  <SCORE.SYSTEM.DIHEDRAL>
0

>  <SCORE.SYSTEM.SOLV>
0

>  <SCORE.SYSTEM.norm>
0

>  <SCORE.heavy>
10

>  <SCORE.norm>
-2.37954

>  <RMSD>
3.135

$$$$
ligand
 OpenBabel11021811503D
libRbt.so/2013.1/901 2013/11/27
 10 11  0  0  0  0  0  0  0  0999 V2000
   17.6668   -0.6758    2.7746 N   0  0  0  0  0  0  0  0  0  0  0  0
   16.5746   -0.8576    3.4931 C   0  0  0  0  0  0  0  0  0  0  0  0
   16.2388   -2.1496    3.9114 N   0  0  0  0  0  0  0  0  0  0  0  0
   17.0161   -3.1859    3.5678 C   0  0  0  0  0  0  0  0  0  0  0  0
   18.1129   -2.9971    2.8379 C   0  0  0  0  0  0  0  0  0  0  0  0
   18.4652   -1.7759    2.4432 C   0  0  0  0  0  0  0  0  0  0  0  0
   19.4940   -1.5998    1.7926 O   0  0  0  0  0  0  0  0  0  0  0  0
   18.6426   -4.1907    2.5847 N   0  0  0  0  0  0  0  0  0  0  0  0
   17.8804   -5.1155    3.1598 C   0  0  0  0  0  0  0  0  0  0  0  0
   16.8791   -4.4917    3.7740 N   0  0  0  0  0  0  0  0  0  0  0  0
  1  2  1  0  0  0  0
  1  6  1  0  0  0  0
  2  3  2  0  0  0  0
  3  4  1  0  0  0  0
  4  5  2  0  0  0  0
  4 10  1  0  0  0  0
  5  6  1  0  0  0  0
  5  8  1  0  0  0  0
  6  7  2  0  0  0  0
  8  9  1  0  0  0  0
  9 10  2  0  0  0  0
M  END
>  <CHROM.1>
17.73075352,-2.68106474,3.01016189,1.44443527,0.56103172,-0.11771361

>  <Name>
ligand

>  <RI>
0

>  <Rbt.Current_Directory>
/home/itssahil/PROJECTS/Mol_Feturizer/New_Systems/rnas/4NYD

>  <Rbt.Executable>
rbdock ($Id: //depot/dev/client3/rdock/2013.1/src/exe/rbdock.cxx#4 $)

>  <Rbt.Library>
libRbt.so (2013.1, Build901 2013/11/27)

>  <Rbt.Parameter_File>
/export/apps/rDock/src/rDock_2013.1_src/data/scripts/dock_solv.prm

>  <Rbt.Receptor>
prm/blind_docking_60.prm

>  <SCORE>
-23.7668

>  <SCORE.INTER>
-23.7668

>  <SCORE.INTER.CONST>
1

>  <SCORE.INTER.POLAR>
0

>  <SCORE.INTER.ROT>
0

>  <SCORE.INTER.SOLV>
3.46192

>  <SCORE.INTER.VDW>
-20.5985

>  <SCORE.INTER.norm>
-2.37668

>  <SCORE.INTRA>
0

>  <SCORE.INTRA.DIHEDRAL>
0

>  <SCORE.INTRA.DIHEDRAL.0>
0

>  <SCORE.INTRA.POLAR>
0

>  <SCORE.INTRA.POLAR.0>
0

>  <SCORE.INTRA.REPUL>
0

>  <SCORE.INTRA.REPUL.0>
0

>  <SCORE.INTRA.SOLV>
0

>  <SCORE.INTRA.SOLV.lig_0>
-4.1818

>  <SCORE.INTRA.VDW>
0

>  <SCORE.INTRA.VDW.0>
0

>  <SCORE.INTRA.norm>
0

>  <SCORE.RESTR>
0

>  <SCORE.RESTR.CAVITY>
0

>  <SCORE.RESTR.norm>
0

>  <SCORE.SYSTEM>
0

>  <SCORE.SYSTEM.CONST>
0

>  <SCORE.SYSTEM.DIHEDRAL>
0

>  <SCORE.SYSTEM.SOLV>
0

>  <SCORE.SYSTEM.norm>
0

>  <SCORE.heavy>
10

>  <SCORE.norm>
-2.37668

>  <RMSD>
3.135

$$$$
ligand
 OpenBabel11021811503D
libRbt.so/2013.1/901 2013/11/27
 10 11  0  0  0  0  0  0  0  0999 V2000
   17.6605   -0.6803    2.7775 N   0  0  0  0  0  0  0  0  0  0  0  0
   16.5698   -0.8671    3.4971 C   0  0  0  0  0  0  0  0  0  0  0  0
   16.2384   -2.1610    3.9127 N   0  0  0  0  0  0  0  0  0  0  0  0
   17.0181   -3.1943    3.5653 C   0  0  0  0  0  0  0  0  0  0  0  0
   18.1133   -3.0004    2.8344 C   0  0  0  0  0  0  0  0  0  0  0  0
   18.4616   -1.7772    2.4422 C   0  0  0  0  0  0  0  0  0  0  0  0
   19.4889   -1.5965    1.7906 O   0  0  0  0  0  0  0  0  0  0  0  0
   18.6461   -4.1918    2.5774 N   0  0  0  0  0  0  0  0  0  0  0  0
   17.8874   -5.1203    3.1512 C   0  0  0  0  0  0  0  0  0  0  0  0
   16.8852   -4.5009    3.7684 N   0  0  0  0  0  0  0  0  0  0  0  0
  1  2  1  0  0  0  0
  1  6  1  0  0  0  0
  2  3  2  0  0  0  0
  3  4  1  0  0  0  0
  4  5  2  0  0  0  0
  4 10  1  0  0  0  0
  5  6  1  0  0  0  0
  5  8  1  0  0  0  0
  6  7  2  0  0  0  0
  8  9  1  0  0  0  0
  9 10  2  0  0  0  0
M  END
>  <CHROM.1>
17.73053385,-2.68593289,3.00795629,1.44800907,0.56211377,-0.11710173

>  <Name>
ligand

>  <RI>
0

>  <Rbt.Current_Directory>
/home/itssahil/PROJECTS/Mol_Feturizer/New_Systems/rnas/4NYD

>  <Rbt.Executable>
rbdock ($Id: //depot/dev/client3/rdock/2013.1/src/exe/rbdock.cxx#4 $)

>  <Rbt.Library>
libRbt.so (2013.1, Build901 2013/11/27)

>  <Rbt.Parameter_File>
/export/apps/rDock/src/rDock_2013.1_src/data/scripts/dock_solv.prm

>  <Rbt.Receptor>
prm/blind_docking_80.prm

>  <SCORE>
-23.7811

>  <SCORE.INTER>
-23.7811

>  <SCORE.INTER.CONST>
1

>  <SCORE.INTER.POLAR>
0

>  <SCORE.INTER.ROT>
0

>  <SCORE.INTER.SOLV>
3.45987

>  <SCORE.INTER.VDW>
-20.6074

>  <SCORE.INTER.norm>
-2.37811

>  <SCORE.INTRA>
0

>  <SCORE.INTRA.DIHEDRAL>
0

>  <SCORE.INTRA.DIHEDRAL.0>
0

>  <SCORE.INTRA.POLAR>
0

>  <SCORE.INTRA.POLAR.0>
0

>  <SCORE.INTRA.REPUL>
0

>  <SCORE.INTRA.REPUL.0>
0

>  <SCORE.INTRA.SOLV>
0

>  <SCORE.INTRA.SOLV.lig_0>
-4.1818

>  <SCORE.INTRA.VDW>
0

>  <SCORE.INTRA.VDW.0>
0

>  <SCORE.INTRA.norm>
0

>  <SCORE.RESTR>
0

>  <SCORE.RESTR.CAVITY>
0

>  <SCORE.RESTR.norm>
0

>  <SCORE.SYSTEM>
0

>  <SCORE.SYSTEM.CONST>
0

>  <SCORE.SYSTEM.DIHEDRAL>
0

>  <SCORE.SYSTEM.SOLV>
0

>  <SCORE.SYSTEM.norm>
0

>  <SCORE.heavy>
10

>  <SCORE.norm>
-2.37811

>  <RMSD>
3.135

$$$$
ligand
 OpenBabel11021811503D
libRbt.so/2013.1/901 2013/11/27
 10 11  0  0  0  0  0  0  0  0999 V2000
   17.6606   -0.6797    2.7554 N   0  0  0  0  0  0  0  0  0  0  0  0
   16.5721   -0.8589    3.4802 C   0  0  0  0  0  0  0  0  0  0  0  0
   16.2378   -2.1494    3.9040 N   0  0  0  0  0  0  0  0  0  0  0  0
   17.0126   -3.1872    3.5591 C   0  0  0  0  0  0  0  0  0  0  0  0
   18.1057   -3.0011    2.8229 C   0  0  0  0  0  0  0  0  0  0  0  0
   18.4566   -1.7812    2.4229 C   0  0  0  0  0  0  0  0  0  0  0  0
   19.4820   -1.6075    1.7663 O   0  0  0  0  0  0  0  0  0  0  0  0
   18.6333   -4.1957    2.5703 N   0  0  0  0  0  0  0  0  0  0  0  0
   17.8736   -5.1185    3.1520 C   0  0  0  0  0  0  0  0  0  0  0  0
   16.8760   -4.4923    3.7697 N   0  0  0  0  0  0  0  0  0  0  0  0
  1  2  1  0  0  0  0
  1  6  1  0  0  0  0
  2  3  2  0  0  0  0
  3  4  1  0  0  0  0
  4  5  2  0  0  0  0
  4 10  1  0  0  0  0
  5  6  1  0  0  0  0
  5  8  1  0  0  0  0
  6  7  2  0  0  0  0
  8  9  1  0  0  0  0
  9 10  2  0  0  0  0
M  END
>  <CHROM.1>
17.72462615,-2.68434211,2.99629126,1.44448561,0.56638308,-0.12056906

>  <Name>
ligand

>  <RI>
0

>  <Rbt.Current_Directory>
/home/itssahil/PROJECTS/Mol_Feturizer/New_Systems/rnas/4NYD

>  <Rbt.Executable>
rbdock ($Id: //depot/dev/client3/rdock/2013.1/src/exe/rbdock.cxx#4 $)

>  <Rbt.Library>
libRbt.so (2013.1, Build901 2013/11/27)

>  <Rbt.Parameter_File>
/export/apps/rDock/src/rDock_2013.1_src/data/scripts/dock_solv.prm

>  <Rbt.Receptor>
prm/blind_docking_80.prm

>  <SCORE>
-23.7996

>  <SCORE.INTER>
-23.7996

>  <SCORE.INTER.CONST>
1

>  <SCORE.INTER.POLAR>
0

>  <SCORE.INTER.ROT>
0

>  <SCORE.INTER.SOLV>
3.45173

>  <SCORE.INTER.VDW>
-20.617

>  <SCORE.INTER.norm>
-2.37996

>  <SCORE.INTRA>
0

>  <SCORE.INTRA.DIHEDRAL>
0

>  <SCORE.INTRA.DIHEDRAL.0>
0

>  <SCORE.INTRA.POLAR>
0

>  <SCORE.INTRA.POLAR.0>
0

>  <SCORE.INTRA.REPUL>
0

>  <SCORE.INTRA.REPUL.0>
0

>  <SCORE.INTRA.SOLV>
0

>  <SCORE.INTRA.SOLV.lig_0>
-4.1818

>  <SCORE.INTRA.VDW>
0

>  <SCORE.INTRA.VDW.0>
0

>  <SCORE.INTRA.norm>
0

>  <SCORE.RESTR>
0

>  <SCORE.RESTR.CAVITY>
0

>  <SCORE.RESTR.norm>
0

>  <SCORE.SYSTEM>
0

>  <SCORE.SYSTEM.CONST>
0

>  <SCORE.SYSTEM.DIHEDRAL>
0

>  <SCORE.SYSTEM.SOLV>
0

>  <SCORE.SYSTEM.norm>
0

>  <SCORE.heavy>
10

>  <SCORE.norm>
-2.37996

>  <RMSD>
3.135

$$$$
ligand
 OpenBabel11021811503D
libRbt.so/2013.1/901 2013/11/27
 10 11  0  0  0  0  0  0  0  0999 V2000
   17.6669   -0.6764    2.7631 N   0  0  0  0  0  0  0  0  0  0  0  0
   16.5752   -0.8552    3.4832 C   0  0  0  0  0  0  0  0  0  0  0  0
   16.2349   -2.1467    3.8994 N   0  0  0  0  0  0  0  0  0  0  0  0
   17.0072   -3.1855    3.5523 C   0  0  0  0  0  0  0  0  0  0  0  0
   18.1036   -2.9996    2.8209 C   0  0  0  0  0  0  0  0  0  0  0  0
   18.4602   -1.7790    2.4281 C   0  0  0  0  0  0  0  0  0  0  0  0
   19.4885   -1.6058    1.7760 O   0  0  0  0  0  0  0  0  0  0  0  0
   18.6279   -4.1948    2.5643 N   0  0  0  0  0  0  0  0  0  0  0  0
   17.8629   -5.1178    3.1387 C   0  0  0  0  0  0  0  0  0  0  0  0
   16.8653   -4.4911    3.7560 N   0  0  0  0  0  0  0  0  0  0  0  0
  1  2  1  0  0  0  0
  1  6  1  0  0  0  0
  2  3  2  0  0  0  0
  3  4  1  0  0  0  0
  4  5  2  0  0  0  0
  4 10  1  0  0  0  0
  5  6  1  0  0  0  0
  5  8  1  0  0  0  0
  6  7  2  0  0  0  0
  8  9  1  0  0  0  0
  9 10  2  0  0  0  0
M  END
>  <CHROM.1>
17.72301385,-2.68237505,2.99444355,1.43985148,0.56325713,-0.11319220

>  <Name>
ligand

>  <RI>
0

>  <Rbt.Current_Directory>
/home/itssahil/PROJECTS/Mol_Feturizer/New_Systems/rnas/4NYD

>  <Rbt.Executable>
rbdock ($Id: //depot/dev/client3/rdock/2013.1/src/exe/rbdock.cxx#4 $)

>  <Rbt.Library>
libRbt.so (2013.1, Build901 2013/11/27)

>  <Rbt.Parameter_File>
/export/apps/rDock/src/rDock_2013.1_src/data/scripts/dock_solv.prm

>  <Rbt.Receptor>
prm/pocket_docking_3.prm

>  <SCORE>
-23.7957

>  <SCORE.INTER>
-23.7957

>  <SCORE.INTER.CONST>
1

>  <SCORE.INTER.POLAR>
0

>  <SCORE.INTER.ROT>
0

>  <SCORE.INTER.SOLV>
3.45514

>  <SCORE.INTER.VDW>
-20.6155

>  <SCORE.INTER.norm>
-2.37957

>  <SCORE.INTRA>
0

>  <SCORE.INTRA.DIHEDRAL>
0

>  <SCORE.INTRA.DIHEDRAL.0>
0

>  <SCORE.INTRA.POLAR>
0

>  <SCORE.INTRA.POLAR.0>
0

>  <SCORE.INTRA.REPUL>
0

>  <SCORE.INTRA.REPUL.0>
0

>  <SCORE.INTRA.SOLV>
0

>  <SCORE.INTRA.SOLV.lig_0>
-4.1818

>  <SCORE.INTRA.VDW>
0

>  <SCORE.INTRA.VDW.0>
0

>  <SCORE.INTRA.norm>
0

>  <SCORE.RESTR>
0

>  <SCORE.RESTR.CAVITY>
0

>  <SCORE.RESTR.norm>
0

>  <SCORE.SYSTEM>
0

>  <SCORE.SYSTEM.CONST>
0

>  <SCORE.SYSTEM.DIHEDRAL>
0

>  <SCORE.SYSTEM.SOLV>
0

>  <SCORE.SYSTEM.norm>
0

>  <SCORE.heavy>
10

>  <SCORE.norm>
-2.37957

>  <RMSD>
3.135

$$$$
ligand
 OpenBabel11021811503D
libRbt.so/2013.1/901 2013/11/27
 10 11  0  0  0  0  0  0  0  0999 V2000
   17.6570   -0.6845    2.7583 N   0  0  0  0  0  0  0  0  0  0  0  0
   16.5685   -0.8657    3.4826 C   0  0  0  0  0  0  0  0  0  0  0  0
   16.2372   -2.1567    3.9075 N   0  0  0  0  0  0  0  0  0  0  0  0
   17.0148   -3.1928    3.5641 C   0  0  0  0  0  0  0  0  0  0  0  0
   18.1078   -3.0047    2.8283 C   0  0  0  0  0  0  0  0  0  0  0  0
   18.4559   -1.7843    2.4273 C   0  0  0  0  0  0  0  0  0  0  0  0
   19.4812   -1.6088    1.7711 O   0  0  0  0  0  0  0  0  0  0  0  0
   18.6386   -4.1982    2.5772 N   0  0  0  0  0  0  0  0  0  0  0  0
   17.8808   -5.1224    3.1593 C   0  0  0  0  0  0  0  0  0  0  0  0
   16.8813   -4.4981    3.7759 N   0  0  0  0  0  0  0  0  0  0  0  0
  1  2  1  0  0  0  0
  1  6  1  0  0  0  0
  2  3  2  0  0  0  0
  3  4  1  0  0  0  0
  4  5  2  0  0  0  0
  4 10  1  0  0  0  0
  5  6  1  0  0  0  0
  5  8  1  0  0  0  0
  6  7  2  0  0  0  0
  8  9  1  0  0  0  0
  9 10  2  0  0  0  0
M  END
>  <CHROM.1>
17.72585890,-2.68876547,3.00116163,1.44734664,0.56551947,-0.12308427

>  <Name>
ligand

>  <RI>
0

>  <Rbt.Current_Directory>
/home/itssahil/PROJECTS/Mol_Feturizer/New_Systems/rnas/4NYD

>  <Rbt.Executable>
rbdock ($Id: //depot/dev/client3/rdock/2013.1/src/exe/rbdock.cxx#4 $)

>  <Rbt.Library>
libRbt.so (2013.1, Build901 2013/11/27)

>  <Rbt.Parameter_File>
/export/apps/rDock/src/rDock_2013.1_src/data/scripts/dock_solv.prm

>  <Rbt.Receptor>
prm/pocket_docking_3.prm

>  <SCORE>
-23.8003

>  <SCORE.INTER>
-23.8003

>  <SCORE.INTER.CONST>
1

>  <SCORE.INTER.POLAR>
0

>  <SCORE.INTER.ROT>
0

>  <SCORE.INTER.SOLV>
3.45221

>  <SCORE.INTER.VDW>
-20.6176

>  <SCORE.INTER.norm>
-2.38003

>  <SCORE.INTRA>
0

>  <SCORE.INTRA.DIHEDRAL>
0

>  <SCORE.INTRA.DIHEDRAL.0>
0

>  <SCORE.INTRA.POLAR>
0

>  <SCORE.INTRA.POLAR.0>
0

>  <SCORE.INTRA.REPUL>
0

>  <SCORE.INTRA.REPUL.0>
0

>  <SCORE.INTRA.SOLV>
0

>  <SCORE.INTRA.SOLV.lig_0>
-4.1818

>  <SCORE.INTRA.VDW>
0

>  <SCORE.INTRA.VDW.0>
0

>  <SCORE.INTRA.norm>
0

>  <SCORE.RESTR>
0

>  <SCORE.RESTR.CAVITY>
0

>  <SCORE.RESTR.norm>
0

>  <SCORE.SYSTEM>
0

>  <SCORE.SYSTEM.CONST>
0

>  <SCORE.SYSTEM.DIHEDRAL>
0

>  <SCORE.SYSTEM.SOLV>
0

>  <SCORE.SYSTEM.norm>
0

>  <SCORE.heavy>
10

>  <SCORE.norm>
-2.38003

>  <RMSD>
3.135

$$$$
ligand
 OpenBabel11021811503D
libRbt.so/2013.1/901 2013/11/27
 10 11  0  0  0  0  0  0  0  0999 V2000
   17.6613   -0.6785    2.7584 N   0  0  0  0  0  0  0  0  0  0  0  0
   16.5704   -0.8578    3.4796 C   0  0  0  0  0  0  0  0  0  0  0  0
   16.2358   -2.1483    3.9035 N   0  0  0  0  0  0  0  0  0  0  0  0
   17.0126   -3.1857    3.5623 C   0  0  0  0  0  0  0  0  0  0  0  0
   18.1080   -2.9994    2.8297 C   0  0  0  0  0  0  0  0  0  0  0  0
   18.4593   -1.7796    2.4297 C   0  0  0  0  0  0  0  0  0  0  0  0
   19.4868   -1.6057    1.7765 O   0  0  0  0  0  0  0  0  0  0  0  0
   18.6375   -4.1938    2.5800 N   0  0  0  0  0  0  0  0  0  0  0  0
   17.8766   -5.1167    3.1600 C   0  0  0  0  0  0  0  0  0  0  0  0
   16.8763   -4.4907    3.7737 N   0  0  0  0  0  0  0  0  0  0  0  0
  1  2  1  0  0  0  0
  1  6  1  0  0  0  0
  2  3  2  0  0  0  0
  3  4  1  0  0  0  0
  4  5  2  0  0  0  0
  4 10  1  0  0  0  0
  5  6  1  0  0  0  0
  5  8  1  0  0  0  0
  6  7  2  0  0  0  0
  8  9  1  0  0  0  0
  9 10  2  0  0  0  0
M  END
>  <CHROM.1>
17.72613405,-2.68281949,3.00143447,1.44497346,0.56286654,-0.12178431

>  <Name>
ligand

>  <RI>
0

>  <Rbt.Current_Directory>
/home/itssahil/PROJECTS/Mol_Feturizer/New_Systems/rnas/4NYD

>  <Rbt.Executable>
rbdock ($Id: //depot/dev/client3/rdock/2013.1/src/exe/rbdock.cxx#4 $)

>  <Rbt.Library>
libRbt.so (2013.1, Build901 2013/11/27)

>  <Rbt.Parameter_File>
/export/apps/rDock/src/rDock_2013.1_src/data/scripts/dock_solv.prm

>  <Rbt.Receptor>
prm/pocket_docking_4.prm

>  <SCORE>
-23.8009

>  <SCORE.INTER>
-23.8009

>  <SCORE.INTER.CONST>
1

>  <SCORE.INTER.POLAR>
0

>  <SCORE.INTER.ROT>
0

>  <SCORE.INTER.SOLV>
3.45254

>  <SCORE.INTER.VDW>
-20.6181

>  <SCORE.INTER.norm>
-2.38009

>  <SCORE.INTRA>
0

>  <SCORE.INTRA.DIHEDRAL>
0

>  <SCORE.INTRA.DIHEDRAL.0>
0

>  <SCORE.INTRA.POLAR>
0

>  <SCORE.INTRA.POLAR.0>
0

>  <SCORE.INTRA.REPUL>
0

>  <SCORE.INTRA.REPUL.0>
0

>  <SCORE.INTRA.SOLV>
0

>  <SCORE.INTRA.SOLV.lig_0>
-4.1818

>  <SCORE.INTRA.VDW>
0

>  <SCORE.INTRA.VDW.0>
0

>  <SCORE.INTRA.norm>
0

>  <SCORE.RESTR>
0

>  <SCORE.RESTR.CAVITY>
0

>  <SCORE.RESTR.norm>
0

>  <SCORE.SYSTEM>
0

>  <SCORE.SYSTEM.CONST>
0

>  <SCORE.SYSTEM.DIHEDRAL>
0

>  <SCORE.SYSTEM.SOLV>
0

>  <SCORE.SYSTEM.norm>
0

>  <SCORE.heavy>
10

>  <SCORE.norm>
-2.38009

>  <RMSD>
3.135

$$$$
ligand
 OpenBabel11021811503D
libRbt.so/2013.1/901 2013/11/27
 10 11  0  0  0  0  0  0  0  0999 V2000
   17.7004   -0.6261    2.7215 N   0  0  0  0  0  0  0  0  0  0  0  0
   16.5836   -0.7766    3.4088 C   0  0  0  0  0  0  0  0  0  0  0  0
   16.2065   -2.0567    3.8283 N   0  0  0  0  0  0  0  0  0  0  0  0
   16.9699   -3.1134    3.5170 C   0  0  0  0  0  0  0  0  0  0  0  0
   18.0918   -2.9560    2.8185 C   0  0  0  0  0  0  0  0  0  0  0  0
   18.4831   -1.7468    2.4237 C   0  0  0  0  0  0  0  0  0  0  0  0
   19.5344   -1.5999    1.8024 O   0  0  0  0  0  0  0  0  0  0  0  0
   18.6015   -4.1635    2.5916 N   0  0  0  0  0  0  0  0  0  0  0  0
   17.8019   -5.0656    3.1518 C   0  0  0  0  0  0  0  0  0  0  0  0
   16.7973   -4.4138    3.7305 N   0  0  0  0  0  0  0  0  0  0  0  0
  1  2  1  0  0  0  0
  1  6  1  0  0  0  0
  2  3  2  0  0  0  0
  3  4  1  0  0  0  0
  4  5  2  0  0  0  0
  4 10  1  0  0  0  0
  5  6  1  0  0  0  0
  5  8  1  0  0  0  0
  6  7  2  0  0  0  0
  8  9  1  0  0  0  0
  9 10  2  0  0  0  0
M  END
>  <CHROM.1>
17.71195540,-2.62994476,2.97646013,1.41426742,0.53417651,-0.11110236

>  <Name>
ligand

>  <RI>
0

>  <Rbt.Current_Directory>
/home/itssahil/PROJECTS/Mol_Feturizer/New_Systems/rnas/4NYD

>  <Rbt.Executable>
rbdock ($Id: //depot/dev/client3/rdock/2013.1/src/exe/rbdock.cxx#4 $)

>  <Rbt.Library>
libRbt.so (2013.1, Build901 2013/11/27)

>  <Rbt.Parameter_File>
/export/apps/rDock/src/rDock_2013.1_src/data/scripts/dock_solv.prm

>  <Rbt.Receptor>
prm/pocket_docking_6.prm

>  <SCORE>
-23.8119

>  <SCORE.INTER>
-23.8119

>  <SCORE.INTER.CONST>
1

>  <SCORE.INTER.POLAR>
0

>  <SCORE.INTER.ROT>
0

>  <SCORE.INTER.SOLV>
3.43259

>  <SCORE.INTER.VDW>
-20.6188

>  <SCORE.INTER.norm>
-2.38119

>  <SCORE.INTRA>
0

>  <SCORE.INTRA.DIHEDRAL>
0

>  <SCORE.INTRA.DIHEDRAL.0>
0

>  <SCORE.INTRA.POLAR>
0

>  <SCORE.INTRA.POLAR.0>
0

>  <SCORE.INTRA.REPUL>
0

>  <SCORE.INTRA.REPUL.0>
0

>  <SCORE.INTRA.SOLV>
0

>  <SCORE.INTRA.SOLV.lig_0>
-4.1818

>  <SCORE.INTRA.VDW>
0

>  <SCORE.INTRA.VDW.0>
0

>  <SCORE.INTRA.norm>
0

>  <SCORE.RESTR>
0

>  <SCORE.RESTR.CAVITY>
0

>  <SCORE.RESTR.norm>
0

>  <SCORE.SYSTEM>
0

>  <SCORE.SYSTEM.CONST>
0

>  <SCORE.SYSTEM.DIHEDRAL>
0

>  <SCORE.SYSTEM.SOLV>
0

>  <SCORE.SYSTEM.norm>
0

>  <SCORE.heavy>
10

>  <SCORE.norm>
-2.38119

>  <RMSD>
3.135

$$$$
ligand
 OpenBabel11021811503D
libRbt.so/2013.1/901 2013/11/27
 10 11  0  0  0  0  0  0  0  0999 V2000
   17.6654   -0.7257    2.7841 N   0  0  0  0  0  0  0  0  0  0  0  0
   16.5670   -0.9001    3.4950 C   0  0  0  0  0  0  0  0  0  0  0  0
   16.2269   -2.1878    3.9227 N   0  0  0  0  0  0  0  0  0  0  0  0
   17.0063   -3.2278    3.5955 C   0  0  0  0  0  0  0  0  0  0  0  0
   18.1094   -3.0466    2.8733 C   0  0  0  0  0  0  0  0  0  0  0  0
   18.4659   -1.8294    2.4700 C   0  0  0  0  0  0  0  0  0  0  0  0
   19.5003   -1.6601    1.8265 O   0  0  0  0  0  0  0  0  0  0  0  0
   18.6405   -4.2428    2.6360 N   0  0  0  0  0  0  0  0  0  0  0  0
   17.8728   -5.1617    3.2133 C   0  0  0  0  0  0  0  0  0  0  0  0
   16.8668   -4.5315    3.8130 N   0  0  0  0  0  0  0  0  0  0  0  0
  1  2  1  0  0  0  0
  1  6  1  0  0  0  0
  2  3  2  0  0  0  0
  3  4  1  0  0  0  0
  4  5  2  0  0  0  0
  4 10  1  0  0  0  0
  5  6  1  0  0  0  0
  5  8  1  0  0  0  0
  6  7  2  0  0  0  0
  8  9  1  0  0  0  0
  9 10  2  0  0  0  0
M  END
>  <CHROM.1>
17.72605292,-2.72871488,3.03925260,1.44249946,0.55266234,-0.12621899

>  <Name>
ligand

>  <RI>
0

>  <Rbt.Current_Directory>
/home/itssahil/PROJECTS/Mol_Feturizer/New_Systems/rnas/4NYD

>  <Rbt.Executable>
rbdock ($Id: //depot/dev/client3/rdock/2013.1/src/exe/rbdock.cxx#4 $)

>  <Rbt.Library>
libRbt.so (2013.1, Build901 2013/11/27)

>  <Rbt.Parameter_File>
/export/apps/rDock/src/rDock_2013.1_src/data/scripts/dock_solv.prm

>  <Rbt.Receptor>
prm/pocket_docking_6.prm

>  <SCORE>
-23.752

>  <SCORE.INTER>
-23.752

>  <SCORE.INTER.CONST>
1

>  <SCORE.INTER.POLAR>
0

>  <SCORE.INTER.ROT>
0

>  <SCORE.INTER.SOLV>
3.48097

>  <SCORE.INTER.VDW>
-20.595

>  <SCORE.INTER.norm>
-2.3752

>  <SCORE.INTRA>
0

>  <SCORE.INTRA.DIHEDRAL>
0

>  <SCORE.INTRA.DIHEDRAL.0>
0

>  <SCORE.INTRA.POLAR>
0

>  <SCORE.INTRA.POLAR.0>
0

>  <SCORE.INTRA.REPUL>
0

>  <SCORE.INTRA.REPUL.0>
0

>  <SCORE.INTRA.SOLV>
0

>  <SCORE.INTRA.SOLV.lig_0>
-4.1818

>  <SCORE.INTRA.VDW>
0

>  <SCORE.INTRA.VDW.0>
0

>  <SCORE.INTRA.norm>
0

>  <SCORE.RESTR>
0

>  <SCORE.RESTR.CAVITY>
0

>  <SCORE.RESTR.norm>
0

>  <SCORE.SYSTEM>
0

>  <SCORE.SYSTEM.CONST>
0

>  <SCORE.SYSTEM.DIHEDRAL>
0

>  <SCORE.SYSTEM.SOLV>
0

>  <SCORE.SYSTEM.norm>
0

>  <SCORE.heavy>
10

>  <SCORE.norm>
-2.3752

>  <RMSD>
3.135

$$$$
ligand
 OpenBabel11021811503D
libRbt.so/2013.1/901 2013/11/27
 10 11  0  0  0  0  0  0  0  0999 V2000
   17.7121   -0.6432    2.7729 N   0  0  0  0  0  0  0  0  0  0  0  0
   16.5924   -0.7998    3.4543 C   0  0  0  0  0  0  0  0  0  0  0  0
   16.2081   -2.0848    3.8516 N   0  0  0  0  0  0  0  0  0  0  0  0
   16.9676   -3.1398    3.5254 C   0  0  0  0  0  0  0  0  0  0  0  0
   18.0924   -2.9763    2.8330 C   0  0  0  0  0  0  0  0  0  0  0  0
   18.4906   -1.7626    2.4592 C   0  0  0  0  0  0  0  0  0  0  0  0
   19.5445   -1.6105    1.8437 O   0  0  0  0  0  0  0  0  0  0  0  0
   18.5973   -4.1823    2.5880 N   0  0  0  0  0  0  0  0  0  0  0  0
   17.7918   -5.0897    3.1309 C   0  0  0  0  0  0  0  0  0  0  0  0
   16.7884   -4.4427    3.7171 N   0  0  0  0  0  0  0  0  0  0  0  0
  1  2  1  0  0  0  0
  1  6  1  0  0  0  0
  2  3  2  0  0  0  0
  3  4  1  0  0  0  0
  4  5  2  0  0  0  0
  4 10  1  0  0  0  0
  5  6  1  0  0  0  0
  5  8  1  0  0  0  0
  6  7  2  0  0  0  0
  8  9  1  0  0  0  0
  9 10  2  0  0  0  0
M  END
>  <CHROM.1>
17.71359795,-2.65104730,2.99514634,1.40856511,0.53153582,-0.09188002

>  <Name>
ligand

>  <RI>
0

>  <Rbt.Current_Directory>
/home/itssahil/PROJECTS/Mol_Feturizer/New_Systems/rnas/4NYD

>  <Rbt.Executable>
rbdock ($Id: //depot/dev/client3/rdock/2013.1/src/exe/rbdock.cxx#4 $)

>  <Rbt.Library>
libRbt.so (2013.1, Build901 2013/11/27)

>  <Rbt.Parameter_File>
/export/apps/rDock/src/rDock_2013.1_src/data/scripts/dock_solv.prm

>  <Rbt.Receptor>
prm/pocket_docking_6.prm

>  <SCORE>
-23.7447

>  <SCORE.INTER>
-23.7447

>  <SCORE.INTER.CONST>
1

>  <SCORE.INTER.POLAR>
0

>  <SCORE.INTER.ROT>
0

>  <SCORE.INTER.SOLV>
3.46523

>  <SCORE.INTER.VDW>
-20.5849

>  <SCORE.INTER.norm>
-2.37447

>  <SCORE.INTRA>
0

>  <SCORE.INTRA.DIHEDRAL>
0

>  <SCORE.INTRA.DIHEDRAL.0>
0

>  <SCORE.INTRA.POLAR>
0

>  <SCORE.INTRA.POLAR.0>
0

>  <SCORE.INTRA.REPUL>
0

>  <SCORE.INTRA.REPUL.0>
0

>  <SCORE.INTRA.SOLV>
0

>  <SCORE.INTRA.SOLV.lig_0>
-4.1818

>  <SCORE.INTRA.VDW>
0

>  <SCORE.INTRA.VDW.0>
0

>  <SCORE.INTRA.norm>
0

>  <SCORE.RESTR>
0

>  <SCORE.RESTR.CAVITY>
0

>  <SCORE.RESTR.norm>
0

>  <SCORE.SYSTEM>
0

>  <SCORE.SYSTEM.CONST>
0

>  <SCORE.SYSTEM.DIHEDRAL>
0

>  <SCORE.SYSTEM.SOLV>
0

>  <SCORE.SYSTEM.norm>
0

>  <SCORE.heavy>
10

>  <SCORE.norm>
-2.37447

>  <RMSD>
3.135

$$$$
ligand
 OpenBabel11021811503D
libRbt.so/2013.1/901 2013/11/27
 10 11  0  0  0  0  0  0  0  0999 V2000
   17.6388   -0.6949    2.7674 N   0  0  0  0  0  0  0  0  0  0  0  0
   16.5401   -0.8925    3.4717 C   0  0  0  0  0  0  0  0  0  0  0  0
   16.2137   -2.1902    3.8796 N   0  0  0  0  0  0  0  0  0  0  0  0
   17.0065   -3.2161    3.5403 C   0  0  0  0  0  0  0  0  0  0  0  0
   18.1099   -3.0114    2.8247 C   0  0  0  0  0  0  0  0  0  0  0  0
   18.4533   -1.7843    2.4403 C   0  0  0  0  0  0  0  0  0  0  0  0
   19.4878   -1.5936    1.8031 O   0  0  0  0  0  0  0  0  0  0  0  0
   18.6559   -4.1977    2.5721 N   0  0  0  0  0  0  0  0  0  0  0  0
   17.8971   -5.1339    3.1333 C   0  0  0  0  0  0  0  0  0  0  0  0
   16.8817   -4.5243    3.7384 N   0  0  0  0  0  0  0  0  0  0  0  0
  1  2  1  0  0  0  0
  1  6  1  0  0  0  0
  2  3  2  0  0  0  0
  3  4  1  0  0  0  0
  4  5  2  0  0  0  0
  4 10  1  0  0  0  0
  5  6  1  0  0  0  0
  5  8  1  0  0  0  0
  6  7  2  0  0  0  0
  8  9  1  0  0  0  0
  9 10  2  0  0  0  0
M  END
>  <CHROM.1>
17.72221492,-2.70050405,2.99384881,1.45574540,0.54771850,-0.11866983

>  <Name>
ligand

>  <RI>
0

>  <Rbt.Current_Directory>
/home/itssahil/PROJECTS/Mol_Feturizer/New_Systems/rnas/4NYD

>  <Rbt.Executable>
rbdock ($Id: //depot/dev/client3/rdock/2013.1/src/exe/rbdock.cxx#4 $)

>  <Rbt.Library>
libRbt.so (2013.1, Build901 2013/11/27)

>  <Rbt.Parameter_File>
/export/apps/rDock/src/rDock_2013.1_src/data/scripts/dock_solv.prm

>  <Rbt.Receptor>
prm/pocket_docking_6.prm

>  <SCORE>
-23.7748

>  <SCORE.INTER>
-23.7748

>  <SCORE.INTER.CONST>
1

>  <SCORE.INTER.POLAR>
0

>  <SCORE.INTER.ROT>
0

>  <SCORE.INTER.SOLV>
3.43748

>  <SCORE.INTER.VDW>
-20.5957

>  <SCORE.INTER.norm>
-2.37748

>  <SCORE.INTRA>
0

>  <SCORE.INTRA.DIHEDRAL>
0

>  <SCORE.INTRA.DIHEDRAL.0>
0

>  <SCORE.INTRA.POLAR>
0

>  <SCORE.INTRA.POLAR.0>
0

>  <SCORE.INTRA.REPUL>
0

>  <SCORE.INTRA.REPUL.0>
0

>  <SCORE.INTRA.SOLV>
0

>  <SCORE.INTRA.SOLV.lig_0>
-4.1818

>  <SCORE.INTRA.VDW>
0

>  <SCORE.INTRA.VDW.0>
0

>  <SCORE.INTRA.norm>
0

>  <SCORE.RESTR>
0

>  <SCORE.RESTR.CAVITY>
0

>  <SCORE.RESTR.norm>
0

>  <SCORE.SYSTEM>
0

>  <SCORE.SYSTEM.CONST>
0

>  <SCORE.SYSTEM.DIHEDRAL>
0

>  <SCORE.SYSTEM.SOLV>
0

>  <SCORE.SYSTEM.norm>
0

>  <SCORE.heavy>
10

>  <SCORE.norm>
-2.37748

>  <RMSD>
3.135

$$$$
ligand
 OpenBabel11021811503D
libRbt.so/2013.1/901 2013/11/27
 10 11  0  0  0  0  0  0  0  0999 V2000
   17.7196   -0.6289    2.7661 N   0  0  0  0  0  0  0  0  0  0  0  0
   16.5898   -0.7802    3.4316 C   0  0  0  0  0  0  0  0  0  0  0  0
   16.1992   -2.0621    3.8329 N   0  0  0  0  0  0  0  0  0  0  0  0
   16.9632   -3.1196    3.5262 C   0  0  0  0  0  0  0  0  0  0  0  0
   18.0984   -2.9615    2.8497 C   0  0  0  0  0  0  0  0  0  0  0  0
   18.5024   -1.7507    2.4727 C   0  0  0  0  0  0  0  0  0  0  0  0
   19.5655   -1.6035    1.8720 O   0  0  0  0  0  0  0  0  0  0  0  0
   18.6066   -4.1694    2.6215 N   0  0  0  0  0  0  0  0  0  0  0  0
   17.7928   -5.0725    3.1591 C   0  0  0  0  0  0  0  0  0  0  0  0
   16.7808   -4.4210    3.7251 N   0  0  0  0  0  0  0  0  0  0  0  0
  1  2  1  0  0  0  0
  1  6  1  0  0  0  0
  2  3  2  0  0  0  0
  3  4  1  0  0  0  0
  4  5  2  0  0  0  0
  4 10  1  0  0  0  0
  5  6  1  0  0  0  0
  5  8  1  0  0  0  0
  6  7  2  0  0  0  0
  8  9  1  0  0  0  0
  9 10  2  0  0  0  0
M  END
>  <CHROM.1>
17.71724405,-2.63499301,3.00358127,1.40668703,0.51652289,-0.09855270

>  <Name>
ligand

>  <RI>
0

>  <Rbt.Current_Directory>
/home/itssahil/PROJECTS/Mol_Feturizer/New_Systems/rnas/4NYD

>  <Rbt.Executable>
rbdock ($Id: //depot/dev/client3/rdock/2013.1/src/exe/rbdock.cxx#4 $)

>  <Rbt.Library>
libRbt.so (2013.1, Build901 2013/11/27)

>  <Rbt.Parameter_File>
/export/apps/rDock/src/rDock_2013.1_src/data/scripts/dock_solv.prm

>  <Rbt.Receptor>
prm/pocket_docking_7.prm

>  <SCORE>
-23.7344

>  <SCORE.INTER>
-23.7344

>  <SCORE.INTER.CONST>
1

>  <SCORE.INTER.POLAR>
0

>  <SCORE.INTER.ROT>
0

>  <SCORE.INTER.SOLV>
3.46188

>  <SCORE.INTER.VDW>
-20.5769

>  <SCORE.INTER.norm>
-2.37344

>  <SCORE.INTRA>
0

>  <SCORE.INTRA.DIHEDRAL>
0

>  <SCORE.INTRA.DIHEDRAL.0>
0

>  <SCORE.INTRA.POLAR>
0

>  <SCORE.INTRA.POLAR.0>
0

>  <SCORE.INTRA.REPUL>
0

>  <SCORE.INTRA.REPUL.0>
0

>  <SCORE.INTRA.SOLV>
0

>  <SCORE.INTRA.SOLV.lig_0>
-4.1818

>  <SCORE.INTRA.VDW>
0

>  <SCORE.INTRA.VDW.0>
0

>  <SCORE.INTRA.norm>
0

>  <SCORE.RESTR>
0

>  <SCORE.RESTR.CAVITY>
0

>  <SCORE.RESTR.norm>
0

>  <SCORE.SYSTEM>
0

>  <SCORE.SYSTEM.CONST>
0

>  <SCORE.SYSTEM.DIHEDRAL>
0

>  <SCORE.SYSTEM.SOLV>
0

>  <SCORE.SYSTEM.norm>
0

>  <SCORE.heavy>
10

>  <SCORE.norm>
-2.37344

>  <RMSD>
3.135

$$$$
ligand
 OpenBabel11021811503D
libRbt.so/2013.1/901 2013/11/27
 10 11  0  0  0  0  0  0  0  0999 V2000
   17.6662   -0.6768    2.7718 N   0  0  0  0  0  0  0  0  0  0  0  0
   16.5763   -0.8577    3.4941 C   0  0  0  0  0  0  0  0  0  0  0  0
   16.2390   -2.1498    3.9108 N   0  0  0  0  0  0  0  0  0  0  0  0
   17.0123   -3.1872    3.5618 C   0  0  0  0  0  0  0  0  0  0  0  0
   18.1068   -2.9994    2.8281 C   0  0  0  0  0  0  0  0  0  0  0  0
   18.4606   -1.7781    2.4348 C   0  0  0  0  0  0  0  0  0  0  0  0
   19.4872   -1.6030    1.7806 O   0  0  0  0  0  0  0  0  0  0  0  0
   18.6326   -4.1936    2.5701 N   0  0  0  0  0  0  0  0  0  0  0  0
   17.8703   -5.1180    3.1460 C   0  0  0  0  0  0  0  0  0  0  0  0
   16.8730   -4.4931    3.7655 N   0  0  0  0  0  0  0  0  0  0  0  0
  1  2  1  0  0  0  0
  1  6  1  0  0  0  0
  2  3  2  0  0  0  0
  3  4  1  0  0  0  0
  4  5  2  0  0  0  0
  4 10  1  0  0  0  0
  5  6  1  0  0  0  0
  5  8  1  0  0  0  0
  6  7  2  0  0  0  0
  8  9  1  0  0  0  0
  9 10  2  0  0  0  0
M  END
>  <CHROM.1>
17.72609493,-2.68280375,3.00254447,1.44209992,0.56516886,-0.11417458

>  <Name>
ligand

>  <RI>
0

>  <Rbt.Current_Directory>
/home/itssahil/PROJECTS/Mol_Feturizer/New_Systems/rnas/4NYD

>  <Rbt.Executable>
rbdock ($Id: //depot/dev/client3/rdock/2013.1/src/exe/rbdock.cxx#4 $)

>  <Rbt.Library>
libRbt.so (2013.1, Build901 2013/11/27)

>  <Rbt.Parameter_File>
/export/apps/rDock/src/rDock_2013.1_src/data/scripts/dock_solv.prm

>  <Rbt.Receptor>
prm/blind_docking_100.prm

>  <SCORE>
-23.8047

>  <SCORE.INTER>
-23.8047

>  <SCORE.INTER.CONST>
1

>  <SCORE.INTER.POLAR>
0

>  <SCORE.INTER.ROT>
0

>  <SCORE.INTER.SOLV>
3.46102

>  <SCORE.INTER.VDW>
-20.6235

>  <SCORE.INTER.norm>
-2.38047

>  <SCORE.INTRA>
0

>  <SCORE.INTRA.DIHEDRAL>
0

>  <SCORE.INTRA.DIHEDRAL.0>
0

>  <SCORE.INTRA.POLAR>
0

>  <SCORE.INTRA.POLAR.0>
0

>  <SCORE.INTRA.REPUL>
0

>  <SCORE.INTRA.REPUL.0>
0

>  <SCORE.INTRA.SOLV>
0

>  <SCORE.INTRA.SOLV.lig_0>
-4.1818

>  <SCORE.INTRA.VDW>
0

>  <SCORE.INTRA.VDW.0>
0

>  <SCORE.INTRA.norm>
0

>  <SCORE.RESTR>
0

>  <SCORE.RESTR.CAVITY>
0

>  <SCORE.RESTR.norm>
0

>  <SCORE.SYSTEM>
0

>  <SCORE.SYSTEM.CONST>
0

>  <SCORE.SYSTEM.DIHEDRAL>
0

>  <SCORE.SYSTEM.SOLV>
0

>  <SCORE.SYSTEM.norm>
0

>  <SCORE.heavy>
10

>  <SCORE.norm>
-2.38047

>  <RMSD>
3.136

$$$$
ligand
 OpenBabel11021811503D
libRbt.so/2013.1/901 2013/11/27
 10 11  0  0  0  0  0  0  0  0999 V2000
   17.6661   -0.6714    2.7703 N   0  0  0  0  0  0  0  0  0  0  0  0
   16.5751   -0.8517    3.4911 C   0  0  0  0  0  0  0  0  0  0  0  0
   16.2360   -2.1438    3.9063 N   0  0  0  0  0  0  0  0  0  0  0  0
   17.0088   -3.1817    3.5575 C   0  0  0  0  0  0  0  0  0  0  0  0
   18.1044   -2.9944    2.8255 C   0  0  0  0  0  0  0  0  0  0  0  0
   18.4599   -1.7732    2.4336 C   0  0  0  0  0  0  0  0  0  0  0  0
   19.4876   -1.5987    1.7809 O   0  0  0  0  0  0  0  0  0  0  0  0
   18.6294   -4.1890    2.5673 N   0  0  0  0  0  0  0  0  0  0  0  0
   17.8654   -5.1130    3.1415 C   0  0  0  0  0  0  0  0  0  0  0  0
   16.8679   -4.4876    3.7601 N   0  0  0  0  0  0  0  0  0  0  0  0
  1  2  1  0  0  0  0
  1  6  1  0  0  0  0
  2  3  2  0  0  0  0
  3  4  1  0  0  0  0
  4  5  2  0  0  0  0
  4 10  1  0  0  0  0
  5  6  1  0  0  0  0
  5  8  1  0  0  0  0
  6  7  2  0  0  0  0
  8  9  1  0  0  0  0
  9 10  2  0  0  0  0
M  END
>  <CHROM.1>
17.72377635,-2.67761322,2.99965405,1.44075599,0.56395642,-0.11271623

>  <Name>
ligand

>  <RI>
0

>  <Rbt.Current_Directory>
/home/itssahil/PROJECTS/Mol_Feturizer/New_Systems/rnas/4NYD

>  <Rbt.Executable>
rbdock ($Id: //depot/dev/client3/rdock/2013.1/src/exe/rbdock.cxx#4 $)

>  <Rbt.Library>
libRbt.so (2013.1, Build901 2013/11/27)

>  <Rbt.Parameter_File>
/export/apps/rDock/src/rDock_2013.1_src/data/scripts/dock_solv.prm

>  <Rbt.Receptor>
prm/blind_docking_60.prm

>  <SCORE>
-23.8007

>  <SCORE.INTER>
-23.8007

>  <SCORE.INTER.CONST>
1

>  <SCORE.INTER.POLAR>
0

>  <SCORE.INTER.ROT>
0

>  <SCORE.INTER.SOLV>
3.46017

>  <SCORE.INTER.VDW>
-20.6205

>  <SCORE.INTER.norm>
-2.38007

>  <SCORE.INTRA>
0

>  <SCORE.INTRA.DIHEDRAL>
0

>  <SCORE.INTRA.DIHEDRAL.0>
0

>  <SCORE.INTRA.POLAR>
0

>  <SCORE.INTRA.POLAR.0>
0

>  <SCORE.INTRA.REPUL>
0

>  <SCORE.INTRA.REPUL.0>
0

>  <SCORE.INTRA.SOLV>
0

>  <SCORE.INTRA.SOLV.lig_0>
-4.1818

>  <SCORE.INTRA.VDW>
0

>  <SCORE.INTRA.VDW.0>
0

>  <SCORE.INTRA.norm>
0

>  <SCORE.RESTR>
0

>  <SCORE.RESTR.CAVITY>
0

>  <SCORE.RESTR.norm>
0

>  <SCORE.SYSTEM>
0

>  <SCORE.SYSTEM.CONST>
0

>  <SCORE.SYSTEM.DIHEDRAL>
0

>  <SCORE.SYSTEM.SOLV>
0

>  <SCORE.SYSTEM.norm>
0

>  <SCORE.heavy>
10

>  <SCORE.norm>
-2.38007

>  <RMSD>
3.136

$$$$
ligand
 OpenBabel11021811503D
libRbt.so/2013.1/901 2013/11/27
 10 11  0  0  0  0  0  0  0  0999 V2000
   17.6618   -0.6775    2.7802 N   0  0  0  0  0  0  0  0  0  0  0  0
   16.5712   -0.8643    3.4999 C   0  0  0  0  0  0  0  0  0  0  0  0
   16.2385   -2.1586    3.9134 N   0  0  0  0  0  0  0  0  0  0  0  0
   17.0169   -3.1921    3.5640 C   0  0  0  0  0  0  0  0  0  0  0  0
   18.1121   -2.9982    2.8330 C   0  0  0  0  0  0  0  0  0  0  0  0
   18.4616   -1.7748    2.4428 C   0  0  0  0  0  0  0  0  0  0  0  0
   19.4888   -1.5941    1.7910 O   0  0  0  0  0  0  0  0  0  0  0  0
   18.6435   -4.1898    2.5739 N   0  0  0  0  0  0  0  0  0  0  0  0
   17.8839   -5.1185    3.1464 C   0  0  0  0  0  0  0  0  0  0  0  0
   16.8827   -4.4990    3.7650 N   0  0  0  0  0  0  0  0  0  0  0  0
  1  2  1  0  0  0  0
  1  6  1  0  0  0  0
  2  3  2  0  0  0  0
  3  4  1  0  0  0  0
  4  5  2  0  0  0  0
  4 10  1  0  0  0  0
  5  6  1  0  0  0  0
  5  8  1  0  0  0  0
  6  7  2  0  0  0  0
  8  9  1  0  0  0  0
  9 10  2  0  0  0  0
M  END
>  <CHROM.1>
17.72972910,-2.68363537,3.00725510,1.44677556,0.56262225,-0.11478433

>  <Name>
ligand

>  <RI>
0

>  <Rbt.Current_Directory>
/home/itssahil/PROJECTS/Mol_Feturizer/New_Systems/rnas/4NYD

>  <Rbt.Executable>
rbdock ($Id: //depot/dev/client3/rdock/2013.1/src/exe/rbdock.cxx#4 $)

>  <Rbt.Library>
libRbt.so (2013.1, Build901 2013/11/27)

>  <Rbt.Parameter_File>
/export/apps/rDock/src/rDock_2013.1_src/data/scripts/dock_solv.prm

>  <Rbt.Receptor>
prm/blind_docking_60.prm

>  <SCORE>
-23.7813

>  <SCORE.INTER>
-23.7813

>  <SCORE.INTER.CONST>
1

>  <SCORE.INTER.POLAR>
0

>  <SCORE.INTER.ROT>
0

>  <SCORE.INTER.SOLV>
3.46201

>  <SCORE.INTER.VDW>
-20.6082

>  <SCORE.INTER.norm>
-2.37813

>  <SCORE.INTRA>
0

>  <SCORE.INTRA.DIHEDRAL>
0

>  <SCORE.INTRA.DIHEDRAL.0>
0

>  <SCORE.INTRA.POLAR>
0

>  <SCORE.INTRA.POLAR.0>
0

>  <SCORE.INTRA.REPUL>
0

>  <SCORE.INTRA.REPUL.0>
0

>  <SCORE.INTRA.SOLV>
0

>  <SCORE.INTRA.SOLV.lig_0>
-4.1818

>  <SCORE.INTRA.VDW>
0

>  <SCORE.INTRA.VDW.0>
0

>  <SCORE.INTRA.norm>
0

>  <SCORE.RESTR>
0

>  <SCORE.RESTR.CAVITY>
0

>  <SCORE.RESTR.norm>
0

>  <SCORE.SYSTEM>
0

>  <SCORE.SYSTEM.CONST>
0

>  <SCORE.SYSTEM.DIHEDRAL>
0

>  <SCORE.SYSTEM.SOLV>
0

>  <SCORE.SYSTEM.norm>
0

>  <SCORE.heavy>
10

>  <SCORE.norm>
-2.37813

>  <RMSD>
3.136

$$$$
ligand
 OpenBabel11021811503D
libRbt.so/2013.1/901 2013/11/27
 10 11  0  0  0  0  0  0  0  0999 V2000
   17.6666   -0.6751    2.7698 N   0  0  0  0  0  0  0  0  0  0  0  0
   16.5773   -0.8545    3.4935 C   0  0  0  0  0  0  0  0  0  0  0  0
   16.2390   -2.1462    3.9106 N   0  0  0  0  0  0  0  0  0  0  0  0
   17.0107   -3.1846    3.5608 C   0  0  0  0  0  0  0  0  0  0  0  0
   18.1045   -2.9981    2.8258 C   0  0  0  0  0  0  0  0  0  0  0  0
   18.4593   -1.7773    2.4319 C   0  0  0  0  0  0  0  0  0  0  0  0
   19.4854   -1.6035    1.7765 O   0  0  0  0  0  0  0  0  0  0  0  0
   18.6286   -4.1930    2.5673 N   0  0  0  0  0  0  0  0  0  0  0  0
   17.8659   -5.1164    3.1441 C   0  0  0  0  0  0  0  0  0  0  0  0
   16.8700   -4.4903    3.7648 N   0  0  0  0  0  0  0  0  0  0  0  0
  1  2  1  0  0  0  0
  1  6  1  0  0  0  0
  2  3  2  0  0  0  0
  3  4  1  0  0  0  0
  4  5  2  0  0  0  0
  4 10  1  0  0  0  0
  5  6  1  0  0  0  0
  5  8  1  0  0  0  0
  6  7  2  0  0  0  0
  8  9  1  0  0  0  0
  9 10  2  0  0  0  0
M  END
>  <CHROM.1>
17.72439532,-2.68108212,3.00064270,1.44085628,0.56649639,-0.11359573

>  <Name>
ligand

>  <RI>
0

>  <Rbt.Current_Directory>
/home/itssahil/PROJECTS/Mol_Feturizer/New_Systems/rnas/4NYD

>  <Rbt.Executable>
rbdock ($Id: //depot/dev/client3/rdock/2013.1/src/exe/rbdock.cxx#4 $)

>  <Rbt.Library>
libRbt.so (2013.1, Build901 2013/11/27)

>  <Rbt.Parameter_File>
/export/apps/rDock/src/rDock_2013.1_src/data/scripts/dock_solv.prm

>  <Rbt.Receptor>
prm/blind_docking_80.prm

>  <SCORE>
-23.8033

>  <SCORE.INTER>
-23.8033

>  <SCORE.INTER.CONST>
1

>  <SCORE.INTER.POLAR>
0

>  <SCORE.INTER.ROT>
0

>  <SCORE.INTER.SOLV>
3.46126

>  <SCORE.INTER.VDW>
-20.6226

>  <SCORE.INTER.norm>
-2.38033

>  <SCORE.INTRA>
0

>  <SCORE.INTRA.DIHEDRAL>
0

>  <SCORE.INTRA.DIHEDRAL.0>
0

>  <SCORE.INTRA.POLAR>
0

>  <SCORE.INTRA.POLAR.0>
0

>  <SCORE.INTRA.REPUL>
0

>  <SCORE.INTRA.REPUL.0>
0

>  <SCORE.INTRA.SOLV>
0

>  <SCORE.INTRA.SOLV.lig_0>
-4.1818

>  <SCORE.INTRA.VDW>
0

>  <SCORE.INTRA.VDW.0>
0

>  <SCORE.INTRA.norm>
0

>  <SCORE.RESTR>
0

>  <SCORE.RESTR.CAVITY>
0

>  <SCORE.RESTR.norm>
0

>  <SCORE.SYSTEM>
0

>  <SCORE.SYSTEM.CONST>
0

>  <SCORE.SYSTEM.DIHEDRAL>
0

>  <SCORE.SYSTEM.SOLV>
0

>  <SCORE.SYSTEM.norm>
0

>  <SCORE.heavy>
10

>  <SCORE.norm>
-2.38033

>  <RMSD>
3.136

$$$$
ligand
 OpenBabel11021811503D
libRbt.so/2013.1/901 2013/11/27
 10 11  0  0  0  0  0  0  0  0999 V2000
   17.6296   -0.6916    2.7478 N   0  0  0  0  0  0  0  0  0  0  0  0
   16.5330   -0.8878    3.4557 C   0  0  0  0  0  0  0  0  0  0  0  0
   16.2079   -2.1847    3.8671 N   0  0  0  0  0  0  0  0  0  0  0  0
   16.9997   -3.2113    3.5275 C   0  0  0  0  0  0  0  0  0  0  0  0
   18.1010   -3.0080    2.8083 C   0  0  0  0  0  0  0  0  0  0  0  0
   18.4433   -1.7817    2.4204 C   0  0  0  0  0  0  0  0  0  0  0  0
   19.4759   -1.5922    1.7798 O   0  0  0  0  0  0  0  0  0  0  0  0
   18.6463   -4.1948    2.5564 N   0  0  0  0  0  0  0  0  0  0  0  0
   17.8893   -5.1299    3.1217 C   0  0  0  0  0  0  0  0  0  0  0  0
   16.8755   -4.5191    3.7286 N   0  0  0  0  0  0  0  0  0  0  0  0
  1  2  1  0  0  0  0
  1  6  1  0  0  0  0
  2  3  2  0  0  0  0
  3  4  1  0  0  0  0
  4  5  2  0  0  0  0
  4 10  1  0  0  0  0
  5  6  1  0  0  0  0
  5  8  1  0  0  0  0
  6  7  2  0  0  0  0
  8  9  1  0  0  0  0
  9 10  2  0  0  0  0
M  END
>  <CHROM.1>
17.71381666,-2.69677169,2.97798013,1.45620053,0.55063857,-0.12090451

>  <Name>
ligand

>  <RI>
0

>  <Rbt.Current_Directory>
/home/itssahil/PROJECTS/Mol_Feturizer/New_Systems/rnas/4NYD

>  <Rbt.Executable>
rbdock ($Id: //depot/dev/client3/rdock/2013.1/src/exe/rbdock.cxx#4 $)

>  <Rbt.Library>
libRbt.so (2013.1, Build901 2013/11/27)

>  <Rbt.Parameter_File>
/export/apps/rDock/src/rDock_2013.1_src/data/scripts/dock_solv.prm

>  <Rbt.Receptor>
prm/blind_docking_80.prm

>  <SCORE>
-23.7512

>  <SCORE.INTER>
-23.7512

>  <SCORE.INTER.CONST>
1

>  <SCORE.INTER.POLAR>
0

>  <SCORE.INTER.ROT>
0

>  <SCORE.INTER.SOLV>
3.42515

>  <SCORE.INTER.VDW>
-20.5758

>  <SCORE.INTER.norm>
-2.37512

>  <SCORE.INTRA>
0

>  <SCORE.INTRA.DIHEDRAL>
0

>  <SCORE.INTRA.DIHEDRAL.0>
0

>  <SCORE.INTRA.POLAR>
0

>  <SCORE.INTRA.POLAR.0>
0

>  <SCORE.INTRA.REPUL>
0

>  <SCORE.INTRA.REPUL.0>
0

>  <SCORE.INTRA.SOLV>
0

>  <SCORE.INTRA.SOLV.lig_0>
-4.1818

>  <SCORE.INTRA.VDW>
0

>  <SCORE.INTRA.VDW.0>
0

>  <SCORE.INTRA.norm>
0

>  <SCORE.RESTR>
0

>  <SCORE.RESTR.CAVITY>
0

>  <SCORE.RESTR.norm>
0

>  <SCORE.SYSTEM>
0

>  <SCORE.SYSTEM.CONST>
0

>  <SCORE.SYSTEM.DIHEDRAL>
0

>  <SCORE.SYSTEM.SOLV>
0

>  <SCORE.SYSTEM.norm>
0

>  <SCORE.heavy>
10

>  <SCORE.norm>
-2.37512

>  <RMSD>
3.136

$$$$
ligand
 OpenBabel11021811503D
libRbt.so/2013.1/901 2013/11/27
 10 11  0  0  0  0  0  0  0  0999 V2000
   17.6612   -0.6791    2.7783 N   0  0  0  0  0  0  0  0  0  0  0  0
   16.5650   -0.8638    3.4899 C   0  0  0  0  0  0  0  0  0  0  0  0
   16.2279   -2.1572    3.9028 N   0  0  0  0  0  0  0  0  0  0  0  0
   17.0080   -3.1919    3.5609 C   0  0  0  0  0  0  0  0  0  0  0  0
   18.1089   -3.0002    2.8380 C   0  0  0  0  0  0  0  0  0  0  0  0
   18.4625   -1.7776    2.4486 C   0  0  0  0  0  0  0  0  0  0  0  0
   19.4949   -1.5989    1.8045 O   0  0  0  0  0  0  0  0  0  0  0  0
   18.6411   -4.1926    2.5847 N   0  0  0  0  0  0  0  0  0  0  0  0
   17.8763   -5.1197    3.1528 C   0  0  0  0  0  0  0  0  0  0  0  0
   16.8709   -4.4983    3.7628 N   0  0  0  0  0  0  0  0  0  0  0  0
  1  2  1  0  0  0  0
  1  6  1  0  0  0  0
  2  3  2  0  0  0  0
  3  4  1  0  0  0  0
  4  5  2  0  0  0  0
  4 10  1  0  0  0  0
  5  6  1  0  0  0  0
  5  8  1  0  0  0  0
  6  7  2  0  0  0  0
  8  9  1  0  0  0  0
  9 10  2  0  0  0  0
M  END
>  <CHROM.1>
17.72547779,-2.68494740,3.00884239,1.44462545,0.55513911,-0.11511656

>  <Name>
ligand

>  <RI>
0

>  <Rbt.Current_Directory>
/home/itssahil/PROJECTS/Mol_Feturizer/New_Systems/rnas/4NYD

>  <Rbt.Executable>
rbdock ($Id: //depot/dev/client3/rdock/2013.1/src/exe/rbdock.cxx#4 $)

>  <Rbt.Library>
libRbt.so (2013.1, Build901 2013/11/27)

>  <Rbt.Parameter_File>
/export/apps/rDock/src/rDock_2013.1_src/data/scripts/dock_solv.prm

>  <Rbt.Receptor>
prm/pocket_docking_3.prm

>  <SCORE>
-23.7974

>  <SCORE.INTER>
-23.7974

>  <SCORE.INTER.CONST>
1

>  <SCORE.INTER.POLAR>
0

>  <SCORE.INTER.ROT>
0

>  <SCORE.INTER.SOLV>
3.45971

>  <SCORE.INTER.VDW>
-20.6181

>  <SCORE.INTER.norm>
-2.37974

>  <SCORE.INTRA>
0

>  <SCORE.INTRA.DIHEDRAL>
0

>  <SCORE.INTRA.DIHEDRAL.0>
0

>  <SCORE.INTRA.POLAR>
0

>  <SCORE.INTRA.POLAR.0>
0

>  <SCORE.INTRA.REPUL>
0

>  <SCORE.INTRA.REPUL.0>
0

>  <SCORE.INTRA.SOLV>
0

>  <SCORE.INTRA.SOLV.lig_0>
-4.1818

>  <SCORE.INTRA.VDW>
0

>  <SCORE.INTRA.VDW.0>
0

>  <SCORE.INTRA.norm>
0

>  <SCORE.RESTR>
0

>  <SCORE.RESTR.CAVITY>
0

>  <SCORE.RESTR.norm>
0

>  <SCORE.SYSTEM>
0

>  <SCORE.SYSTEM.CONST>
0

>  <SCORE.SYSTEM.DIHEDRAL>
0

>  <SCORE.SYSTEM.SOLV>
0

>  <SCORE.SYSTEM.norm>
0

>  <SCORE.heavy>
10

>  <SCORE.norm>
-2.37974

>  <RMSD>
3.136

$$$$
ligand
 OpenBabel11021811503D
libRbt.so/2013.1/901 2013/11/27
 10 11  0  0  0  0  0  0  0  0999 V2000
   17.6767   -0.6680    2.7889 N   0  0  0  0  0  0  0  0  0  0  0  0
   16.5784   -0.8488    3.4984 C   0  0  0  0  0  0  0  0  0  0  0  0
   16.2317   -2.1419    3.9039 N   0  0  0  0  0  0  0  0  0  0  0  0
   17.0047   -3.1803    3.5572 C   0  0  0  0  0  0  0  0  0  0  0  0
   18.1078   -2.9925    2.8365 C   0  0  0  0  0  0  0  0  0  0  0  0
   18.4705   -1.7704    2.4541 C   0  0  0  0  0  0  0  0  0  0  0  0
   19.5049   -1.5956    1.8121 O   0  0  0  0  0  0  0  0  0  0  0  0
   18.6318   -4.1874    2.5773 N   0  0  0  0  0  0  0  0  0  0  0  0
   17.8598   -5.1120    3.1395 C   0  0  0  0  0  0  0  0  0  0  0  0
   16.8582   -4.4868    3.7518 N   0  0  0  0  0  0  0  0  0  0  0  0
  1  2  1  0  0  0  0
  1  6  1  0  0  0  0
  2  3  2  0  0  0  0
  3  4  1  0  0  0  0
  4  5  2  0  0  0  0
  4 10  1  0  0  0  0
  5  6  1  0  0  0  0
  5  8  1  0  0  0  0
  6  7  2  0  0  0  0
  8  9  1  0  0  0  0
  9 10  2  0  0  0  0
M  END
>  <CHROM.1>
17.72646236,-2.67551868,3.00862974,1.43615752,0.55483799,-0.10522318

>  <Name>
ligand

>  <RI>
0

>  <Rbt.Current_Directory>
/home/itssahil/PROJECTS/Mol_Feturizer/New_Systems/rnas/4NYD

>  <Rbt.Executable>
rbdock ($Id: //depot/dev/client3/rdock/2013.1/src/exe/rbdock.cxx#4 $)

>  <Rbt.Library>
libRbt.so (2013.1, Build901 2013/11/27)

>  <Rbt.Parameter_File>
/export/apps/rDock/src/rDock_2013.1_src/data/scripts/dock_solv.prm

>  <Rbt.Receptor>
prm/pocket_docking_4.prm

>  <SCORE>
-23.7977

>  <SCORE.INTER>
-23.7977

>  <SCORE.INTER.CONST>
1

>  <SCORE.INTER.POLAR>
0

>  <SCORE.INTER.ROT>
0

>  <SCORE.INTER.SOLV>
3.47056

>  <SCORE.INTER.VDW>
-20.622

>  <SCORE.INTER.norm>
-2.37977

>  <SCORE.INTRA>
0

>  <SCORE.INTRA.DIHEDRAL>
0

>  <SCORE.INTRA.DIHEDRAL.0>
0

>  <SCORE.INTRA.POLAR>
0

>  <SCORE.INTRA.POLAR.0>
0

>  <SCORE.INTRA.REPUL>
0

>  <SCORE.INTRA.REPUL.0>
0

>  <SCORE.INTRA.SOLV>
0

>  <SCORE.INTRA.SOLV.lig_0>
-4.1818

>  <SCORE.INTRA.VDW>
0

>  <SCORE.INTRA.VDW.0>
0

>  <SCORE.INTRA.norm>
0

>  <SCORE.RESTR>
0

>  <SCORE.RESTR.CAVITY>
0

>  <SCORE.RESTR.norm>
0

>  <SCORE.SYSTEM>
0

>  <SCORE.SYSTEM.CONST>
0

>  <SCORE.SYSTEM.DIHEDRAL>
0

>  <SCORE.SYSTEM.SOLV>
0

>  <SCORE.SYSTEM.norm>
0

>  <SCORE.heavy>
10

>  <SCORE.norm>
-2.37977

>  <RMSD>
3.136

$$$$
ligand
 OpenBabel11021811503D
libRbt.so/2013.1/901 2013/11/27
 10 11  0  0  0  0  0  0  0  0999 V2000
   17.6380   -0.6948    2.7733 N   0  0  0  0  0  0  0  0  0  0  0  0
   16.5399   -0.8938    3.4782 C   0  0  0  0  0  0  0  0  0  0  0  0
   16.2133   -2.1924    3.8828 N   0  0  0  0  0  0  0  0  0  0  0  0
   17.0053   -3.2178    3.5399 C   0  0  0  0  0  0  0  0  0  0  0  0
   18.1081   -3.0116    2.8238 C   0  0  0  0  0  0  0  0  0  0  0  0
   18.4517   -1.7837    2.4424 C   0  0  0  0  0  0  0  0  0  0  0  0
   19.4857   -1.5917    1.8047 O   0  0  0  0  0  0  0  0  0  0  0  0
   18.6533   -4.1975    2.5673 N   0  0  0  0  0  0  0  0  0  0  0  0
   17.8946   -5.1349    3.1267 C   0  0  0  0  0  0  0  0  0  0  0  0
   16.8800   -4.5265    3.7345 N   0  0  0  0  0  0  0  0  0  0  0  0
  1  2  1  0  0  0  0
  1  6  1  0  0  0  0
  2  3  2  0  0  0  0
  3  4  1  0  0  0  0
  4  5  2  0  0  0  0
  4 10  1  0  0  0  0
  5  6  1  0  0  0  0
  5  8  1  0  0  0  0
  6  7  2  0  0  0  0
  8  9  1  0  0  0  0
  9 10  2  0  0  0  0
M  END
>  <CHROM.1>
17.72070148,-2.70104081,2.99415676,1.45533804,0.54875456,-0.11571527

>  <Name>
ligand

>  <RI>
0

>  <Rbt.Current_Directory>
/home/itssahil/PROJECTS/Mol_Feturizer/New_Systems/rnas/4NYD

>  <Rbt.Executable>
rbdock ($Id: //depot/dev/client3/rdock/2013.1/src/exe/rbdock.cxx#4 $)

>  <Rbt.Library>
libRbt.so (2013.1, Build901 2013/11/27)

>  <Rbt.Parameter_File>
/export/apps/rDock/src/rDock_2013.1_src/data/scripts/dock_solv.prm

>  <Rbt.Receptor>
prm/pocket_docking_4.prm

>  <SCORE>
-23.7732

>  <SCORE.INTER>
-23.7732

>  <SCORE.INTER.CONST>
1

>  <SCORE.INTER.POLAR>
0

>  <SCORE.INTER.ROT>
0

>  <SCORE.INTER.SOLV>
3.44144

>  <SCORE.INTER.VDW>
-20.596

>  <SCORE.INTER.norm>
-2.37732

>  <SCORE.INTRA>
0

>  <SCORE.INTRA.DIHEDRAL>
0

>  <SCORE.INTRA.DIHEDRAL.0>
0

>  <SCORE.INTRA.POLAR>
0

>  <SCORE.INTRA.POLAR.0>
0

>  <SCORE.INTRA.REPUL>
0

>  <SCORE.INTRA.REPUL.0>
0

>  <SCORE.INTRA.SOLV>
0

>  <SCORE.INTRA.SOLV.lig_0>
-4.1818

>  <SCORE.INTRA.VDW>
0

>  <SCORE.INTRA.VDW.0>
0

>  <SCORE.INTRA.norm>
0

>  <SCORE.RESTR>
0

>  <SCORE.RESTR.CAVITY>
0

>  <SCORE.RESTR.norm>
0

>  <SCORE.SYSTEM>
0

>  <SCORE.SYSTEM.CONST>
0

>  <SCORE.SYSTEM.DIHEDRAL>
0

>  <SCORE.SYSTEM.SOLV>
0

>  <SCORE.SYSTEM.norm>
0

>  <SCORE.heavy>
10

>  <SCORE.norm>
-2.37732

>  <RMSD>
3.136

$$$$
ligand
 OpenBabel11021811503D
libRbt.so/2013.1/901 2013/11/27
 10 11  0  0  0  0  0  0  0  0999 V2000
   17.6570   -0.6815    2.7822 N   0  0  0  0  0  0  0  0  0  0  0  0
   16.5677   -0.8707    3.5033 C   0  0  0  0  0  0  0  0  0  0  0  0
   16.2385   -2.1657    3.9174 N   0  0  0  0  0  0  0  0  0  0  0  0
   17.0189   -3.1974    3.5672 C   0  0  0  0  0  0  0  0  0  0  0  0
   18.1127   -3.0012    2.8348 C   0  0  0  0  0  0  0  0  0  0  0  0
   18.4588   -1.7769    2.4439 C   0  0  0  0  0  0  0  0  0  0  0  0
   19.4849   -1.5940    1.7909 O   0  0  0  0  0  0  0  0  0  0  0  0
   18.6465   -4.1915    2.5752 N   0  0  0  0  0  0  0  0  0  0  0  0
   17.8898   -5.1218    3.1488 C   0  0  0  0  0  0  0  0  0  0  0  0
   16.8879   -4.5046    3.7685 N   0  0  0  0  0  0  0  0  0  0  0  0
  1  2  1  0  0  0  0
  1  6  1  0  0  0  0
  2  3  2  0  0  0  0
  3  4  1  0  0  0  0
  4  5  2  0  0  0  0
  4 10  1  0  0  0  0
  5  6  1  0  0  0  0
  5  8  1  0  0  0  0
  6  7  2  0  0  0  0
  8  9  1  0  0  0  0
  9 10  2  0  0  0  0
M  END
>  <CHROM.1>
17.72981584,-2.68740628,3.00946475,1.44964684,0.56357656,-0.11646131

>  <Name>
ligand

>  <RI>
0

>  <Rbt.Current_Directory>
/home/itssahil/PROJECTS/Mol_Feturizer/New_Systems/rnas/4NYD

>  <Rbt.Executable>
rbdock ($Id: //depot/dev/client3/rdock/2013.1/src/exe/rbdock.cxx#4 $)

>  <Rbt.Library>
libRbt.so (2013.1, Build901 2013/11/27)

>  <Rbt.Parameter_File>
/export/apps/rDock/src/rDock_2013.1_src/data/scripts/dock_solv.prm

>  <Rbt.Receptor>
prm/pocket_docking_8.prm

>  <SCORE>
-23.781

>  <SCORE.INTER>
-23.781

>  <SCORE.INTER.CONST>
1

>  <SCORE.INTER.POLAR>
0

>  <SCORE.INTER.ROT>
0

>  <SCORE.INTER.SOLV>
3.46206

>  <SCORE.INTER.VDW>
-20.608

>  <SCORE.INTER.norm>
-2.3781

>  <SCORE.INTRA>
0

>  <SCORE.INTRA.DIHEDRAL>
0

>  <SCORE.INTRA.DIHEDRAL.0>
0

>  <SCORE.INTRA.POLAR>
0

>  <SCORE.INTRA.POLAR.0>
0

>  <SCORE.INTRA.REPUL>
0

>  <SCORE.INTRA.REPUL.0>
0

>  <SCORE.INTRA.SOLV>
0

>  <SCORE.INTRA.SOLV.lig_0>
-4.1818

>  <SCORE.INTRA.VDW>
0

>  <SCORE.INTRA.VDW.0>
0

>  <SCORE.INTRA.norm>
0

>  <SCORE.RESTR>
0

>  <SCORE.RESTR.CAVITY>
0

>  <SCORE.RESTR.norm>
0

>  <SCORE.SYSTEM>
0

>  <SCORE.SYSTEM.CONST>
0

>  <SCORE.SYSTEM.DIHEDRAL>
0

>  <SCORE.SYSTEM.SOLV>
0

>  <SCORE.SYSTEM.norm>
0

>  <SCORE.heavy>
10

>  <SCORE.norm>
-2.3781

>  <RMSD>
3.136

$$$$
ligand
 OpenBabel11021811503D
libRbt.so/2013.1/901 2013/11/27
 10 11  0  0  0  0  0  0  0  0999 V2000
   17.7594   -0.6286    2.7713 N   0  0  0  0  0  0  0  0  0  0  0  0
   16.6259   -0.7474    3.4372 C   0  0  0  0  0  0  0  0  0  0  0  0
   16.2027   -2.0168    3.8451 N   0  0  0  0  0  0  0  0  0  0  0  0
   16.9396   -3.0951    3.5444 C   0  0  0  0  0  0  0  0  0  0  0  0
   18.0786   -2.9696    2.8674 C   0  0  0  0  0  0  0  0  0  0  0  0
   18.5135   -1.7715    2.4842 C   0  0  0  0  0  0  0  0  0  0  0  0
   19.5801   -1.6546    1.8831 O   0  0  0  0  0  0  0  0  0  0  0  0
   18.5560   -4.1912    2.6459 N   0  0  0  0  0  0  0  0  0  0  0  0
   17.7193   -5.0704    3.1880 C   0  0  0  0  0  0  0  0  0  0  0  0
   16.7241   -4.3903    3.7502 N   0  0  0  0  0  0  0  0  0  0  0  0
  1  2  1  0  0  0  0
  1  6  1  0  0  0  0
  2  3  2  0  0  0  0
  3  4  1  0  0  0  0
  4  5  2  0  0  0  0
  4 10  1  0  0  0  0
  5  6  1  0  0  0  0
  5  8  1  0  0  0  0
  6  7  2  0  0  0  0
  8  9  1  0  0  0  0
  9 10  2  0  0  0  0
M  END
>  <CHROM.1>
17.70589473,-2.63262089,3.01948530,1.37746777,0.51861686,-0.08943090

>  <Name>
ligand

>  <RI>
0

>  <Rbt.Current_Directory>
/home/itssahil/PROJECTS/Mol_Feturizer/New_Systems/rnas/4NYD

>  <Rbt.Executable>
rbdock ($Id: //depot/dev/client3/rdock/2013.1/src/exe/rbdock.cxx#4 $)

>  <Rbt.Library>
libRbt.so (2013.1, Build901 2013/11/27)

>  <Rbt.Parameter_File>
/export/apps/rDock/src/rDock_2013.1_src/data/scripts/dock_solv.prm

>  <Rbt.Receptor>
prm/pocket_docking_5.prm

>  <SCORE>
-23.7326

>  <SCORE.INTER>
-23.7326

>  <SCORE.INTER.CONST>
1

>  <SCORE.INTER.POLAR>
0

>  <SCORE.INTER.ROT>
0

>  <SCORE.INTER.SOLV>
3.48508

>  <SCORE.INTER.VDW>
-20.5834

>  <SCORE.INTER.norm>
-2.37326

>  <SCORE.INTRA>
0

>  <SCORE.INTRA.DIHEDRAL>
0

>  <SCORE.INTRA.DIHEDRAL.0>
0

>  <SCORE.INTRA.POLAR>
0

>  <SCORE.INTRA.POLAR.0>
0

>  <SCORE.INTRA.REPUL>
0

>  <SCORE.INTRA.REPUL.0>
0

>  <SCORE.INTRA.SOLV>
0

>  <SCORE.INTRA.SOLV.lig_0>
-4.1818

>  <SCORE.INTRA.VDW>
0

>  <SCORE.INTRA.VDW.0>
0

>  <SCORE.INTRA.norm>
0

>  <SCORE.RESTR>
0

>  <SCORE.RESTR.CAVITY>
0

>  <SCORE.RESTR.norm>
0

>  <SCORE.SYSTEM>
0

>  <SCORE.SYSTEM.CONST>
0

>  <SCORE.SYSTEM.DIHEDRAL>
0

>  <SCORE.SYSTEM.SOLV>
0

>  <SCORE.SYSTEM.norm>
0

>  <SCORE.heavy>
10

>  <SCORE.norm>
-2.37326

>  <RMSD>
3.137

$$$$
ligand
 OpenBabel11021811503D
libRbt.so/2013.1/901 2013/11/27
 10 11  0  0  0  0  0  0  0  0999 V2000
   17.6639   -0.6857    2.7022 N   0  0  0  0  0  0  0  0  0  0  0  0
   16.5389   -0.8375    3.3757 C   0  0  0  0  0  0  0  0  0  0  0  0
   16.1660   -2.1159    3.8042 N   0  0  0  0  0  0  0  0  0  0  0  0
   16.9417   -3.1699    3.5152 C   0  0  0  0  0  0  0  0  0  0  0  0
   18.0720   -3.0113    2.8305 C   0  0  0  0  0  0  0  0  0  0  0  0
   18.4594   -1.8034    2.4277 C   0  0  0  0  0  0  0  0  0  0  0  0
   19.5180   -1.6550    1.8194 O   0  0  0  0  0  0  0  0  0  0  0  0
   18.5942   -4.2171    2.6241 N   0  0  0  0  0  0  0  0  0  0  0  0
   17.7940   -5.1193    3.1832 C   0  0  0  0  0  0  0  0  0  0  0  0
   16.7764   -4.4691    3.7407 N   0  0  0  0  0  0  0  0  0  0  0  0
  1  2  1  0  0  0  0
  1  6  1  0  0  0  0
  2  3  2  0  0  0  0
  3  4  1  0  0  0  0
  4  5  2  0  0  0  0
  4 10  1  0  0  0  0
  5  6  1  0  0  0  0
  5  8  1  0  0  0  0
  6  7  2  0  0  0  0
  8  9  1  0  0  0  0
  9 10  2  0  0  0  0
M  END
>  <CHROM.1>
17.68748765,-2.68650411,2.97959308,1.42141236,0.51950962,-0.12577763

>  <Name>
ligand

>  <RI>
0

>  <Rbt.Current_Directory>
/home/itssahil/PROJECTS/Mol_Feturizer/New_Systems/rnas/4NYD

>  <Rbt.Executable>
rbdock ($Id: //depot/dev/client3/rdock/2013.1/src/exe/rbdock.cxx#4 $)

>  <Rbt.Library>
libRbt.so (2013.1, Build901 2013/11/27)

>  <Rbt.Parameter_File>
/export/apps/rDock/src/rDock_2013.1_src/data/scripts/dock_solv.prm

>  <Rbt.Receptor>
prm/pocket_docking_5.prm

>  <SCORE>
-23.7603

>  <SCORE.INTER>
-23.7603

>  <SCORE.INTER.CONST>
1

>  <SCORE.INTER.POLAR>
0

>  <SCORE.INTER.ROT>
0

>  <SCORE.INTER.SOLV>
3.4123

>  <SCORE.INTER.VDW>
-20.5776

>  <SCORE.INTER.norm>
-2.37603

>  <SCORE.INTRA>
0

>  <SCORE.INTRA.DIHEDRAL>
0

>  <SCORE.INTRA.DIHEDRAL.0>
0

>  <SCORE.INTRA.POLAR>
0

>  <SCORE.INTRA.POLAR.0>
0

>  <SCORE.INTRA.REPUL>
0

>  <SCORE.INTRA.REPUL.0>
0

>  <SCORE.INTRA.SOLV>
0

>  <SCORE.INTRA.SOLV.lig_0>
-4.1818

>  <SCORE.INTRA.VDW>
0

>  <SCORE.INTRA.VDW.0>
0

>  <SCORE.INTRA.norm>
0

>  <SCORE.RESTR>
0

>  <SCORE.RESTR.CAVITY>
0

>  <SCORE.RESTR.norm>
0

>  <SCORE.SYSTEM>
0

>  <SCORE.SYSTEM.CONST>
0

>  <SCORE.SYSTEM.DIHEDRAL>
0

>  <SCORE.SYSTEM.SOLV>
0

>  <SCORE.SYSTEM.norm>
0

>  <SCORE.heavy>
10

>  <SCORE.norm>
-2.37603

>  <RMSD>
3.137

$$$$
ligand
 OpenBabel11021811503D
libRbt.so/2013.1/901 2013/11/27
 10 11  0  0  0  0  0  0  0  0999 V2000
   17.6289   -0.7010    2.7746 N   0  0  0  0  0  0  0  0  0  0  0  0
   16.5324   -0.9020    3.4814 C   0  0  0  0  0  0  0  0  0  0  0  0
   16.2118   -2.2006    3.8910 N   0  0  0  0  0  0  0  0  0  0  0  0
   17.0077   -3.2238    3.5509 C   0  0  0  0  0  0  0  0  0  0  0  0
   18.1088   -3.0156    2.8329 C   0  0  0  0  0  0  0  0  0  0  0  0
   18.4468   -1.7877    2.4467 C   0  0  0  0  0  0  0  0  0  0  0  0
   19.4793   -1.5936    1.8071 O   0  0  0  0  0  0  0  0  0  0  0  0
   18.6586   -4.2002    2.5801 N   0  0  0  0  0  0  0  0  0  0  0  0
   17.9046   -5.1387    3.1436 C   0  0  0  0  0  0  0  0  0  0  0  0
   16.8881   -4.5323    3.7504 N   0  0  0  0  0  0  0  0  0  0  0  0
  1  2  1  0  0  0  0
  1  6  1  0  0  0  0
  2  3  2  0  0  0  0
  3  4  1  0  0  0  0
  4  5  2  0  0  0  0
  4 10  1  0  0  0  0
  5  6  1  0  0  0  0
  5  8  1  0  0  0  0
  6  7  2  0  0  0  0
  8  9  1  0  0  0  0
  9 10  2  0  0  0  0
M  END
>  <CHROM.1>
17.72029668,-2.70606147,3.00253226,1.46035863,0.54935564,-0.12193161

>  <Name>
ligand

>  <RI>
0

>  <Rbt.Current_Directory>
/home/itssahil/PROJECTS/Mol_Feturizer/New_Systems/rnas/4NYD

>  <Rbt.Executable>
rbdock ($Id: //depot/dev/client3/rdock/2013.1/src/exe/rbdock.cxx#4 $)

>  <Rbt.Library>
libRbt.so (2013.1, Build901 2013/11/27)

>  <Rbt.Parameter_File>
/export/apps/rDock/src/rDock_2013.1_src/data/scripts/dock_solv.prm

>  <Rbt.Receptor>
prm/pocket_docking_7.prm

>  <SCORE>
-23.7742

>  <SCORE.INTER>
-23.7742

>  <SCORE.INTER.CONST>
1

>  <SCORE.INTER.POLAR>
0

>  <SCORE.INTER.ROT>
0

>  <SCORE.INTER.SOLV>
3.44341

>  <SCORE.INTER.VDW>
-20.5973

>  <SCORE.INTER.norm>
-2.37742

>  <SCORE.INTRA>
0

>  <SCORE.INTRA.DIHEDRAL>
0

>  <SCORE.INTRA.DIHEDRAL.0>
0

>  <SCORE.INTRA.POLAR>
0

>  <SCORE.INTRA.POLAR.0>
0

>  <SCORE.INTRA.REPUL>
0

>  <SCORE.INTRA.REPUL.0>
0

>  <SCORE.INTRA.SOLV>
0

>  <SCORE.INTRA.SOLV.lig_0>
-4.1818

>  <SCORE.INTRA.VDW>
0

>  <SCORE.INTRA.VDW.0>
0

>  <SCORE.INTRA.norm>
0

>  <SCORE.RESTR>
0

>  <SCORE.RESTR.CAVITY>
0

>  <SCORE.RESTR.norm>
0

>  <SCORE.SYSTEM>
0

>  <SCORE.SYSTEM.CONST>
0

>  <SCORE.SYSTEM.DIHEDRAL>
0

>  <SCORE.SYSTEM.SOLV>
0

>  <SCORE.SYSTEM.norm>
0

>  <SCORE.heavy>
10

>  <SCORE.norm>
-2.37742

>  <RMSD>
3.137

$$$$
ligand
 OpenBabel11021811503D
libRbt.so/2013.1/901 2013/11/27
 10 11  0  0  0  0  0  0  0  0999 V2000
   17.7025   -0.6331    2.7192 N   0  0  0  0  0  0  0  0  0  0  0  0
   16.5895   -0.7732    3.4148 C   0  0  0  0  0  0  0  0  0  0  0  0
   16.2092   -2.0483    3.8464 N   0  0  0  0  0  0  0  0  0  0  0  0
   16.9656   -3.1109    3.5382 C   0  0  0  0  0  0  0  0  0  0  0  0
   18.0836   -2.9641    2.8313 C   0  0  0  0  0  0  0  0  0  0  0  0
   18.4781   -1.7597    2.4248 C   0  0  0  0  0  0  0  0  0  0  0  0
   19.5259   -1.6224    1.7957 O   0  0  0  0  0  0  0  0  0  0  0  0
   18.5863   -4.1756    2.6103 N   0  0  0  0  0  0  0  0  0  0  0  0
   17.7862   -5.0697    3.1825 C   0  0  0  0  0  0  0  0  0  0  0  0
   16.7884   -4.4088    3.7627 N   0  0  0  0  0  0  0  0  0  0  0  0
  1  2  1  0  0  0  0
  1  6  1  0  0  0  0
  2  3  2  0  0  0  0
  3  4  1  0  0  0  0
  4  5  2  0  0  0  0
  4 10  1  0  0  0  0
  5  6  1  0  0  0  0
  5  8  1  0  0  0  0
  6  7  2  0  0  0  0
  8  9  1  0  0  0  0
  9 10  2  0  0  0  0
M  END
>  <CHROM.1>
17.70638205,-2.63500705,2.98928101,1.40973435,0.54111620,-0.11637233

>  <Name>
ligand

>  <RI>
0

>  <Rbt.Current_Directory>
/home/itssahil/PROJECTS/Mol_Feturizer/New_Systems/rnas/4NYD

>  <Rbt.Executable>
rbdock ($Id: //depot/dev/client3/rdock/2013.1/src/exe/rbdock.cxx#4 $)

>  <Rbt.Library>
libRbt.so (2013.1, Build901 2013/11/27)

>  <Rbt.Parameter_File>
/export/apps/rDock/src/rDock_2013.1_src/data/scripts/dock_solv.prm

>  <Rbt.Receptor>
prm/pocket_docking_8.prm

>  <SCORE>
-23.789

>  <SCORE.INTER>
-23.789

>  <SCORE.INTER.CONST>
1

>  <SCORE.INTER.POLAR>
0

>  <SCORE.INTER.ROT>
0

>  <SCORE.INTER.SOLV>
3.44422

>  <SCORE.INTER.VDW>
-20.6074

>  <SCORE.INTER.norm>
-2.3789

>  <SCORE.INTRA>
0

>  <SCORE.INTRA.DIHEDRAL>
0

>  <SCORE.INTRA.DIHEDRAL.0>
0

>  <SCORE.INTRA.POLAR>
0

>  <SCORE.INTRA.POLAR.0>
0

>  <SCORE.INTRA.REPUL>
0

>  <SCORE.INTRA.REPUL.0>
0

>  <SCORE.INTRA.SOLV>
0

>  <SCORE.INTRA.SOLV.lig_0>
-4.1818

>  <SCORE.INTRA.VDW>
0

>  <SCORE.INTRA.VDW.0>
0

>  <SCORE.INTRA.norm>
0

>  <SCORE.RESTR>
0

>  <SCORE.RESTR.CAVITY>
0

>  <SCORE.RESTR.norm>
0

>  <SCORE.SYSTEM>
0

>  <SCORE.SYSTEM.CONST>
0

>  <SCORE.SYSTEM.DIHEDRAL>
0

>  <SCORE.SYSTEM.SOLV>
0

>  <SCORE.SYSTEM.norm>
0

>  <SCORE.heavy>
10

>  <SCORE.norm>
-2.3789

>  <RMSD>
3.137

$$$$
ligand
 OpenBabel11021811503D
libRbt.so/2013.1/901 2013/11/27
 10 11  0  0  0  0  0  0  0  0999 V2000
   17.6645   -0.6761    2.7875 N   0  0  0  0  0  0  0  0  0  0  0  0
   16.5625   -0.8599    3.4904 C   0  0  0  0  0  0  0  0  0  0  0  0
   16.2153   -2.1544    3.8911 N   0  0  0  0  0  0  0  0  0  0  0  0
   16.9916   -3.1910    3.5464 C   0  0  0  0  0  0  0  0  0  0  0  0
   18.0984   -3.0002    2.8323 C   0  0  0  0  0  0  0  0  0  0  0  0
   18.4616   -1.7767    2.4546 C   0  0  0  0  0  0  0  0  0  0  0  0
   19.4993   -1.5991    1.8187 O   0  0  0  0  0  0  0  0  0  0  0  0
   18.6254   -4.1937    2.5733 N   0  0  0  0  0  0  0  0  0  0  0  0
   17.8516   -5.1206    3.1291 C   0  0  0  0  0  0  0  0  0  0  0  0
   16.8458   -4.4982    3.7373 N   0  0  0  0  0  0  0  0  0  0  0  0
  1  2  1  0  0  0  0
  1  6  1  0  0  0  0
  2  3  2  0  0  0  0
  3  4  1  0  0  0  0
  4  5  2  0  0  0  0
  4 10  1  0  0  0  0
  5  6  1  0  0  0  0
  5  8  1  0  0  0  0
  6  7  2  0  0  0  0
  8  9  1  0  0  0  0
  9 10  2  0  0  0  0
M  END
>  <CHROM.1>
17.71570732,-2.68402310,3.00298232,1.43702992,0.54919672,-0.10344639

>  <Name>
ligand

>  <RI>
0

>  <Rbt.Current_Directory>
/home/itssahil/PROJECTS/Mol_Feturizer/New_Systems/rnas/4NYD

>  <Rbt.Executable>
rbdock ($Id: //depot/dev/client3/rdock/2013.1/src/exe/rbdock.cxx#4 $)

>  <Rbt.Library>
libRbt.so (2013.1, Build901 2013/11/27)

>  <Rbt.Parameter_File>
/export/apps/rDock/src/rDock_2013.1_src/data/scripts/dock_solv.prm

>  <Rbt.Receptor>
prm/blind_docking_60.prm

>  <SCORE>
-23.7712

>  <SCORE.INTER>
-23.7712

>  <SCORE.INTER.CONST>
1

>  <SCORE.INTER.POLAR>
0

>  <SCORE.INTER.ROT>
0

>  <SCORE.INTER.SOLV>
3.46389

>  <SCORE.INTER.VDW>
-20.6021

>  <SCORE.INTER.norm>
-2.37712

>  <SCORE.INTRA>
0

>  <SCORE.INTRA.DIHEDRAL>
0

>  <SCORE.INTRA.DIHEDRAL.0>
0

>  <SCORE.INTRA.POLAR>
0

>  <SCORE.INTRA.POLAR.0>
0

>  <SCORE.INTRA.REPUL>
0

>  <SCORE.INTRA.REPUL.0>
0

>  <SCORE.INTRA.SOLV>
0

>  <SCORE.INTRA.SOLV.lig_0>
-4.1818

>  <SCORE.INTRA.VDW>
0

>  <SCORE.INTRA.VDW.0>
0

>  <SCORE.INTRA.norm>
0

>  <SCORE.RESTR>
0

>  <SCORE.RESTR.CAVITY>
0

>  <SCORE.RESTR.norm>
0

>  <SCORE.SYSTEM>
0

>  <SCORE.SYSTEM.CONST>
0

>  <SCORE.SYSTEM.DIHEDRAL>
0

>  <SCORE.SYSTEM.SOLV>
0

>  <SCORE.SYSTEM.norm>
0

>  <SCORE.heavy>
10

>  <SCORE.norm>
-2.37712

>  <RMSD>
3.138

$$$$
ligand
 OpenBabel11021811503D
libRbt.so/2013.1/901 2013/11/27
 10 11  0  0  0  0  0  0  0  0999 V2000
   17.6816   -0.6729    2.7217 N   0  0  0  0  0  0  0  0  0  0  0  0
   16.5599   -0.8189    3.4020 C   0  0  0  0  0  0  0  0  0  0  0  0
   16.1841   -2.0950    3.8346 N   0  0  0  0  0  0  0  0  0  0  0  0
   16.9536   -3.1527    3.5427 C   0  0  0  0  0  0  0  0  0  0  0  0
   18.0805   -3.0001    2.8511 C   0  0  0  0  0  0  0  0  0  0  0  0
   18.4707   -1.7945    2.4442 C   0  0  0  0  0  0  0  0  0  0  0  0
   19.5263   -1.6516    1.8295 O   0  0  0  0  0  0  0  0  0  0  0  0
   18.5963   -4.2084    2.6435 N   0  0  0  0  0  0  0  0  0  0  0  0
   17.7955   -5.1064    3.2087 C   0  0  0  0  0  0  0  0  0  0  0  0
   16.7840   -4.4509    3.7712 N   0  0  0  0  0  0  0  0  0  0  0  0
  1  2  1  0  0  0  0
  1  6  1  0  0  0  0
  2  3  2  0  0  0  0
  3  4  1  0  0  0  0
  4  5  2  0  0  0  0
  4 10  1  0  0  0  0
  5  6  1  0  0  0  0
  5  8  1  0  0  0  0
  6  7  2  0  0  0  0
  8  9  1  0  0  0  0
  9 10  2  0  0  0  0
M  END
>  <CHROM.1>
17.69824989,-2.67340798,3.00198398,1.41733452,0.52586941,-0.12524457

>  <Name>
ligand

>  <RI>
0

>  <Rbt.Current_Directory>
/home/itssahil/PROJECTS/Mol_Feturizer/New_Systems/rnas/4NYD

>  <Rbt.Executable>
rbdock ($Id: //depot/dev/client3/rdock/2013.1/src/exe/rbdock.cxx#4 $)

>  <Rbt.Library>
libRbt.so (2013.1, Build901 2013/11/27)

>  <Rbt.Parameter_File>
/export/apps/rDock/src/rDock_2013.1_src/data/scripts/dock_solv.prm

>  <Rbt.Receptor>
prm/blind_docking_80.prm

>  <SCORE>
-23.7767

>  <SCORE.INTER>
-23.7767

>  <SCORE.INTER.CONST>
1

>  <SCORE.INTER.POLAR>
0

>  <SCORE.INTER.ROT>
0

>  <SCORE.INTER.SOLV>
3.43809

>  <SCORE.INTER.VDW>
-20.5971

>  <SCORE.INTER.norm>
-2.37767

>  <SCORE.INTRA>
0

>  <SCORE.INTRA.DIHEDRAL>
0

>  <SCORE.INTRA.DIHEDRAL.0>
0

>  <SCORE.INTRA.POLAR>
0

>  <SCORE.INTRA.POLAR.0>
0

>  <SCORE.INTRA.REPUL>
0

>  <SCORE.INTRA.REPUL.0>
0

>  <SCORE.INTRA.SOLV>
0

>  <SCORE.INTRA.SOLV.lig_0>
-4.1818

>  <SCORE.INTRA.VDW>
0

>  <SCORE.INTRA.VDW.0>
0

>  <SCORE.INTRA.norm>
0

>  <SCORE.RESTR>
0

>  <SCORE.RESTR.CAVITY>
0

>  <SCORE.RESTR.norm>
0

>  <SCORE.SYSTEM>
0

>  <SCORE.SYSTEM.CONST>
0

>  <SCORE.SYSTEM.DIHEDRAL>
0

>  <SCORE.SYSTEM.SOLV>
0

>  <SCORE.SYSTEM.norm>
0

>  <SCORE.heavy>
10

>  <SCORE.norm>
-2.37767

>  <RMSD>
3.138

$$$$
ligand
 OpenBabel11021811503D
libRbt.so/2013.1/901 2013/11/27
 10 11  0  0  0  0  0  0  0  0999 V2000
   17.6490   -0.6849    2.7943 N   0  0  0  0  0  0  0  0  0  0  0  0
   16.5594   -0.8796    3.5134 C   0  0  0  0  0  0  0  0  0  0  0  0
   16.2321   -2.1772    3.9209 N   0  0  0  0  0  0  0  0  0  0  0  0
   17.0147   -3.2059    3.5663 C   0  0  0  0  0  0  0  0  0  0  0  0
   18.1088   -3.0040    2.8359 C   0  0  0  0  0  0  0  0  0  0  0  0
   18.4531   -1.7773    2.4514 C   0  0  0  0  0  0  0  0  0  0  0  0
   19.4794   -1.5893    1.8002 O   0  0  0  0  0  0  0  0  0  0  0  0
   18.6450   -4.1922    2.5709 N   0  0  0  0  0  0  0  0  0  0  0  0
   17.8894   -5.1266    3.1392 C   0  0  0  0  0  0  0  0  0  0  0  0
   16.8859   -4.5142    3.7611 N   0  0  0  0  0  0  0  0  0  0  0  0
  1  2  1  0  0  0  0
  1  6  1  0  0  0  0
  2  3  2  0  0  0  0
  3  4  1  0  0  0  0
  4  5  2  0  0  0  0
  4 10  1  0  0  0  0
  5  6  1  0  0  0  0
  5  8  1  0  0  0  0
  6  7  2  0  0  0  0
  8  9  1  0  0  0  0
  9 10  2  0  0  0  0
M  END
>  <CHROM.1>
17.72520978,-2.69182335,3.01173756,1.45162975,0.56246549,-0.11259417

>  <Name>
ligand

>  <RI>
0

>  <Rbt.Current_Directory>
/home/itssahil/PROJECTS/Mol_Feturizer/New_Systems/rnas/4NYD

>  <Rbt.Executable>
rbdock ($Id: //depot/dev/client3/rdock/2013.1/src/exe/rbdock.cxx#4 $)

>  <Rbt.Library>
libRbt.so (2013.1, Build901 2013/11/27)

>  <Rbt.Parameter_File>
/export/apps/rDock/src/rDock_2013.1_src/data/scripts/dock_solv.prm

>  <Rbt.Receptor>
prm/pocket_docking_3.prm

>  <SCORE>
-23.7742

>  <SCORE.INTER>
-23.7742

>  <SCORE.INTER.CONST>
1

>  <SCORE.INTER.POLAR>
0

>  <SCORE.INTER.ROT>
0

>  <SCORE.INTER.SOLV>
3.46627

>  <SCORE.INTER.VDW>
-20.6049

>  <SCORE.INTER.norm>
-2.37742

>  <SCORE.INTRA>
0

>  <SCORE.INTRA.DIHEDRAL>
0

>  <SCORE.INTRA.DIHEDRAL.0>
0

>  <SCORE.INTRA.POLAR>
0

>  <SCORE.INTRA.POLAR.0>
0

>  <SCORE.INTRA.REPUL>
0

>  <SCORE.INTRA.REPUL.0>
0

>  <SCORE.INTRA.SOLV>
0

>  <SCORE.INTRA.SOLV.lig_0>
-4.1818

>  <SCORE.INTRA.VDW>
0

>  <SCORE.INTRA.VDW.0>
0

>  <SCORE.INTRA.norm>
0

>  <SCORE.RESTR>
0

>  <SCORE.RESTR.CAVITY>
0

>  <SCORE.RESTR.norm>
0

>  <SCORE.SYSTEM>
0

>  <SCORE.SYSTEM.CONST>
0

>  <SCORE.SYSTEM.DIHEDRAL>
0

>  <SCORE.SYSTEM.SOLV>
0

>  <SCORE.SYSTEM.norm>
0

>  <SCORE.heavy>
10

>  <SCORE.norm>
-2.37742

>  <RMSD>
3.138

$$$$
ligand
 OpenBabel11021811503D
libRbt.so/2013.1/901 2013/11/27
 10 11  0  0  0  0  0  0  0  0999 V2000
   17.6334   -0.7005    2.7543 N   0  0  0  0  0  0  0  0  0  0  0  0
   16.5301   -0.8882    3.4542 C   0  0  0  0  0  0  0  0  0  0  0  0
   16.1978   -2.1810    3.8728 N   0  0  0  0  0  0  0  0  0  0  0  0
   16.9896   -3.2123    3.5480 C   0  0  0  0  0  0  0  0  0  0  0  0
   18.0977   -3.0176    2.8369 C   0  0  0  0  0  0  0  0  0  0  0  0
   18.4467   -1.7954    2.4426 C   0  0  0  0  0  0  0  0  0  0  0  0
   19.4854   -1.6137    1.8095 O   0  0  0  0  0  0  0  0  0  0  0  0
   18.6417   -4.2079    2.5990 N   0  0  0  0  0  0  0  0  0  0  0  0
   17.8771   -5.1365    3.1649 C   0  0  0  0  0  0  0  0  0  0  0  0
   16.8599   -4.5182    3.7582 N   0  0  0  0  0  0  0  0  0  0  0  0
  1  2  1  0  0  0  0
  1  6  1  0  0  0  0
  2  3  2  0  0  0  0
  3  4  1  0  0  0  0
  4  5  2  0  0  0  0
  4 10  1  0  0  0  0
  5  6  1  0  0  0  0
  5  8  1  0  0  0  0
  6  7  2  0  0  0  0
  8  9  1  0  0  0  0
  9 10  2  0  0  0  0
M  END
>  <CHROM.1>
17.70988377,-2.70406280,3.00077958,1.45168041,0.54234353,-0.12631221

>  <Name>
ligand

>  <RI>
0

>  <Rbt.Current_Directory>
/home/itssahil/PROJECTS/Mol_Feturizer/New_Systems/rnas/4NYD

>  <Rbt.Executable>
rbdock ($Id: //depot/dev/client3/rdock/2013.1/src/exe/rbdock.cxx#4 $)

>  <Rbt.Library>
libRbt.so (2013.1, Build901 2013/11/27)

>  <Rbt.Parameter_File>
/export/apps/rDock/src/rDock_2013.1_src/data/scripts/dock_solv.prm

>  <Rbt.Receptor>
prm/pocket_docking_7.prm

>  <SCORE>
-23.7747

>  <SCORE.INTER>
-23.7747

>  <SCORE.INTER.CONST>
1

>  <SCORE.INTER.POLAR>
0

>  <SCORE.INTER.ROT>
0

>  <SCORE.INTER.SOLV>
3.43636

>  <SCORE.INTER.VDW>
-20.5953

>  <SCORE.INTER.norm>
-2.37747

>  <SCORE.INTRA>
0

>  <SCORE.INTRA.DIHEDRAL>
0

>  <SCORE.INTRA.DIHEDRAL.0>
0

>  <SCORE.INTRA.POLAR>
0

>  <SCORE.INTRA.POLAR.0>
0

>  <SCORE.INTRA.REPUL>
0

>  <SCORE.INTRA.REPUL.0>
0

>  <SCORE.INTRA.SOLV>
0

>  <SCORE.INTRA.SOLV.lig_0>
-4.1818

>  <SCORE.INTRA.VDW>
0

>  <SCORE.INTRA.VDW.0>
0

>  <SCORE.INTRA.norm>
0

>  <SCORE.RESTR>
0

>  <SCORE.RESTR.CAVITY>
0

>  <SCORE.RESTR.norm>
0

>  <SCORE.SYSTEM>
0

>  <SCORE.SYSTEM.CONST>
0

>  <SCORE.SYSTEM.DIHEDRAL>
0

>  <SCORE.SYSTEM.SOLV>
0

>  <SCORE.SYSTEM.norm>
0

>  <SCORE.heavy>
10

>  <SCORE.norm>
-2.37747

>  <RMSD>
3.138

$$$$
ligand
 OpenBabel11021811503D
libRbt.so/2013.1/901 2013/11/27
 10 11  0  0  0  0  0  0  0  0999 V2000
   17.6479   -0.6789    2.7825 N   0  0  0  0  0  0  0  0  0  0  0  0
   16.5502   -0.8692    3.4904 C   0  0  0  0  0  0  0  0  0  0  0  0
   16.2180   -2.1643    3.9017 N   0  0  0  0  0  0  0  0  0  0  0  0
   17.0043   -3.1951    3.5621 C   0  0  0  0  0  0  0  0  0  0  0  0
   18.1067   -2.9978    2.8430 C   0  0  0  0  0  0  0  0  0  0  0  0
   18.4556   -1.7734    2.4552 C   0  0  0  0  0  0  0  0  0  0  0  0
   19.4893   -1.5895    1.8147 O   0  0  0  0  0  0  0  0  0  0  0  0
   18.6455   -4.1876    2.5911 N   0  0  0  0  0  0  0  0  0  0  0  0
   17.8833   -5.1185    3.1564 C   0  0  0  0  0  0  0  0  0  0  0  0
   16.8729   -4.5023    3.7632 N   0  0  0  0  0  0  0  0  0  0  0  0
  1  2  1  0  0  0  0
  1  6  1  0  0  0  0
  2  3  2  0  0  0  0
  3  4  1  0  0  0  0
  4  5  2  0  0  0  0
  4 10  1  0  0  0  0
  5  6  1  0  0  0  0
  5  8  1  0  0  0  0
  6  7  2  0  0  0  0
  8  9  1  0  0  0  0
  9 10  2  0  0  0  0
M  END
>  <CHROM.1>
17.72114945,-2.68451050,3.01266965,1.44985258,0.55122052,-0.11754988

>  <Name>
ligand

>  <RI>
0

>  <Rbt.Current_Directory>
/home/itssahil/PROJECTS/Mol_Feturizer/New_Systems/rnas/4NYD

>  <Rbt.Executable>
rbdock ($Id: //depot/dev/client3/rdock/2013.1/src/exe/rbdock.cxx#4 $)

>  <Rbt.Library>
libRbt.so (2013.1, Build901 2013/11/27)

>  <Rbt.Parameter_File>
/export/apps/rDock/src/rDock_2013.1_src/data/scripts/dock_solv.prm

>  <Rbt.Receptor>
prm/pocket_docking_3.prm

>  <SCORE>
-23.7868

>  <SCORE.INTER>
-23.7868

>  <SCORE.INTER.CONST>
1

>  <SCORE.INTER.POLAR>
0

>  <SCORE.INTER.ROT>
0

>  <SCORE.INTER.SOLV>
3.45951

>  <SCORE.INTER.VDW>
-20.611

>  <SCORE.INTER.norm>
-2.37868

>  <SCORE.INTRA>
0

>  <SCORE.INTRA.DIHEDRAL>
0

>  <SCORE.INTRA.DIHEDRAL.0>
0

>  <SCORE.INTRA.POLAR>
0

>  <SCORE.INTRA.POLAR.0>
0

>  <SCORE.INTRA.REPUL>
0

>  <SCORE.INTRA.REPUL.0>
0

>  <SCORE.INTRA.SOLV>
0

>  <SCORE.INTRA.SOLV.lig_0>
-4.1818

>  <SCORE.INTRA.VDW>
0

>  <SCORE.INTRA.VDW.0>
0

>  <SCORE.INTRA.norm>
0

>  <SCORE.RESTR>
0

>  <SCORE.RESTR.CAVITY>
0

>  <SCORE.RESTR.norm>
0

>  <SCORE.SYSTEM>
0

>  <SCORE.SYSTEM.CONST>
0

>  <SCORE.SYSTEM.DIHEDRAL>
0

>  <SCORE.SYSTEM.SOLV>
0

>  <SCORE.SYSTEM.norm>
0

>  <SCORE.heavy>
10

>  <SCORE.norm>
-2.37868

>  <RMSD>
3.139

$$$$
ligand
 OpenBabel11021811503D
libRbt.so/2013.1/901 2013/11/27
 10 11  0  0  0  0  0  0  0  0999 V2000
   17.6481   -0.6865    2.7915 N   0  0  0  0  0  0  0  0  0  0  0  0
   16.5458   -0.8755    3.4925 C   0  0  0  0  0  0  0  0  0  0  0  0
   16.2073   -2.1709    3.8981 N   0  0  0  0  0  0  0  0  0  0  0  0
   16.9923   -3.2031    3.5598 C   0  0  0  0  0  0  0  0  0  0  0  0
   18.0994   -3.0070    2.8476 C   0  0  0  0  0  0  0  0  0  0  0  0
   18.4543   -1.7825    2.4654 C   0  0  0  0  0  0  0  0  0  0  0  0
   19.4921   -1.5998    1.8313 O   0  0  0  0  0  0  0  0  0  0  0  0
   18.6360   -4.1977    2.5952 N   0  0  0  0  0  0  0  0  0  0  0  0
   17.8678   -5.1280    3.1532 C   0  0  0  0  0  0  0  0  0  0  0  0
   16.8558   -4.5104    3.7562 N   0  0  0  0  0  0  0  0  0  0  0  0
  1  2  1  0  0  0  0
  1  6  1  0  0  0  0
  2  3  2  0  0  0  0
  3  4  1  0  0  0  0
  4  5  2  0  0  0  0
  4 10  1  0  0  0  0
  5  6  1  0  0  0  0
  5  8  1  0  0  0  0
  6  7  2  0  0  0  0
  8  9  1  0  0  0  0
  9 10  2  0  0  0  0
M  END
>  <CHROM.1>
17.71387002,-2.69302064,3.01597664,1.44550231,0.54593181,-0.11226670

>  <Name>
ligand

>  <RI>
0

>  <Rbt.Current_Directory>
/home/itssahil/PROJECTS/Mol_Feturizer/New_Systems/rnas/4NYD

>  <Rbt.Executable>
rbdock ($Id: //depot/dev/client3/rdock/2013.1/src/exe/rbdock.cxx#4 $)

>  <Rbt.Library>
libRbt.so (2013.1, Build901 2013/11/27)

>  <Rbt.Parameter_File>
/export/apps/rDock/src/rDock_2013.1_src/data/scripts/dock_solv.prm

>  <Rbt.Receptor>
prm/pocket_docking_5.prm

>  <SCORE>
-23.7694

>  <SCORE.INTER>
-23.7694

>  <SCORE.INTER.CONST>
1

>  <SCORE.INTER.POLAR>
0

>  <SCORE.INTER.ROT>
0

>  <SCORE.INTER.SOLV>
3.46545

>  <SCORE.INTER.VDW>
-20.6014

>  <SCORE.INTER.norm>
-2.37694

>  <SCORE.INTRA>
0

>  <SCORE.INTRA.DIHEDRAL>
0

>  <SCORE.INTRA.DIHEDRAL.0>
0

>  <SCORE.INTRA.POLAR>
0

>  <SCORE.INTRA.POLAR.0>
0

>  <SCORE.INTRA.REPUL>
0

>  <SCORE.INTRA.REPUL.0>
0

>  <SCORE.INTRA.SOLV>
0

>  <SCORE.INTRA.SOLV.lig_0>
-4.1818

>  <SCORE.INTRA.VDW>
0

>  <SCORE.INTRA.VDW.0>
0

>  <SCORE.INTRA.norm>
0

>  <SCORE.RESTR>
0

>  <SCORE.RESTR.CAVITY>
0

>  <SCORE.RESTR.norm>
0

>  <SCORE.SYSTEM>
0

>  <SCORE.SYSTEM.CONST>
0

>  <SCORE.SYSTEM.DIHEDRAL>
0

>  <SCORE.SYSTEM.SOLV>
0

>  <SCORE.SYSTEM.norm>
0

>  <SCORE.heavy>
10

>  <SCORE.norm>
-2.37694

>  <RMSD>
3.141

$$$$
ligand
 OpenBabel11021811503D
libRbt.so/2013.1/901 2013/11/27
 10 11  0  0  0  0  0  0  0  0999 V2000
   17.7161   -0.6284    2.7468 N   0  0  0  0  0  0  0  0  0  0  0  0
   16.6033   -0.7622    3.4440 C   0  0  0  0  0  0  0  0  0  0  0  0
   16.2125   -2.0361    3.8699 N   0  0  0  0  0  0  0  0  0  0  0  0
   16.9588   -3.1037    3.5547 C   0  0  0  0  0  0  0  0  0  0  0  0
   18.0767   -2.9633    2.8462 C   0  0  0  0  0  0  0  0  0  0  0  0
   18.4810   -1.7604    2.4451 C   0  0  0  0  0  0  0  0  0  0  0  0
   19.5288   -1.6292    1.8145 O   0  0  0  0  0  0  0  0  0  0  0  0
   18.5681   -4.1781    2.6181 N   0  0  0  0  0  0  0  0  0  0  0  0
   17.7612   -5.0679    3.1874 C   0  0  0  0  0  0  0  0  0  0  0  0
   16.7705   -4.4011    3.7729 N   0  0  0  0  0  0  0  0  0  0  0  0
  1  2  1  0  0  0  0
  1  6  1  0  0  0  0
  2  3  2  0  0  0  0
  3  4  1  0  0  0  0
  4  5  2  0  0  0  0
  4 10  1  0  0  0  0
  5  6  1  0  0  0  0
  5  8  1  0  0  0  0
  6  7  2  0  0  0  0
  8  9  1  0  0  0  0
  9 10  2  0  0  0  0
M  END
>  <CHROM.1>
17.70270087,-2.63166956,3.00664843,1.39967090,0.54414352,-0.10608203

>  <Name>
ligand

>  <RI>
0

>  <Rbt.Current_Directory>
/home/itssahil/PROJECTS/Mol_Feturizer/New_Systems/rnas/4NYD

>  <Rbt.Executable>
rbdock ($Id: //depot/dev/client3/rdock/2013.1/src/exe/rbdock.cxx#4 $)

>  <Rbt.Library>
libRbt.so (2013.1, Build901 2013/11/27)

>  <Rbt.Parameter_File>
/export/apps/rDock/src/rDock_2013.1_src/data/scripts/dock_solv.prm

>  <Rbt.Receptor>
prm/pocket_docking_5.prm

>  <SCORE>
-23.755

>  <SCORE.INTER>
-23.755

>  <SCORE.INTER.CONST>
1

>  <SCORE.INTER.POLAR>
0

>  <SCORE.INTER.ROT>
0

>  <SCORE.INTER.SOLV>
3.47149

>  <SCORE.INTER.VDW>
-20.5938

>  <SCORE.INTER.norm>
-2.3755

>  <SCORE.INTRA>
0

>  <SCORE.INTRA.DIHEDRAL>
0

>  <SCORE.INTRA.DIHEDRAL.0>
0

>  <SCORE.INTRA.POLAR>
0

>  <SCORE.INTRA.POLAR.0>
0

>  <SCORE.INTRA.REPUL>
0

>  <SCORE.INTRA.REPUL.0>
0

>  <SCORE.INTRA.SOLV>
0

>  <SCORE.INTRA.SOLV.lig_0>
-4.1818

>  <SCORE.INTRA.VDW>
0

>  <SCORE.INTRA.VDW.0>
0

>  <SCORE.INTRA.norm>
0

>  <SCORE.RESTR>
0

>  <SCORE.RESTR.CAVITY>
0

>  <SCORE.RESTR.norm>
0

>  <SCORE.SYSTEM>
0

>  <SCORE.SYSTEM.CONST>
0

>  <SCORE.SYSTEM.DIHEDRAL>
0

>  <SCORE.SYSTEM.SOLV>
0

>  <SCORE.SYSTEM.norm>
0

>  <SCORE.heavy>
10

>  <SCORE.norm>
-2.3755

>  <RMSD>
3.141

$$$$
ligand
 OpenBabel11021811503D
libRbt.so/2013.1/901 2013/11/27
 10 11  0  0  0  0  0  0  0  0999 V2000
   17.6894   -0.6251    2.7399 N   0  0  0  0  0  0  0  0  0  0  0  0
   16.5666   -0.7722    3.4183 C   0  0  0  0  0  0  0  0  0  0  0  0
   16.1896   -2.0491    3.8475 N   0  0  0  0  0  0  0  0  0  0  0  0
   16.9592   -3.1065    3.5544 C   0  0  0  0  0  0  0  0  0  0  0  0
   18.0871   -2.9527    2.8648 C   0  0  0  0  0  0  0  0  0  0  0  0
   18.4784   -1.7464    2.4611 C   0  0  0  0  0  0  0  0  0  0  0  0
   19.5350   -1.6025    1.8483 O   0  0  0  0  0  0  0  0  0  0  0  0
   18.6028   -4.1608    2.6553 N   0  0  0  0  0  0  0  0  0  0  0  0
   17.8008   -5.0597    3.2174 C   0  0  0  0  0  0  0  0  0  0  0  0
   16.7888   -4.4051    3.7798 N   0  0  0  0  0  0  0  0  0  0  0  0
  1  2  1  0  0  0  0
  1  6  1  0  0  0  0
  2  3  2  0  0  0  0
  3  4  1  0  0  0  0
  4  5  2  0  0  0  0
  4 10  1  0  0  0  0
  5  6  1  0  0  0  0
  5  8  1  0  0  0  0
  6  7  2  0  0  0  0
  8  9  1  0  0  0  0
  9 10  2  0  0  0  0
M  END
>  <CHROM.1>
17.70482670,-2.62622406,3.01585537,1.41669603,0.52447140,-0.12274982

>  <Name>
ligand

>  <RI>
0

>  <Rbt.Current_Directory>
/home/itssahil/PROJECTS/Mol_Feturizer/New_Systems/rnas/4NYD

>  <Rbt.Executable>
rbdock ($Id: //depot/dev/client3/rdock/2013.1/src/exe/rbdock.cxx#4 $)

>  <Rbt.Library>
libRbt.so (2013.1, Build901 2013/11/27)

>  <Rbt.Parameter_File>
/export/apps/rDock/src/rDock_2013.1_src/data/scripts/dock_solv.prm

>  <Rbt.Receptor>
prm/pocket_docking_5.prm

>  <SCORE>
-23.7748

>  <SCORE.INTER>
-23.7748

>  <SCORE.INTER.CONST>
1

>  <SCORE.INTER.POLAR>
0

>  <SCORE.INTER.ROT>
0

>  <SCORE.INTER.SOLV>
3.45489

>  <SCORE.INTER.VDW>
-20.6015

>  <SCORE.INTER.norm>
-2.37748

>  <SCORE.INTRA>
0

>  <SCORE.INTRA.DIHEDRAL>
0

>  <SCORE.INTRA.DIHEDRAL.0>
0

>  <SCORE.INTRA.POLAR>
0

>  <SCORE.INTRA.POLAR.0>
0

>  <SCORE.INTRA.REPUL>
0

>  <SCORE.INTRA.REPUL.0>
0

>  <SCORE.INTRA.SOLV>
0

>  <SCORE.INTRA.SOLV.lig_0>
-4.1818

>  <SCORE.INTRA.VDW>
0

>  <SCORE.INTRA.VDW.0>
0

>  <SCORE.INTRA.norm>
0

>  <SCORE.RESTR>
0

>  <SCORE.RESTR.CAVITY>
0

>  <SCORE.RESTR.norm>
0

>  <SCORE.SYSTEM>
0

>  <SCORE.SYSTEM.CONST>
0

>  <SCORE.SYSTEM.DIHEDRAL>
0

>  <SCORE.SYSTEM.SOLV>
0

>  <SCORE.SYSTEM.norm>
0

>  <SCORE.heavy>
10

>  <SCORE.norm>
-2.37748

>  <RMSD>
3.143

$$$$
ligand
 OpenBabel11021811503D
libRbt.so/2013.1/901 2013/11/27
 10 11  0  0  0  0  0  0  0  0999 V2000
   17.6636   -0.6400    2.7058 N   0  0  0  0  0  0  0  0  0  0  0  0
   16.5613   -0.7917    3.4158 C   0  0  0  0  0  0  0  0  0  0  0  0
   16.2010   -2.0704    3.8540 N   0  0  0  0  0  0  0  0  0  0  0  0
   16.9654   -3.1247    3.5376 C   0  0  0  0  0  0  0  0  0  0  0  0
   18.0726   -2.9663    2.8162 C   0  0  0  0  0  0  0  0  0  0  0  0
   18.4481   -1.7582    2.4030 C   0  0  0  0  0  0  0  0  0  0  0  0
   19.4862   -1.6100    1.7603 O   0  0  0  0  0  0  0  0  0  0  0  0
   18.5862   -4.1724    2.5904 N   0  0  0  0  0  0  0  0  0  0  0  0
   17.8036   -5.0747    3.1741 C   0  0  0  0  0  0  0  0  0  0  0  0
   16.8059   -4.4242    3.7661 N   0  0  0  0  0  0  0  0  0  0  0  0
  1  2  1  0  0  0  0
  1  6  1  0  0  0  0
  2  3  2  0  0  0  0
  3  4  1  0  0  0  0
  4  5  2  0  0  0  0
  4 10  1  0  0  0  0
  5  6  1  0  0  0  0
  5  8  1  0  0  0  0
  6  7  2  0  0  0  0
  8  9  1  0  0  0  0
  9 10  2  0  0  0  0
M  END
>  <CHROM.1>
17.69370128,-2.64132957,2.97851612,1.42474246,0.55246565,-0.12561592

>  <Name>
ligand

>  <RI>
0

>  <Rbt.Current_Directory>
/home/itssahil/PROJECTS/Mol_Feturizer/New_Systems/rnas/4NYD

>  <Rbt.Executable>
rbdock ($Id: //depot/dev/client3/rdock/2013.1/src/exe/rbdock.cxx#4 $)

>  <Rbt.Library>
libRbt.so (2013.1, Build901 2013/11/27)

>  <Rbt.Parameter_File>
/export/apps/rDock/src/rDock_2013.1_src/data/scripts/dock_solv.prm

>  <Rbt.Receptor>
prm/pocket_docking_6.prm

>  <SCORE>
-23.7603

>  <SCORE.INTER>
-23.7603

>  <SCORE.INTER.CONST>
1

>  <SCORE.INTER.POLAR>
0

>  <SCORE.INTER.ROT>
0

>  <SCORE.INTER.SOLV>
3.43308

>  <SCORE.INTER.VDW>
-20.5846

>  <SCORE.INTER.norm>
-2.37603

>  <SCORE.INTRA>
0

>  <SCORE.INTRA.DIHEDRAL>
0

>  <SCORE.INTRA.DIHEDRAL.0>
0

>  <SCORE.INTRA.POLAR>
0

>  <SCORE.INTRA.POLAR.0>
0

>  <SCORE.INTRA.REPUL>
0

>  <SCORE.INTRA.REPUL.0>
0

>  <SCORE.INTRA.SOLV>
0

>  <SCORE.INTRA.SOLV.lig_0>
-4.1818

>  <SCORE.INTRA.VDW>
0

>  <SCORE.INTRA.VDW.0>
0

>  <SCORE.INTRA.norm>
0

>  <SCORE.RESTR>
0

>  <SCORE.RESTR.CAVITY>
0

>  <SCORE.RESTR.norm>
0

>  <SCORE.SYSTEM>
0

>  <SCORE.SYSTEM.CONST>
0

>  <SCORE.SYSTEM.DIHEDRAL>
0

>  <SCORE.SYSTEM.SOLV>
0

>  <SCORE.SYSTEM.norm>
0

>  <SCORE.heavy>
10

>  <SCORE.norm>
-2.37603

>  <RMSD>
3.143

$$$$
ligand
 OpenBabel11021811503D
libRbt.so/2013.1/901 2013/11/27
 10 11  0  0  0  0  0  0  0  0999 V2000
   17.6145   -0.7054    2.8045 N   0  0  0  0  0  0  0  0  0  0  0  0
   16.5252   -0.9179    3.5191 C   0  0  0  0  0  0  0  0  0  0  0  0
   16.2117   -2.2222    3.9159 N   0  0  0  0  0  0  0  0  0  0  0  0
   17.0070   -3.2391    3.5559 C   0  0  0  0  0  0  0  0  0  0  0  0
   18.1007   -3.0193    2.8301 C   0  0  0  0  0  0  0  0  0  0  0  0
   18.4320   -1.7858    2.4557 C   0  0  0  0  0  0  0  0  0  0  0  0
   19.4579   -1.5813    1.8089 O   0  0  0  0  0  0  0  0  0  0  0  0
   18.6512   -4.1992    2.5578 N   0  0  0  0  0  0  0  0  0  0  0  0
   17.9048   -5.1465    3.1169 C   0  0  0  0  0  0  0  0  0  0  0  0
   16.8926   -4.5502    3.7405 N   0  0  0  0  0  0  0  0  0  0  0  0
  1  2  1  0  0  0  0
  1  6  1  0  0  0  0
  2  3  2  0  0  0  0
  3  4  1  0  0  0  0
  4  5  2  0  0  0  0
  4 10  1  0  0  0  0
  5  6  1  0  0  0  0
  5  8  1  0  0  0  0
  6  7  2  0  0  0  0
  8  9  1  0  0  0  0
  9 10  2  0  0  0  0
M  END
>  <CHROM.1>
17.71305945,-2.71281427,3.00717662,1.46468946,0.55841431,-0.11205384

>  <Name>
ligand

>  <RI>
0

>  <Rbt.Current_Directory>
/home/itssahil/PROJECTS/Mol_Feturizer/New_Systems/rnas/4NYD

>  <Rbt.Executable>
rbdock ($Id: //depot/dev/client3/rdock/2013.1/src/exe/rbdock.cxx#4 $)

>  <Rbt.Library>
libRbt.so (2013.1, Build901 2013/11/27)

>  <Rbt.Parameter_File>
/export/apps/rDock/src/rDock_2013.1_src/data/scripts/dock_solv.prm

>  <Rbt.Receptor>
prm/pocket_docking_8.prm

>  <SCORE>
-23.772

>  <SCORE.INTER>
-23.772

>  <SCORE.INTER.CONST>
1

>  <SCORE.INTER.POLAR>
0

>  <SCORE.INTER.ROT>
0

>  <SCORE.INTER.SOLV>
3.46265

>  <SCORE.INTER.VDW>
-20.6022

>  <SCORE.INTER.norm>
-2.3772

>  <SCORE.INTRA>
0

>  <SCORE.INTRA.DIHEDRAL>
0

>  <SCORE.INTRA.DIHEDRAL.0>
0

>  <SCORE.INTRA.POLAR>
0

>  <SCORE.INTRA.POLAR.0>
0

>  <SCORE.INTRA.REPUL>
0

>  <SCORE.INTRA.REPUL.0>
0

>  <SCORE.INTRA.SOLV>
0

>  <SCORE.INTRA.SOLV.lig_0>
-4.1818

>  <SCORE.INTRA.VDW>
0

>  <SCORE.INTRA.VDW.0>
0

>  <SCORE.INTRA.norm>
0

>  <SCORE.RESTR>
0

>  <SCORE.RESTR.CAVITY>
0

>  <SCORE.RESTR.norm>
0

>  <SCORE.SYSTEM>
0

>  <SCORE.SYSTEM.CONST>
0

>  <SCORE.SYSTEM.DIHEDRAL>
0

>  <SCORE.SYSTEM.SOLV>
0

>  <SCORE.SYSTEM.norm>
0

>  <SCORE.heavy>
10

>  <SCORE.norm>
-2.3772

>  <RMSD>
3.143

$$$$
ligand
 OpenBabel11021811503D
libRbt.so/2013.1/901 2013/11/27
 10 11  0  0  0  0  0  0  0  0999 V2000
   17.6439   -0.7124    2.8102 N   0  0  0  0  0  0  0  0  0  0  0  0
   16.5319   -0.9001    3.4961 C   0  0  0  0  0  0  0  0  0  0  0  0
   16.1834   -2.1958    3.8919 N   0  0  0  0  0  0  0  0  0  0  0  0
   16.9690   -3.2295    3.5597 C   0  0  0  0  0  0  0  0  0  0  0  0
   18.0859   -3.0347    2.8627 C   0  0  0  0  0  0  0  0  0  0  0  0
   18.4502   -1.8100    2.4902 C   0  0  0  0  0  0  0  0  0  0  0  0
   19.4969   -1.6287    1.8704 O   0  0  0  0  0  0  0  0  0  0  0  0
   18.6214   -4.2263    2.6124 N   0  0  0  0  0  0  0  0  0  0  0  0
   17.8426   -5.1560    3.1567 C   0  0  0  0  0  0  0  0  0  0  0  0
   16.8251   -4.5371    3.7489 N   0  0  0  0  0  0  0  0  0  0  0  0
  1  2  1  0  0  0  0
  1  6  1  0  0  0  0
  2  3  2  0  0  0  0
  3  4  1  0  0  0  0
  4  5  2  0  0  0  0
  4 10  1  0  0  0  0
  5  6  1  0  0  0  0
  5  8  1  0  0  0  0
  6  7  2  0  0  0  0
  8  9  1  0  0  0  0
  9 10  2  0  0  0  0
M  END
>  <CHROM.1>
17.69940340,-2.71999191,3.02733480,1.43958220,0.53340087,-0.10518931

>  <Name>
ligand

>  <RI>
0

>  <Rbt.Current_Directory>
/home/itssahil/PROJECTS/Mol_Feturizer/New_Systems/rnas/4NYD

>  <Rbt.Executable>
rbdock ($Id: //depot/dev/client3/rdock/2013.1/src/exe/rbdock.cxx#4 $)

>  <Rbt.Library>
libRbt.so (2013.1, Build901 2013/11/27)

>  <Rbt.Parameter_File>
/export/apps/rDock/src/rDock_2013.1_src/data/scripts/dock_solv.prm

>  <Rbt.Receptor>
prm/pocket_docking_5.prm

>  <SCORE>
-23.7671

>  <SCORE.INTER>
-23.7671

>  <SCORE.INTER.CONST>
1

>  <SCORE.INTER.POLAR>
0

>  <SCORE.INTER.ROT>
0

>  <SCORE.INTER.SOLV>
3.4792

>  <SCORE.INTER.VDW>
-20.6045

>  <SCORE.INTER.norm>
-2.37671

>  <SCORE.INTRA>
0

>  <SCORE.INTRA.DIHEDRAL>
0

>  <SCORE.INTRA.DIHEDRAL.0>
0

>  <SCORE.INTRA.POLAR>
0

>  <SCORE.INTRA.POLAR.0>
0

>  <SCORE.INTRA.REPUL>
0

>  <SCORE.INTRA.REPUL.0>
0

>  <SCORE.INTRA.SOLV>
0

>  <SCORE.INTRA.SOLV.lig_0>
-4.1818

>  <SCORE.INTRA.VDW>
0

>  <SCORE.INTRA.VDW.0>
0

>  <SCORE.INTRA.norm>
0

>  <SCORE.RESTR>
0

>  <SCORE.RESTR.CAVITY>
0

>  <SCORE.RESTR.norm>
0

>  <SCORE.SYSTEM>
0

>  <SCORE.SYSTEM.CONST>
0

>  <SCORE.SYSTEM.DIHEDRAL>
0

>  <SCORE.SYSTEM.SOLV>
0

>  <SCORE.SYSTEM.norm>
0

>  <SCORE.heavy>
10

>  <SCORE.norm>
-2.37671

>  <RMSD>
3.144

$$$$
ligand
 OpenBabel11021811503D
libRbt.so/2013.1/901 2013/11/27
 10 11  0  0  0  0  0  0  0  0999 V2000
   17.6537   -0.6794    2.7274 N   0  0  0  0  0  0  0  0  0  0  0  0
   16.5271   -0.8378    3.3968 C   0  0  0  0  0  0  0  0  0  0  0  0
   16.1530   -2.1203    3.8115 N   0  0  0  0  0  0  0  0  0  0  0  0
   16.9293   -3.1714    3.5137 C   0  0  0  0  0  0  0  0  0  0  0  0
   18.0611   -3.0062    2.8333 C   0  0  0  0  0  0  0  0  0  0  0  0
   18.4496   -1.7944    2.4435 C   0  0  0  0  0  0  0  0  0  0  0  0
   19.5096   -1.6401    1.8392 O   0  0  0  0  0  0  0  0  0  0  0  0
   18.5837   -4.2100    2.6160 N   0  0  0  0  0  0  0  0  0  0  0  0
   17.7820   -5.1176    3.1642 C   0  0  0  0  0  0  0  0  0  0  0  0
   16.7633   -4.4729    3.7258 N   0  0  0  0  0  0  0  0  0  0  0  0
  1  2  1  0  0  0  0
  1  6  1  0  0  0  0
  2  3  2  0  0  0  0
  3  4  1  0  0  0  0
  4  5  2  0  0  0  0
  4 10  1  0  0  0  0
  5  6  1  0  0  0  0
  5  8  1  0  0  0  0
  6  7  2  0  0  0  0
  8  9  1  0  0  0  0
  9 10  2  0  0  0  0
M  END
>  <CHROM.1>
17.67634192,-2.68284371,2.98474681,1.42091240,0.51725028,-0.11548448

>  <Name>
ligand

>  <RI>
0

>  <Rbt.Current_Directory>
/home/itssahil/PROJECTS/Mol_Feturizer/New_Systems/rnas/4NYD

>  <Rbt.Executable>
rbdock ($Id: //depot/dev/client3/rdock/2013.1/src/exe/rbdock.cxx#4 $)

>  <Rbt.Library>
libRbt.so (2013.1, Build901 2013/11/27)

>  <Rbt.Parameter_File>
/export/apps/rDock/src/rDock_2013.1_src/data/scripts/dock_solv.prm

>  <Rbt.Receptor>
prm/pocket_docking_6.prm

>  <SCORE>
-23.7986

>  <SCORE.INTER>
-23.7986

>  <SCORE.INTER.CONST>
1

>  <SCORE.INTER.POLAR>
0

>  <SCORE.INTER.ROT>
0

>  <SCORE.INTER.SOLV>
3.42387

>  <SCORE.INTER.VDW>
-20.607

>  <SCORE.INTER.norm>
-2.37986

>  <SCORE.INTRA>
0

>  <SCORE.INTRA.DIHEDRAL>
0

>  <SCORE.INTRA.DIHEDRAL.0>
0

>  <SCORE.INTRA.POLAR>
0

>  <SCORE.INTRA.POLAR.0>
0

>  <SCORE.INTRA.REPUL>
0

>  <SCORE.INTRA.REPUL.0>
0

>  <SCORE.INTRA.SOLV>
0

>  <SCORE.INTRA.SOLV.lig_0>
-4.1818

>  <SCORE.INTRA.VDW>
0

>  <SCORE.INTRA.VDW.0>
0

>  <SCORE.INTRA.norm>
0

>  <SCORE.RESTR>
0

>  <SCORE.RESTR.CAVITY>
0

>  <SCORE.RESTR.norm>
0

>  <SCORE.SYSTEM>
0

>  <SCORE.SYSTEM.CONST>
0

>  <SCORE.SYSTEM.DIHEDRAL>
0

>  <SCORE.SYSTEM.SOLV>
0

>  <SCORE.SYSTEM.norm>
0

>  <SCORE.heavy>
10

>  <SCORE.norm>
-2.37986

>  <RMSD>
3.144

$$$$
ligand
 OpenBabel11021811503D
libRbt.so/2013.1/901 2013/11/27
 10 11  0  0  0  0  0  0  0  0999 V2000
   17.6124   -0.7092    2.7927 N   0  0  0  0  0  0  0  0  0  0  0  0
   16.5136   -0.9135    3.4949 C   0  0  0  0  0  0  0  0  0  0  0  0
   16.1940   -2.2133    3.9013 N   0  0  0  0  0  0  0  0  0  0  0  0
   16.9932   -3.2344    3.5628 C   0  0  0  0  0  0  0  0  0  0  0  0
   18.0967   -3.0229    2.8493 C   0  0  0  0  0  0  0  0  0  0  0  0
   18.4338   -1.7937    2.4663 C   0  0  0  0  0  0  0  0  0  0  0  0
   19.4683   -1.5966    1.8311 O   0  0  0  0  0  0  0  0  0  0  0  0
   18.6499   -4.2060    2.5969 N   0  0  0  0  0  0  0  0  0  0  0  0
   17.8956   -5.1469    3.1561 C   0  0  0  0  0  0  0  0  0  0  0  0
   16.8755   -4.5435    3.7598 N   0  0  0  0  0  0  0  0  0  0  0  0
  1  2  1  0  0  0  0
  1  6  1  0  0  0  0
  2  3  2  0  0  0  0
  3  4  1  0  0  0  0
  4  5  2  0  0  0  0
  4 10  1  0  0  0  0
  5  6  1  0  0  0  0
  5  8  1  0  0  0  0
  6  7  2  0  0  0  0
  8  9  1  0  0  0  0
  9 10  2  0  0  0  0
M  END
>  <CHROM.1>
17.70693284,-2.71440493,3.01796892,1.46216609,0.54526044,-0.12134266

>  <Name>
ligand

>  <RI>
0

>  <Rbt.Current_Directory>
/home/itssahil/PROJECTS/Mol_Feturizer/New_Systems/rnas/4NYD

>  <Rbt.Executable>
rbdock ($Id: //depot/dev/client3/rdock/2013.1/src/exe/rbdock.cxx#4 $)

>  <Rbt.Library>
libRbt.so (2013.1, Build901 2013/11/27)

>  <Rbt.Parameter_File>
/export/apps/rDock/src/rDock_2013.1_src/data/scripts/dock_solv.prm

>  <Rbt.Receptor>
prm/pocket_docking_6.prm

>  <SCORE>
-23.8024

>  <SCORE.INTER>
-23.8024

>  <SCORE.INTER.CONST>
1

>  <SCORE.INTER.POLAR>
0

>  <SCORE.INTER.ROT>
0

>  <SCORE.INTER.SOLV>
3.45909

>  <SCORE.INTER.VDW>
-20.6213

>  <SCORE.INTER.norm>
-2.38024

>  <SCORE.INTRA>
0

>  <SCORE.INTRA.DIHEDRAL>
0

>  <SCORE.INTRA.DIHEDRAL.0>
0

>  <SCORE.INTRA.POLAR>
0

>  <SCORE.INTRA.POLAR.0>
0

>  <SCORE.INTRA.REPUL>
0

>  <SCORE.INTRA.REPUL.0>
0

>  <SCORE.INTRA.SOLV>
0

>  <SCORE.INTRA.SOLV.lig_0>
-4.1818

>  <SCORE.INTRA.VDW>
0

>  <SCORE.INTRA.VDW.0>
0

>  <SCORE.INTRA.norm>
0

>  <SCORE.RESTR>
0

>  <SCORE.RESTR.CAVITY>
0

>  <SCORE.RESTR.norm>
0

>  <SCORE.SYSTEM>
0

>  <SCORE.SYSTEM.CONST>
0

>  <SCORE.SYSTEM.DIHEDRAL>
0

>  <SCORE.SYSTEM.SOLV>
0

>  <SCORE.SYSTEM.norm>
0

>  <SCORE.heavy>
10

>  <SCORE.norm>
-2.38024

>  <RMSD>
3.144

$$$$
ligand
 OpenBabel11021811503D
libRbt.so/2013.1/901 2013/11/27
 10 11  0  0  0  0  0  0  0  0999 V2000
   17.6777   -0.6676    2.7513 N   0  0  0  0  0  0  0  0  0  0  0  0
   16.5708   -0.8150    3.4552 C   0  0  0  0  0  0  0  0  0  0  0  0
   16.1996   -2.0932    3.8856 N   0  0  0  0  0  0  0  0  0  0  0  0
   16.9583   -3.1513    3.5679 C   0  0  0  0  0  0  0  0  0  0  0  0
   18.0701   -2.9972    2.8527 C   0  0  0  0  0  0  0  0  0  0  0  0
   18.4559   -1.7897    2.4471 C   0  0  0  0  0  0  0  0  0  0  0  0
   19.4981   -1.6457    1.8102 O   0  0  0  0  0  0  0  0  0  0  0  0
   18.5764   -4.2057    2.6237 N   0  0  0  0  0  0  0  0  0  0  0  0
   17.7848   -5.1053    3.1992 C   0  0  0  0  0  0  0  0  0  0  0  0
   16.7887   -4.4507    3.7895 N   0  0  0  0  0  0  0  0  0  0  0  0
  1  2  1  0  0  0  0
  1  6  1  0  0  0  0
  2  3  2  0  0  0  0
  3  4  1  0  0  0  0
  4  5  2  0  0  0  0
  4 10  1  0  0  0  0
  5  6  1  0  0  0  0
  5  8  1  0  0  0  0
  6  7  2  0  0  0  0
  8  9  1  0  0  0  0
  9 10  2  0  0  0  0
M  END
>  <CHROM.1>
17.69261580,-2.67033690,3.01469374,1.41601614,0.54844989,-0.11632908

>  <Name>
ligand

>  <RI>
0

>  <Rbt.Current_Directory>
/home/itssahil/PROJECTS/Mol_Feturizer/New_Systems/rnas/4NYD

>  <Rbt.Executable>
rbdock ($Id: //depot/dev/client3/rdock/2013.1/src/exe/rbdock.cxx#4 $)

>  <Rbt.Library>
libRbt.so (2013.1, Build901 2013/11/27)

>  <Rbt.Parameter_File>
/export/apps/rDock/src/rDock_2013.1_src/data/scripts/dock_solv.prm

>  <Rbt.Receptor>
prm/blind_docking_100.prm

>  <SCORE>
-23.78

>  <SCORE.INTER>
-23.78

>  <SCORE.INTER.CONST>
1

>  <SCORE.INTER.POLAR>
0

>  <SCORE.INTER.ROT>
0

>  <SCORE.INTER.SOLV>
3.47064

>  <SCORE.INTER.VDW>
-20.6102

>  <SCORE.INTER.norm>
-2.378

>  <SCORE.INTRA>
0

>  <SCORE.INTRA.DIHEDRAL>
0

>  <SCORE.INTRA.DIHEDRAL.0>
0

>  <SCORE.INTRA.POLAR>
0

>  <SCORE.INTRA.POLAR.0>
0

>  <SCORE.INTRA.REPUL>
0

>  <SCORE.INTRA.REPUL.0>
0

>  <SCORE.INTRA.SOLV>
0

>  <SCORE.INTRA.SOLV.lig_0>
-4.1818

>  <SCORE.INTRA.VDW>
0

>  <SCORE.INTRA.VDW.0>
0

>  <SCORE.INTRA.norm>
0

>  <SCORE.RESTR>
0

>  <SCORE.RESTR.CAVITY>
0

>  <SCORE.RESTR.norm>
0

>  <SCORE.SYSTEM>
0

>  <SCORE.SYSTEM.CONST>
0

>  <SCORE.SYSTEM.DIHEDRAL>
0

>  <SCORE.SYSTEM.SOLV>
0

>  <SCORE.SYSTEM.norm>
0

>  <SCORE.heavy>
10

>  <SCORE.norm>
-2.378

>  <RMSD>
3.145

$$$$
ligand
 OpenBabel11021811503D
libRbt.so/2013.1/901 2013/11/27
 10 11  0  0  0  0  0  0  0  0999 V2000
   17.6054   -0.7114    2.7848 N   0  0  0  0  0  0  0  0  0  0  0  0
   16.5130   -0.9153    3.4972 C   0  0  0  0  0  0  0  0  0  0  0  0
   16.1986   -2.2145    3.9097 N   0  0  0  0  0  0  0  0  0  0  0  0
   16.9961   -3.2355    3.5668 C   0  0  0  0  0  0  0  0  0  0  0  0
   18.0931   -3.0244    2.8433 C   0  0  0  0  0  0  0  0  0  0  0  0
   18.4252   -1.7958    2.4541 C   0  0  0  0  0  0  0  0  0  0  0  0
   19.4539   -1.5990    1.8094 O   0  0  0  0  0  0  0  0  0  0  0  0
   18.6456   -4.2074    2.5891 N   0  0  0  0  0  0  0  0  0  0  0  0
   17.8973   -5.1478    3.1573 C   0  0  0  0  0  0  0  0  0  0  0  0
   16.8818   -4.5441    3.7683 N   0  0  0  0  0  0  0  0  0  0  0  0
  1  2  1  0  0  0  0
  1  6  1  0  0  0  0
  2  3  2  0  0  0  0
  3  4  1  0  0  0  0
  4  5  2  0  0  0  0
  4 10  1  0  0  0  0
  5  6  1  0  0  0  0
  5  8  1  0  0  0  0
  6  7  2  0  0  0  0
  8  9  1  0  0  0  0
  9 10  2  0  0  0  0
M  END
>  <CHROM.1>
17.70440783,-2.71594913,3.01450052,1.46488819,0.55376188,-0.12537419

>  <Name>
ligand

>  <RI>
0

>  <Rbt.Current_Directory>
/home/itssahil/PROJECTS/Mol_Feturizer/New_Systems/rnas/4NYD

>  <Rbt.Executable>
rbdock ($Id: //depot/dev/client3/rdock/2013.1/src/exe/rbdock.cxx#4 $)

>  <Rbt.Library>
libRbt.so (2013.1, Build901 2013/11/27)

>  <Rbt.Parameter_File>
/export/apps/rDock/src/rDock_2013.1_src/data/scripts/dock_solv.prm

>  <Rbt.Receptor>
prm/blind_docking_100.prm

>  <SCORE>
-23.809

>  <SCORE.INTER>
-23.809

>  <SCORE.INTER.CONST>
1

>  <SCORE.INTER.POLAR>
0

>  <SCORE.INTER.ROT>
0

>  <SCORE.INTER.SOLV>
3.45503

>  <SCORE.INTER.VDW>
-20.6244

>  <SCORE.INTER.norm>
-2.3809

>  <SCORE.INTRA>
0

>  <SCORE.INTRA.DIHEDRAL>
0

>  <SCORE.INTRA.DIHEDRAL.0>
0

>  <SCORE.INTRA.POLAR>
0

>  <SCORE.INTRA.POLAR.0>
0

>  <SCORE.INTRA.REPUL>
0

>  <SCORE.INTRA.REPUL.0>
0

>  <SCORE.INTRA.SOLV>
0

>  <SCORE.INTRA.SOLV.lig_0>
-4.1818

>  <SCORE.INTRA.VDW>
0

>  <SCORE.INTRA.VDW.0>
0

>  <SCORE.INTRA.norm>
0

>  <SCORE.RESTR>
0

>  <SCORE.RESTR.CAVITY>
0

>  <SCORE.RESTR.norm>
0

>  <SCORE.SYSTEM>
0

>  <SCORE.SYSTEM.CONST>
0

>  <SCORE.SYSTEM.DIHEDRAL>
0

>  <SCORE.SYSTEM.SOLV>
0

>  <SCORE.SYSTEM.norm>
0

>  <SCORE.heavy>
10

>  <SCORE.norm>
-2.3809

>  <RMSD>
3.145

$$$$
ligand
 OpenBabel11021811503D
libRbt.so/2013.1/901 2013/11/27
 10 11  0  0  0  0  0  0  0  0999 V2000
   17.6625   -0.6387    2.7148 N   0  0  0  0  0  0  0  0  0  0  0  0
   16.5401   -0.7888    3.3930 C   0  0  0  0  0  0  0  0  0  0  0  0
   16.1702   -2.0658    3.8282 N   0  0  0  0  0  0  0  0  0  0  0  0
   16.9460   -3.1201    3.5409 C   0  0  0  0  0  0  0  0  0  0  0  0
   18.0736   -2.9633    2.8514 C   0  0  0  0  0  0  0  0  0  0  0  0
   18.4582   -1.7567    2.4420 C   0  0  0  0  0  0  0  0  0  0  0  0
   19.5144   -1.6098    1.8292 O   0  0  0  0  0  0  0  0  0  0  0  0
   18.5964   -4.1694    2.6482 N   0  0  0  0  0  0  0  0  0  0  0  0
   17.7991   -5.0701    3.2141 C   0  0  0  0  0  0  0  0  0  0  0  0
   16.7829   -4.4186    3.7725 N   0  0  0  0  0  0  0  0  0  0  0  0
  1  2  1  0  0  0  0
  1  6  1  0  0  0  0
  2  3  2  0  0  0  0
  3  4  1  0  0  0  0
  4  5  2  0  0  0  0
  4 10  1  0  0  0  0
  5  6  1  0  0  0  0
  5  8  1  0  0  0  0
  6  7  2  0  0  0  0
  8  9  1  0  0  0  0
  9 10  2  0  0  0  0
M  END
>  <CHROM.1>
17.68927463,-2.63824214,3.00051837,1.42318019,0.52300299,-0.13090305

>  <Name>
ligand

>  <RI>
0

>  <Rbt.Current_Directory>
/home/itssahil/PROJECTS/Mol_Feturizer/New_Systems/rnas/4NYD

>  <Rbt.Executable>
rbdock ($Id: //depot/dev/client3/rdock/2013.1/src/exe/rbdock.cxx#4 $)

>  <Rbt.Library>
libRbt.so (2013.1, Build901 2013/11/27)

>  <Rbt.Parameter_File>
/export/apps/rDock/src/rDock_2013.1_src/data/scripts/dock_solv.prm

>  <Rbt.Receptor>
prm/pocket_docking_4.prm

>  <SCORE>
-23.7852

>  <SCORE.INTER>
-23.7852

>  <SCORE.INTER.CONST>
1

>  <SCORE.INTER.POLAR>
0

>  <SCORE.INTER.ROT>
0

>  <SCORE.INTER.SOLV>
3.43077

>  <SCORE.INTER.VDW>
-20.6004

>  <SCORE.INTER.norm>
-2.37852

>  <SCORE.INTRA>
0

>  <SCORE.INTRA.DIHEDRAL>
0

>  <SCORE.INTRA.DIHEDRAL.0>
0

>  <SCORE.INTRA.POLAR>
0

>  <SCORE.INTRA.POLAR.0>
0

>  <SCORE.INTRA.REPUL>
0

>  <SCORE.INTRA.REPUL.0>
0

>  <SCORE.INTRA.SOLV>
0

>  <SCORE.INTRA.SOLV.lig_0>
-4.1818

>  <SCORE.INTRA.VDW>
0

>  <SCORE.INTRA.VDW.0>
0

>  <SCORE.INTRA.norm>
0

>  <SCORE.RESTR>
0

>  <SCORE.RESTR.CAVITY>
0

>  <SCORE.RESTR.norm>
0

>  <SCORE.SYSTEM>
0

>  <SCORE.SYSTEM.CONST>
0

>  <SCORE.SYSTEM.DIHEDRAL>
0

>  <SCORE.SYSTEM.SOLV>
0

>  <SCORE.SYSTEM.norm>
0

>  <SCORE.heavy>
10

>  <SCORE.norm>
-2.37852

>  <RMSD>
3.145

$$$$
ligand
 OpenBabel11021811503D
libRbt.so/2013.1/901 2013/11/27
 10 11  0  0  0  0  0  0  0  0999 V2000
   17.7217   -0.6303    2.7737 N   0  0  0  0  0  0  0  0  0  0  0  0
   16.6053   -0.7615    3.4656 C   0  0  0  0  0  0  0  0  0  0  0  0
   16.2063   -2.0352    3.8843 N   0  0  0  0  0  0  0  0  0  0  0  0
   16.9485   -3.1052    3.5677 C   0  0  0  0  0  0  0  0  0  0  0  0
   18.0701   -2.9674    2.8645 C   0  0  0  0  0  0  0  0  0  0  0  0
   18.4822   -1.7648    2.4703 C   0  0  0  0  0  0  0  0  0  0  0  0
   19.5332   -1.6362    1.8447 O   0  0  0  0  0  0  0  0  0  0  0  0
   18.5564   -4.1836    2.6331 N   0  0  0  0  0  0  0  0  0  0  0  0
   17.7426   -5.0719    3.1952 C   0  0  0  0  0  0  0  0  0  0  0  0
   16.7529   -4.4026    3.7795 N   0  0  0  0  0  0  0  0  0  0  0  0
  1  2  1  0  0  0  0
  1  6  1  0  0  0  0
  2  3  2  0  0  0  0
  3  4  1  0  0  0  0
  4  5  2  0  0  0  0
  4 10  1  0  0  0  0
  5  6  1  0  0  0  0
  5  8  1  0  0  0  0
  6  7  2  0  0  0  0
  8  9  1  0  0  0  0
  9 10  2  0  0  0  0
M  END
>  <CHROM.1>
17.69712277,-2.63457911,3.02478775,1.39332420,0.54046460,-0.09847409

>  <Name>
ligand

>  <RI>
0

>  <Rbt.Current_Directory>
/home/itssahil/PROJECTS/Mol_Feturizer/New_Systems/rnas/4NYD

>  <Rbt.Executable>
rbdock ($Id: //depot/dev/client3/rdock/2013.1/src/exe/rbdock.cxx#4 $)

>  <Rbt.Library>
libRbt.so (2013.1, Build901 2013/11/27)

>  <Rbt.Parameter_File>
/export/apps/rDock/src/rDock_2013.1_src/data/scripts/dock_solv.prm

>  <Rbt.Receptor>
prm/pocket_docking_5.prm

>  <SCORE>
-23.7803

>  <SCORE.INTER>
-23.7803

>  <SCORE.INTER.CONST>
1

>  <SCORE.INTER.POLAR>
0

>  <SCORE.INTER.ROT>
0

>  <SCORE.INTER.SOLV>
3.4918

>  <SCORE.INTER.VDW>
-20.6175

>  <SCORE.INTER.norm>
-2.37803

>  <SCORE.INTRA>
0

>  <SCORE.INTRA.DIHEDRAL>
0

>  <SCORE.INTRA.DIHEDRAL.0>
0

>  <SCORE.INTRA.POLAR>
0

>  <SCORE.INTRA.POLAR.0>
0

>  <SCORE.INTRA.REPUL>
0

>  <SCORE.INTRA.REPUL.0>
0

>  <SCORE.INTRA.SOLV>
0

>  <SCORE.INTRA.SOLV.lig_0>
-4.1818

>  <SCORE.INTRA.VDW>
0

>  <SCORE.INTRA.VDW.0>
0

>  <SCORE.INTRA.norm>
0

>  <SCORE.RESTR>
0

>  <SCORE.RESTR.CAVITY>
0

>  <SCORE.RESTR.norm>
0

>  <SCORE.SYSTEM>
0

>  <SCORE.SYSTEM.CONST>
0

>  <SCORE.SYSTEM.DIHEDRAL>
0

>  <SCORE.SYSTEM.SOLV>
0

>  <SCORE.SYSTEM.norm>
0

>  <SCORE.heavy>
10

>  <SCORE.norm>
-2.37803

>  <RMSD>
3.145

$$$$
ligand
 OpenBabel11021811503D
libRbt.so/2013.1/901 2013/11/27
 10 11  0  0  0  0  0  0  0  0999 V2000
   17.6075   -0.7091    2.7938 N   0  0  0  0  0  0  0  0  0  0  0  0
   16.5105   -0.9144    3.4986 C   0  0  0  0  0  0  0  0  0  0  0  0
   16.1949   -2.2140    3.9089 N   0  0  0  0  0  0  0  0  0  0  0  0
   16.9961   -3.2340    3.5714 C   0  0  0  0  0  0  0  0  0  0  0  0
   18.0977   -3.0215    2.8554 C   0  0  0  0  0  0  0  0  0  0  0  0
   18.4310   -1.7924    2.4686 C   0  0  0  0  0  0  0  0  0  0  0  0
   19.4638   -1.5942    1.8309 O   0  0  0  0  0  0  0  0  0  0  0  0
   18.6535   -4.2037    2.6049 N   0  0  0  0  0  0  0  0  0  0  0  0
   17.9026   -5.1451    3.1679 C   0  0  0  0  0  0  0  0  0  0  0  0
   16.8821   -4.5428    3.7719 N   0  0  0  0  0  0  0  0  0  0  0  0
  1  2  1  0  0  0  0
  1  6  1  0  0  0  0
  2  3  2  0  0  0  0
  3  4  1  0  0  0  0
  4  5  2  0  0  0  0
  4 10  1  0  0  0  0
  5  6  1  0  0  0  0
  5  8  1  0  0  0  0
  6  7  2  0  0  0  0
  8  9  1  0  0  0  0
  9 10  2  0  0  0  0
M  END
>  <CHROM.1>
17.70750707,-2.71350372,3.02394908,1.46537539,0.54680662,-0.12554570

>  <Name>
ligand

>  <RI>
0

>  <Rbt.Current_Directory>
/home/itssahil/PROJECTS/Mol_Feturizer/New_Systems/rnas/4NYD

>  <Rbt.Executable>
rbdock ($Id: //depot/dev/client3/rdock/2013.1/src/exe/rbdock.cxx#4 $)

>  <Rbt.Library>
libRbt.so (2013.1, Build901 2013/11/27)

>  <Rbt.Parameter_File>
/export/apps/rDock/src/rDock_2013.1_src/data/scripts/dock_solv.prm

>  <Rbt.Receptor>
prm/pocket_docking_5.prm

>  <SCORE>
-23.8058

>  <SCORE.INTER>
-23.8058

>  <SCORE.INTER.CONST>
1

>  <SCORE.INTER.POLAR>
0

>  <SCORE.INTER.ROT>
0

>  <SCORE.INTER.SOLV>
3.46121

>  <SCORE.INTER.VDW>
-20.6243

>  <SCORE.INTER.norm>
-2.38058

>  <SCORE.INTRA>
0

>  <SCORE.INTRA.DIHEDRAL>
0

>  <SCORE.INTRA.DIHEDRAL.0>
0

>  <SCORE.INTRA.POLAR>
0

>  <SCORE.INTRA.POLAR.0>
0

>  <SCORE.INTRA.REPUL>
0

>  <SCORE.INTRA.REPUL.0>
0

>  <SCORE.INTRA.SOLV>
0

>  <SCORE.INTRA.SOLV.lig_0>
-4.1818

>  <SCORE.INTRA.VDW>
0

>  <SCORE.INTRA.VDW.0>
0

>  <SCORE.INTRA.norm>
0

>  <SCORE.RESTR>
0

>  <SCORE.RESTR.CAVITY>
0

>  <SCORE.RESTR.norm>
0

>  <SCORE.SYSTEM>
0

>  <SCORE.SYSTEM.CONST>
0

>  <SCORE.SYSTEM.DIHEDRAL>
0

>  <SCORE.SYSTEM.SOLV>
0

>  <SCORE.SYSTEM.norm>
0

>  <SCORE.heavy>
10

>  <SCORE.norm>
-2.38058

>  <RMSD>
3.145

$$$$
ligand
 OpenBabel11021811503D
libRbt.so/2013.1/901 2013/11/27
 10 11  0  0  0  0  0  0  0  0999 V2000
   17.6748   -0.6661    2.7603 N   0  0  0  0  0  0  0  0  0  0  0  0
   16.5708   -0.8199    3.4673 C   0  0  0  0  0  0  0  0  0  0  0  0
   16.2028   -2.1016    3.8899 N   0  0  0  0  0  0  0  0  0  0  0  0
   16.9615   -3.1565    3.5618 C   0  0  0  0  0  0  0  0  0  0  0  0
   18.0704   -2.9959    2.8435 C   0  0  0  0  0  0  0  0  0  0  0  0
   18.4532   -1.7851    2.4451 C   0  0  0  0  0  0  0  0  0  0  0  0
   19.4928   -1.6352    1.8053 O   0  0  0  0  0  0  0  0  0  0  0  0
   18.5773   -4.2021    2.6040 N   0  0  0  0  0  0  0  0  0  0  0  0
   17.7890   -5.1067    3.1761 C   0  0  0  0  0  0  0  0  0  0  0  0
   16.7944   -4.4577    3.7747 N   0  0  0  0  0  0  0  0  0  0  0  0
  1  2  1  0  0  0  0
  1  6  1  0  0  0  0
  2  3  2  0  0  0  0
  3  4  1  0  0  0  0
  4  5  2  0  0  0  0
  4 10  1  0  0  0  0
  5  6  1  0  0  0  0
  5  8  1  0  0  0  0
  6  7  2  0  0  0  0
  8  9  1  0  0  0  0
  9 10  2  0  0  0  0
M  END
>  <CHROM.1>
17.69315550,-2.67065975,3.00928811,1.41793769,0.55209797,-0.11018272

>  <Name>
ligand

>  <RI>
0

>  <Rbt.Current_Directory>
/home/itssahil/PROJECTS/Mol_Feturizer/New_Systems/rnas/4NYD

>  <Rbt.Executable>
rbdock ($Id: //depot/dev/client3/rdock/2013.1/src/exe/rbdock.cxx#4 $)

>  <Rbt.Library>
libRbt.so (2013.1, Build901 2013/11/27)

>  <Rbt.Parameter_File>
/export/apps/rDock/src/rDock_2013.1_src/data/scripts/dock_solv.prm

>  <Rbt.Receptor>
prm/pocket_docking_8.prm

>  <SCORE>
-23.7841

>  <SCORE.INTER>
-23.7841

>  <SCORE.INTER.CONST>
1

>  <SCORE.INTER.POLAR>
0

>  <SCORE.INTER.ROT>
0

>  <SCORE.INTER.SOLV>
3.47249

>  <SCORE.INTER.VDW>
-20.6136

>  <SCORE.INTER.norm>
-2.37841

>  <SCORE.INTRA>
0

>  <SCORE.INTRA.DIHEDRAL>
0

>  <SCORE.INTRA.DIHEDRAL.0>
0

>  <SCORE.INTRA.POLAR>
0

>  <SCORE.INTRA.POLAR.0>
0

>  <SCORE.INTRA.REPUL>
0

>  <SCORE.INTRA.REPUL.0>
0

>  <SCORE.INTRA.SOLV>
0

>  <SCORE.INTRA.SOLV.lig_0>
-4.1818

>  <SCORE.INTRA.VDW>
0

>  <SCORE.INTRA.VDW.0>
0

>  <SCORE.INTRA.norm>
0

>  <SCORE.RESTR>
0

>  <SCORE.RESTR.CAVITY>
0

>  <SCORE.RESTR.norm>
0

>  <SCORE.SYSTEM>
0

>  <SCORE.SYSTEM.CONST>
0

>  <SCORE.SYSTEM.DIHEDRAL>
0

>  <SCORE.SYSTEM.SOLV>
0

>  <SCORE.SYSTEM.norm>
0

>  <SCORE.heavy>
10

>  <SCORE.norm>
-2.37841

>  <RMSD>
3.145

$$$$
ligand
 OpenBabel11021811503D
libRbt.so/2013.1/901 2013/11/27
 10 11  0  0  0  0  0  0  0  0999 V2000
   17.5488   -0.7296    2.8469 N   0  0  0  0  0  0  0  0  0  0  0  0
   16.4782   -0.9982    3.5707 C   0  0  0  0  0  0  0  0  0  0  0  0
   16.2225   -2.3208    3.9482 N   0  0  0  0  0  0  0  0  0  0  0  0
   17.0534   -3.2983    3.5606 C   0  0  0  0  0  0  0  0  0  0  0  0
   18.1281   -3.0220    2.8257 C   0  0  0  0  0  0  0  0  0  0  0  0
   18.4046   -1.7699    2.4692 C   0  0  0  0  0  0  0  0  0  0  0  0
   19.4131   -1.5129    1.8138 O   0  0  0  0  0  0  0  0  0  0  0  0
   18.7220   -4.1738    2.5259 N   0  0  0  0  0  0  0  0  0  0  0  0
   18.0216   -5.1600    3.0773 C   0  0  0  0  0  0  0  0  0  0  0  0
   16.9943   -4.6160    3.7235 N   0  0  0  0  0  0  0  0  0  0  0  0
  1  2  1  0  0  0  0
  1  6  1  0  0  0  0
  2  3  2  0  0  0  0
  3  4  1  0  0  0  0
  4  5  2  0  0  0  0
  4 10  1  0  0  0  0
  5  6  1  0  0  0  0
  5  8  1  0  0  0  0
  6  7  2  0  0  0  0
  8  9  1  0  0  0  0
  9 10  2  0  0  0  0
M  END
>  <CHROM.1>
17.73068815,-2.73457500,3.01285723,1.51378769,0.56608093,-0.12079292

>  <Name>
ligand

>  <RI>
0

>  <Rbt.Current_Directory>
/home/itssahil/PROJECTS/Mol_Feturizer/New_Systems/rnas/4NYD

>  <Rbt.Executable>
rbdock ($Id: //depot/dev/client3/rdock/2013.1/src/exe/rbdock.cxx#4 $)

>  <Rbt.Library>
libRbt.so (2013.1, Build901 2013/11/27)

>  <Rbt.Parameter_File>
/export/apps/rDock/src/rDock_2013.1_src/data/scripts/dock_solv.prm

>  <Rbt.Receptor>
prm/pocket_docking_8.prm

>  <SCORE>
-23.7779

>  <SCORE.INTER>
-23.7779

>  <SCORE.INTER.CONST>
1

>  <SCORE.INTER.POLAR>
0

>  <SCORE.INTER.ROT>
0

>  <SCORE.INTER.SOLV>
3.46526

>  <SCORE.INTER.VDW>
-20.607

>  <SCORE.INTER.norm>
-2.37779

>  <SCORE.INTRA>
0

>  <SCORE.INTRA.DIHEDRAL>
0

>  <SCORE.INTRA.DIHEDRAL.0>
0

>  <SCORE.INTRA.POLAR>
0

>  <SCORE.INTRA.POLAR.0>
0

>  <SCORE.INTRA.REPUL>
0

>  <SCORE.INTRA.REPUL.0>
0

>  <SCORE.INTRA.SOLV>
0

>  <SCORE.INTRA.SOLV.lig_0>
-4.1818

>  <SCORE.INTRA.VDW>
0

>  <SCORE.INTRA.VDW.0>
0

>  <SCORE.INTRA.norm>
0

>  <SCORE.RESTR>
0

>  <SCORE.RESTR.CAVITY>
0

>  <SCORE.RESTR.norm>
0

>  <SCORE.SYSTEM>
0

>  <SCORE.SYSTEM.CONST>
0

>  <SCORE.SYSTEM.DIHEDRAL>
0

>  <SCORE.SYSTEM.SOLV>
0

>  <SCORE.SYSTEM.norm>
0

>  <SCORE.heavy>
10

>  <SCORE.norm>
-2.37779

>  <RMSD>
3.145

$$$$
ligand
 OpenBabel11021811503D
libRbt.so/2013.1/901 2013/11/27
 10 11  0  0  0  0  0  0  0  0999 V2000
   17.6338   -0.7180    2.8230 N   0  0  0  0  0  0  0  0  0  0  0  0
   16.5191   -0.9133    3.5024 C   0  0  0  0  0  0  0  0  0  0  0  0
   16.1756   -2.2118    3.8935 N   0  0  0  0  0  0  0  0  0  0  0  0
   16.9686   -3.2405    3.5634 C   0  0  0  0  0  0  0  0  0  0  0  0
   18.0883   -3.0380    2.8730 C   0  0  0  0  0  0  0  0  0  0  0  0
   18.4479   -1.8105    2.5051 C   0  0  0  0  0  0  0  0  0  0  0  0
   19.4970   -1.6221    1.8915 O   0  0  0  0  0  0  0  0  0  0  0  0
   18.6317   -4.2261    2.6231 N   0  0  0  0  0  0  0  0  0  0  0  0
   17.8551   -5.1612    3.1611 C   0  0  0  0  0  0  0  0  0  0  0  0
   16.8310   -4.5492    3.7490 N   0  0  0  0  0  0  0  0  0  0  0  0
  1  2  1  0  0  0  0
  1  6  1  0  0  0  0
  2  3  2  0  0  0  0
  3  4  1  0  0  0  0
  4  5  2  0  0  0  0
  4 10  1  0  0  0  0
  5  6  1  0  0  0  0
  5  8  1  0  0  0  0
  6  7  2  0  0  0  0
  8  9  1  0  0  0  0
  9 10  2  0  0  0  0
M  END
>  <CHROM.1>
17.69919602,-2.72574895,3.03617711,1.44524526,0.52734795,-0.10587853

>  <Name>
ligand

>  <RI>
0

>  <Rbt.Current_Directory>
/home/itssahil/PROJECTS/Mol_Feturizer/New_Systems/rnas/4NYD

>  <Rbt.Executable>
rbdock ($Id: //depot/dev/client3/rdock/2013.1/src/exe/rbdock.cxx#4 $)

>  <Rbt.Library>
libRbt.so (2013.1, Build901 2013/11/27)

>  <Rbt.Parameter_File>
/export/apps/rDock/src/rDock_2013.1_src/data/scripts/dock_solv.prm

>  <Rbt.Receptor>
prm/blind_docking_100.prm

>  <SCORE>
-23.8049

>  <SCORE.INTER>
-23.8049

>  <SCORE.INTER.CONST>
1

>  <SCORE.INTER.POLAR>
0

>  <SCORE.INTER.ROT>
0

>  <SCORE.INTER.SOLV>
3.48744

>  <SCORE.INTER.VDW>
-20.6324

>  <SCORE.INTER.norm>
-2.38049

>  <SCORE.INTRA>
0

>  <SCORE.INTRA.DIHEDRAL>
0

>  <SCORE.INTRA.DIHEDRAL.0>
0

>  <SCORE.INTRA.POLAR>
0

>  <SCORE.INTRA.POLAR.0>
0

>  <SCORE.INTRA.REPUL>
0

>  <SCORE.INTRA.REPUL.0>
0

>  <SCORE.INTRA.SOLV>
0

>  <SCORE.INTRA.SOLV.lig_0>
-4.1818

>  <SCORE.INTRA.VDW>
0

>  <SCORE.INTRA.VDW.0>
0

>  <SCORE.INTRA.norm>
0

>  <SCORE.RESTR>
0

>  <SCORE.RESTR.CAVITY>
0

>  <SCORE.RESTR.norm>
0

>  <SCORE.SYSTEM>
0

>  <SCORE.SYSTEM.CONST>
0

>  <SCORE.SYSTEM.DIHEDRAL>
0

>  <SCORE.SYSTEM.SOLV>
0

>  <SCORE.SYSTEM.norm>
0

>  <SCORE.heavy>
10

>  <SCORE.norm>
-2.38049

>  <RMSD>
3.146

$$$$
ligand
 OpenBabel11021811503D
libRbt.so/2013.1/901 2013/11/27
 10 11  0  0  0  0  0  0  0  0999 V2000
   17.5999   -0.7021    2.7887 N   0  0  0  0  0  0  0  0  0  0  0  0
   16.5103   -0.9126    3.5033 C   0  0  0  0  0  0  0  0  0  0  0  0
   16.2003   -2.2148    3.9096 N   0  0  0  0  0  0  0  0  0  0  0  0
   16.9992   -3.2320    3.5584 C   0  0  0  0  0  0  0  0  0  0  0  0
   18.0933   -3.0143    2.8325 C   0  0  0  0  0  0  0  0  0  0  0  0
   18.4213   -1.7827    2.4492 C   0  0  0  0  0  0  0  0  0  0  0  0
   19.4474   -1.5798    1.8023 O   0  0  0  0  0  0  0  0  0  0  0  0
   18.6478   -4.1945    2.5698 N   0  0  0  0  0  0  0  0  0  0  0  0
   17.9035   -5.1398    3.1351 C   0  0  0  0  0  0  0  0  0  0  0  0
   16.8886   -4.5420    3.7528 N   0  0  0  0  0  0  0  0  0  0  0  0
  1  2  1  0  0  0  0
  1  6  1  0  0  0  0
  2  3  2  0  0  0  0
  3  4  1  0  0  0  0
  4  5  2  0  0  0  0
  4 10  1  0  0  0  0
  5  6  1  0  0  0  0
  5  8  1  0  0  0  0
  6  7  2  0  0  0  0
  8  9  1  0  0  0  0
  9 10  2  0  0  0  0
M  END
>  <CHROM.1>
17.70441251,-2.70767096,3.00669619,1.46811381,0.55665103,-0.12142860

>  <Name>
ligand

>  <RI>
0

>  <Rbt.Current_Directory>
/home/itssahil/PROJECTS/Mol_Feturizer/New_Systems/rnas/4NYD

>  <Rbt.Executable>
rbdock ($Id: //depot/dev/client3/rdock/2013.1/src/exe/rbdock.cxx#4 $)

>  <Rbt.Library>
libRbt.so (2013.1, Build901 2013/11/27)

>  <Rbt.Parameter_File>
/export/apps/rDock/src/rDock_2013.1_src/data/scripts/dock_solv.prm

>  <Rbt.Receptor>
prm/blind_docking_40.prm

>  <SCORE>
-23.789

>  <SCORE.INTER>
-23.789

>  <SCORE.INTER.CONST>
1

>  <SCORE.INTER.POLAR>
0

>  <SCORE.INTER.ROT>
0

>  <SCORE.INTER.SOLV>
3.45288

>  <SCORE.INTER.VDW>
-20.6103

>  <SCORE.INTER.norm>
-2.3789

>  <SCORE.INTRA>
0

>  <SCORE.INTRA.DIHEDRAL>
0

>  <SCORE.INTRA.DIHEDRAL.0>
0

>  <SCORE.INTRA.POLAR>
0

>  <SCORE.INTRA.POLAR.0>
0

>  <SCORE.INTRA.REPUL>
0

>  <SCORE.INTRA.REPUL.0>
0

>  <SCORE.INTRA.SOLV>
0

>  <SCORE.INTRA.SOLV.lig_0>
-4.1818

>  <SCORE.INTRA.VDW>
0

>  <SCORE.INTRA.VDW.0>
0

>  <SCORE.INTRA.norm>
0

>  <SCORE.RESTR>
0

>  <SCORE.RESTR.CAVITY>
0

>  <SCORE.RESTR.norm>
0

>  <SCORE.SYSTEM>
0

>  <SCORE.SYSTEM.CONST>
0

>  <SCORE.SYSTEM.DIHEDRAL>
0

>  <SCORE.SYSTEM.SOLV>
0

>  <SCORE.SYSTEM.norm>
0

>  <SCORE.heavy>
10

>  <SCORE.norm>
-2.3789

>  <RMSD>
3.146

$$$$
ligand
 OpenBabel11021811503D
libRbt.so/2013.1/901 2013/11/27
 10 11  0  0  0  0  0  0  0  0999 V2000
   17.6036   -0.7112    2.7846 N   0  0  0  0  0  0  0  0  0  0  0  0
   16.5114   -0.9156    3.4971 C   0  0  0  0  0  0  0  0  0  0  0  0
   16.1979   -2.2148    3.9101 N   0  0  0  0  0  0  0  0  0  0  0  0
   16.9961   -3.2354    3.5675 C   0  0  0  0  0  0  0  0  0  0  0  0
   18.0928   -3.0239    2.8437 C   0  0  0  0  0  0  0  0  0  0  0  0
   18.4241   -1.7951    2.4542 C   0  0  0  0  0  0  0  0  0  0  0  0
   19.4526   -1.5979    1.8093 O   0  0  0  0  0  0  0  0  0  0  0  0
   18.6461   -4.2066    2.5898 N   0  0  0  0  0  0  0  0  0  0  0  0
   17.8986   -5.1473    3.1584 C   0  0  0  0  0  0  0  0  0  0  0  0
   16.8827   -4.5441    3.7693 N   0  0  0  0  0  0  0  0  0  0  0  0
  1  2  1  0  0  0  0
  1  6  1  0  0  0  0
  2  3  2  0  0  0  0
  3  4  1  0  0  0  0
  4  5  2  0  0  0  0
  4 10  1  0  0  0  0
  5  6  1  0  0  0  0
  5  8  1  0  0  0  0
  6  7  2  0  0  0  0
  8  9  1  0  0  0  0
  9 10  2  0  0  0  0
M  END
>  <CHROM.1>
17.70397972,-2.71560099,3.01489412,1.46568246,0.55377891,-0.12609771

>  <Name>
ligand

>  <RI>
0

>  <Rbt.Current_Directory>
/home/itssahil/PROJECTS/Mol_Feturizer/New_Systems/rnas/4NYD

>  <Rbt.Executable>
rbdock ($Id: //depot/dev/client3/rdock/2013.1/src/exe/rbdock.cxx#4 $)

>  <Rbt.Library>
libRbt.so (2013.1, Build901 2013/11/27)

>  <Rbt.Parameter_File>
/export/apps/rDock/src/rDock_2013.1_src/data/scripts/dock_solv.prm

>  <Rbt.Receptor>
prm/pocket_docking_3.prm

>  <SCORE>
-23.8083

>  <SCORE.INTER>
-23.8083

>  <SCORE.INTER.CONST>
1

>  <SCORE.INTER.POLAR>
0

>  <SCORE.INTER.ROT>
0

>  <SCORE.INTER.SOLV>
3.45473

>  <SCORE.INTER.VDW>
-20.6238

>  <SCORE.INTER.norm>
-2.38083

>  <SCORE.INTRA>
0

>  <SCORE.INTRA.DIHEDRAL>
0

>  <SCORE.INTRA.DIHEDRAL.0>
0

>  <SCORE.INTRA.POLAR>
0

>  <SCORE.INTRA.POLAR.0>
0

>  <SCORE.INTRA.REPUL>
0

>  <SCORE.INTRA.REPUL.0>
0

>  <SCORE.INTRA.SOLV>
0

>  <SCORE.INTRA.SOLV.lig_0>
-4.1818

>  <SCORE.INTRA.VDW>
0

>  <SCORE.INTRA.VDW.0>
0

>  <SCORE.INTRA.norm>
0

>  <SCORE.RESTR>
0

>  <SCORE.RESTR.CAVITY>
0

>  <SCORE.RESTR.norm>
0

>  <SCORE.SYSTEM>
0

>  <SCORE.SYSTEM.CONST>
0

>  <SCORE.SYSTEM.DIHEDRAL>
0

>  <SCORE.SYSTEM.SOLV>
0

>  <SCORE.SYSTEM.norm>
0

>  <SCORE.heavy>
10

>  <SCORE.norm>
-2.38083

>  <RMSD>
3.146

$$$$
ligand
 OpenBabel11021811503D
libRbt.so/2013.1/901 2013/11/27
 10 11  0  0  0  0  0  0  0  0999 V2000
   17.6014   -0.7137    2.7759 N   0  0  0  0  0  0  0  0  0  0  0  0
   16.5101   -0.9162    3.4904 C   0  0  0  0  0  0  0  0  0  0  0  0
   16.1975   -2.2142    3.9078 N   0  0  0  0  0  0  0  0  0  0  0  0
   16.9955   -3.2356    3.5673 C   0  0  0  0  0  0  0  0  0  0  0  0
   18.0912   -3.0261    2.8415 C   0  0  0  0  0  0  0  0  0  0  0  0
   18.4217   -1.7985    2.4477 C   0  0  0  0  0  0  0  0  0  0  0  0
   19.4494   -1.6030    1.8009 O   0  0  0  0  0  0  0  0  0  0  0  0
   18.6445   -4.2095    2.5905 N   0  0  0  0  0  0  0  0  0  0  0  0
   17.8978   -5.1486    3.1630 C   0  0  0  0  0  0  0  0  0  0  0  0
   16.8826   -4.5437    3.7733 N   0  0  0  0  0  0  0  0  0  0  0  0
  1  2  1  0  0  0  0
  1  6  1  0  0  0  0
  2  3  2  0  0  0  0
  3  4  1  0  0  0  0
  4  5  2  0  0  0  0
  4 10  1  0  0  0  0
  5  6  1  0  0  0  0
  5  8  1  0  0  0  0
  6  7  2  0  0  0  0
  8  9  1  0  0  0  0
  9 10  2  0  0  0  0
M  END
>  <CHROM.1>
17.70251389,-2.71738434,3.01217590,1.46613380,0.55502245,-0.12942130

>  <Name>
ligand

>  <RI>
0

>  <Rbt.Current_Directory>
/home/itssahil/PROJECTS/Mol_Feturizer/New_Systems/rnas/4NYD

>  <Rbt.Executable>
rbdock ($Id: //depot/dev/client3/rdock/2013.1/src/exe/rbdock.cxx#4 $)

>  <Rbt.Library>
libRbt.so (2013.1, Build901 2013/11/27)

>  <Rbt.Parameter_File>
/export/apps/rDock/src/rDock_2013.1_src/data/scripts/dock_solv.prm

>  <Rbt.Receptor>
prm/pocket_docking_6.prm

>  <SCORE>
-23.804

>  <SCORE.INTER>
-23.804

>  <SCORE.INTER.CONST>
1

>  <SCORE.INTER.POLAR>
0

>  <SCORE.INTER.ROT>
0

>  <SCORE.INTER.SOLV>
3.45025

>  <SCORE.INTER.VDW>
-20.6194

>  <SCORE.INTER.norm>
-2.3804

>  <SCORE.INTRA>
0

>  <SCORE.INTRA.DIHEDRAL>
0

>  <SCORE.INTRA.DIHEDRAL.0>
0

>  <SCORE.INTRA.POLAR>
0

>  <SCORE.INTRA.POLAR.0>
0

>  <SCORE.INTRA.REPUL>
0

>  <SCORE.INTRA.REPUL.0>
0

>  <SCORE.INTRA.SOLV>
0

>  <SCORE.INTRA.SOLV.lig_0>
-4.1818

>  <SCORE.INTRA.VDW>
0

>  <SCORE.INTRA.VDW.0>
0

>  <SCORE.INTRA.norm>
0

>  <SCORE.RESTR>
0

>  <SCORE.RESTR.CAVITY>
0

>  <SCORE.RESTR.norm>
0

>  <SCORE.SYSTEM>
0

>  <SCORE.SYSTEM.CONST>
0

>  <SCORE.SYSTEM.DIHEDRAL>
0

>  <SCORE.SYSTEM.SOLV>
0

>  <SCORE.SYSTEM.norm>
0

>  <SCORE.heavy>
10

>  <SCORE.norm>
-2.3804

>  <RMSD>
3.146

$$$$
ligand
 OpenBabel11021811503D
libRbt.so/2013.1/901 2013/11/27
 10 11  0  0  0  0  0  0  0  0999 V2000
   17.5501   -0.7387    2.8487 N   0  0  0  0  0  0  0  0  0  0  0  0
   16.4794   -0.9992    3.5753 C   0  0  0  0  0  0  0  0  0  0  0  0
   16.2253   -2.3169    3.9701 N   0  0  0  0  0  0  0  0  0  0  0  0
   17.0577   -3.2984    3.5962 C   0  0  0  0  0  0  0  0  0  0  0  0
   18.1325   -3.0304    2.8584 C   0  0  0  0  0  0  0  0  0  0  0  0
   18.4076   -1.7828    2.4855 C   0  0  0  0  0  0  0  0  0  0  0  0
   19.4162   -1.5332    1.8274 O   0  0  0  0  0  0  0  0  0  0  0  0
   18.7283   -4.1853    2.5744 N   0  0  0  0  0  0  0  0  0  0  0  0
   18.0288   -5.1650    3.1383 C   0  0  0  0  0  0  0  0  0  0  0  0
   17.0002   -4.6139    3.7765 N   0  0  0  0  0  0  0  0  0  0  0  0
  1  2  1  0  0  0  0
  1  6  1  0  0  0  0
  2  3  2  0  0  0  0
  3  4  1  0  0  0  0
  4  5  2  0  0  0  0
  4 10  1  0  0  0  0
  5  6  1  0  0  0  0
  5  8  1  0  0  0  0
  6  7  2  0  0  0  0
  8  9  1  0  0  0  0
  9 10  2  0  0  0  0
M  END
>  <CHROM.1>
17.73462913,-2.74107516,3.04143416,1.51527715,0.56520077,-0.13490265

>  <Name>
ligand

>  <RI>
0

>  <Rbt.Current_Directory>
/home/itssahil/PROJECTS/Mol_Feturizer/New_Systems/rnas/4NYD

>  <Rbt.Executable>
rbdock ($Id: //depot/dev/client3/rdock/2013.1/src/exe/rbdock.cxx#4 $)

>  <Rbt.Library>
libRbt.so (2013.1, Build901 2013/11/27)

>  <Rbt.Parameter_File>
/export/apps/rDock/src/rDock_2013.1_src/data/scripts/dock_solv.prm

>  <Rbt.Receptor>
prm/pocket_docking_6.prm

>  <SCORE>
-23.7649

>  <SCORE.INTER>
-23.7649

>  <SCORE.INTER.CONST>
1

>  <SCORE.INTER.POLAR>
0

>  <SCORE.INTER.ROT>
0

>  <SCORE.INTER.SOLV>
3.47782

>  <SCORE.INTER.VDW>
-20.6026

>  <SCORE.INTER.norm>
-2.37649

>  <SCORE.INTRA>
0

>  <SCORE.INTRA.DIHEDRAL>
0

>  <SCORE.INTRA.DIHEDRAL.0>
0

>  <SCORE.INTRA.POLAR>
0

>  <SCORE.INTRA.POLAR.0>
0

>  <SCORE.INTRA.REPUL>
0

>  <SCORE.INTRA.REPUL.0>
0

>  <SCORE.INTRA.SOLV>
0

>  <SCORE.INTRA.SOLV.lig_0>
-4.1818

>  <SCORE.INTRA.VDW>
0

>  <SCORE.INTRA.VDW.0>
0

>  <SCORE.INTRA.norm>
0

>  <SCORE.RESTR>
0

>  <SCORE.RESTR.CAVITY>
0

>  <SCORE.RESTR.norm>
0

>  <SCORE.SYSTEM>
0

>  <SCORE.SYSTEM.CONST>
0

>  <SCORE.SYSTEM.DIHEDRAL>
0

>  <SCORE.SYSTEM.SOLV>
0

>  <SCORE.SYSTEM.norm>
0

>  <SCORE.heavy>
10

>  <SCORE.norm>
-2.37649

>  <RMSD>
3.146

$$$$
ligand
 OpenBabel11021811503D
libRbt.so/2013.1/901 2013/11/27
 10 11  0  0  0  0  0  0  0  0999 V2000
   17.6023   -0.7114    2.7824 N   0  0  0  0  0  0  0  0  0  0  0  0
   16.5108   -0.9158    3.4960 C   0  0  0  0  0  0  0  0  0  0  0  0
   16.1983   -2.2149    3.9102 N   0  0  0  0  0  0  0  0  0  0  0  0
   16.9967   -3.2353    3.5676 C   0  0  0  0  0  0  0  0  0  0  0  0
   18.0927   -3.0238    2.8427 C   0  0  0  0  0  0  0  0  0  0  0  0
   18.4231   -1.7952    2.4520 C   0  0  0  0  0  0  0  0  0  0  0  0
   19.4509   -1.5979    1.8061 O   0  0  0  0  0  0  0  0  0  0  0  0
   18.6463   -4.2065    2.5892 N   0  0  0  0  0  0  0  0  0  0  0  0
   17.8997   -5.1471    3.1592 C   0  0  0  0  0  0  0  0  0  0  0  0
   16.8841   -4.5440    3.7705 N   0  0  0  0  0  0  0  0  0  0  0  0
  1  2  1  0  0  0  0
  1  6  1  0  0  0  0
  2  3  2  0  0  0  0
  3  4  1  0  0  0  0
  4  5  2  0  0  0  0
  4 10  1  0  0  0  0
  5  6  1  0  0  0  0
  5  8  1  0  0  0  0
  6  7  2  0  0  0  0
  8  9  1  0  0  0  0
  9 10  2  0  0  0  0
M  END
>  <CHROM.1>
17.70385111,-2.71561119,3.01403185,1.46635597,0.55457144,-0.12717685

>  <Name>
ligand

>  <RI>
0

>  <Rbt.Current_Directory>
/home/itssahil/PROJECTS/Mol_Feturizer/New_Systems/rnas/4NYD

>  <Rbt.Executable>
rbdock ($Id: //depot/dev/client3/rdock/2013.1/src/exe/rbdock.cxx#4 $)

>  <Rbt.Library>
libRbt.so (2013.1, Build901 2013/11/27)

>  <Rbt.Parameter_File>
/export/apps/rDock/src/rDock_2013.1_src/data/scripts/dock_solv.prm

>  <Rbt.Receptor>
prm/pocket_docking_8.prm

>  <SCORE>
-23.8084

>  <SCORE.INTER>
-23.8084

>  <SCORE.INTER.CONST>
1

>  <SCORE.INTER.POLAR>
0

>  <SCORE.INTER.ROT>
0

>  <SCORE.INTER.SOLV>
3.45336

>  <SCORE.INTER.VDW>
-20.6234

>  <SCORE.INTER.norm>
-2.38084

>  <SCORE.INTRA>
0

>  <SCORE.INTRA.DIHEDRAL>
0

>  <SCORE.INTRA.DIHEDRAL.0>
0

>  <SCORE.INTRA.POLAR>
0

>  <SCORE.INTRA.POLAR.0>
0

>  <SCORE.INTRA.REPUL>
0

>  <SCORE.INTRA.REPUL.0>
0

>  <SCORE.INTRA.SOLV>
0

>  <SCORE.INTRA.SOLV.lig_0>
-4.1818

>  <SCORE.INTRA.VDW>
0

>  <SCORE.INTRA.VDW.0>
0

>  <SCORE.INTRA.norm>
0

>  <SCORE.RESTR>
0

>  <SCORE.RESTR.CAVITY>
0

>  <SCORE.RESTR.norm>
0

>  <SCORE.SYSTEM>
0

>  <SCORE.SYSTEM.CONST>
0

>  <SCORE.SYSTEM.DIHEDRAL>
0

>  <SCORE.SYSTEM.SOLV>
0

>  <SCORE.SYSTEM.norm>
0

>  <SCORE.heavy>
10

>  <SCORE.norm>
-2.38084

>  <RMSD>
3.146

$$$$
ligand
 OpenBabel11021811503D
libRbt.so/2013.1/901 2013/11/27
 10 11  0  0  0  0  0  0  0  0999 V2000
   17.6546   -0.6693    2.8320 N   0  0  0  0  0  0  0  0  0  0  0  0
   16.5448   -0.8612    3.5204 C   0  0  0  0  0  0  0  0  0  0  0  0
   16.1915   -2.1607    3.8990 N   0  0  0  0  0  0  0  0  0  0  0  0
   16.9702   -3.1936    3.5481 C   0  0  0  0  0  0  0  0  0  0  0  0
   18.0849   -2.9943    2.8488 C   0  0  0  0  0  0  0  0  0  0  0  0
   18.4538   -1.7662    2.4924 C   0  0  0  0  0  0  0  0  0  0  0  0
   19.4986   -1.5812    1.8703 O   0  0  0  0  0  0  0  0  0  0  0  0
   18.6131   -4.1849    2.5788 N   0  0  0  0  0  0  0  0  0  0  0  0
   17.8320   -5.1184    3.1131 C   0  0  0  0  0  0  0  0  0  0  0  0
   16.8205   -4.5030    3.7191 N   0  0  0  0  0  0  0  0  0  0  0  0
  1  2  1  0  0  0  0
  1  6  1  0  0  0  0
  2  3  2  0  0  0  0
  3  4  1  0  0  0  0
  4  5  2  0  0  0  0
  4 10  1  0  0  0  0
  5  6  1  0  0  0  0
  5  8  1  0  0  0  0
  6  7  2  0  0  0  0
  8  9  1  0  0  0  0
  9 10  2  0  0  0  0
M  END
>  <CHROM.1>
17.70078669,-2.68006015,3.01980436,1.43416302,0.53854081,-0.08790259

>  <Name>
ligand

>  <RI>
0

>  <Rbt.Current_Directory>
/home/itssahil/PROJECTS/Mol_Feturizer/New_Systems/rnas/4NYD

>  <Rbt.Executable>
rbdock ($Id: //depot/dev/client3/rdock/2013.1/src/exe/rbdock.cxx#4 $)

>  <Rbt.Library>
libRbt.so (2013.1, Build901 2013/11/27)

>  <Rbt.Parameter_File>
/export/apps/rDock/src/rDock_2013.1_src/data/scripts/dock_solv.prm

>  <Rbt.Receptor>
prm/pocket_docking_3.prm

>  <SCORE>
-23.7563

>  <SCORE.INTER>
-23.7563

>  <SCORE.INTER.CONST>
1

>  <SCORE.INTER.POLAR>
0

>  <SCORE.INTER.ROT>
0

>  <SCORE.INTER.SOLV>
3.49404

>  <SCORE.INTER.VDW>
-20.6022

>  <SCORE.INTER.norm>
-2.37563

>  <SCORE.INTRA>
0

>  <SCORE.INTRA.DIHEDRAL>
0

>  <SCORE.INTRA.DIHEDRAL.0>
0

>  <SCORE.INTRA.POLAR>
0

>  <SCORE.INTRA.POLAR.0>
0

>  <SCORE.INTRA.REPUL>
0

>  <SCORE.INTRA.REPUL.0>
0

>  <SCORE.INTRA.SOLV>
0

>  <SCORE.INTRA.SOLV.lig_0>
-4.1818

>  <SCORE.INTRA.VDW>
0

>  <SCORE.INTRA.VDW.0>
0

>  <SCORE.INTRA.norm>
0

>  <SCORE.RESTR>
0

>  <SCORE.RESTR.CAVITY>
0

>  <SCORE.RESTR.norm>
0

>  <SCORE.SYSTEM>
0

>  <SCORE.SYSTEM.CONST>
0

>  <SCORE.SYSTEM.DIHEDRAL>
0

>  <SCORE.SYSTEM.SOLV>
0

>  <SCORE.SYSTEM.norm>
0

>  <SCORE.heavy>
10

>  <SCORE.norm>
-2.37563

>  <RMSD>
3.147

$$$$
ligand
 OpenBabel11021811503D
libRbt.so/2013.1/901 2013/11/27
 10 11  0  0  0  0  0  0  0  0999 V2000
   17.6017   -0.6954    2.7763 N   0  0  0  0  0  0  0  0  0  0  0  0
   16.5036   -0.8991    3.4799 C   0  0  0  0  0  0  0  0  0  0  0  0
   16.1874   -2.1977    3.8929 N   0  0  0  0  0  0  0  0  0  0  0  0
   16.9893   -3.2184    3.5594 C   0  0  0  0  0  0  0  0  0  0  0  0
   18.0921   -3.0076    2.8446 C   0  0  0  0  0  0  0  0  0  0  0  0
   18.4258   -1.7795    2.4552 C   0  0  0  0  0  0  0  0  0  0  0  0
   19.4597   -1.5828    1.8188 O   0  0  0  0  0  0  0  0  0  0  0  0
   18.6483   -4.1904    2.5980 N   0  0  0  0  0  0  0  0  0  0  0  0
   17.8966   -5.1305    3.1622 C   0  0  0  0  0  0  0  0  0  0  0  0
   16.8751   -4.5267    3.7631 N   0  0  0  0  0  0  0  0  0  0  0  0
  1  2  1  0  0  0  0
  1  6  1  0  0  0  0
  2  3  2  0  0  0  0
  3  4  1  0  0  0  0
  4  5  2  0  0  0  0
  4 10  1  0  0  0  0
  5  6  1  0  0  0  0
  5  8  1  0  0  0  0
  6  7  2  0  0  0  0
  8  9  1  0  0  0  0
  9 10  2  0  0  0  0
M  END
>  <CHROM.1>
17.70152429,-2.69924144,3.01175256,1.46523734,0.54517799,-0.12802339

>  <Name>
ligand

>  <RI>
0

>  <Rbt.Current_Directory>
/home/itssahil/PROJECTS/Mol_Feturizer/New_Systems/rnas/4NYD

>  <Rbt.Executable>
rbdock ($Id: //depot/dev/client3/rdock/2013.1/src/exe/rbdock.cxx#4 $)

>  <Rbt.Library>
libRbt.so (2013.1, Build901 2013/11/27)

>  <Rbt.Parameter_File>
/export/apps/rDock/src/rDock_2013.1_src/data/scripts/dock_solv.prm

>  <Rbt.Receptor>
prm/pocket_docking_5.prm

>  <SCORE>
-23.7664

>  <SCORE.INTER>
-23.7664

>  <SCORE.INTER.CONST>
1

>  <SCORE.INTER.POLAR>
0

>  <SCORE.INTER.ROT>
0

>  <SCORE.INTER.SOLV>
3.44761

>  <SCORE.INTER.VDW>
-20.5935

>  <SCORE.INTER.norm>
-2.37664

>  <SCORE.INTRA>
0

>  <SCORE.INTRA.DIHEDRAL>
0

>  <SCORE.INTRA.DIHEDRAL.0>
0

>  <SCORE.INTRA.POLAR>
0

>  <SCORE.INTRA.POLAR.0>
0

>  <SCORE.INTRA.REPUL>
0

>  <SCORE.INTRA.REPUL.0>
0

>  <SCORE.INTRA.SOLV>
0

>  <SCORE.INTRA.SOLV.lig_0>
-4.1818

>  <SCORE.INTRA.VDW>
0

>  <SCORE.INTRA.VDW.0>
0

>  <SCORE.INTRA.norm>
0

>  <SCORE.RESTR>
0

>  <SCORE.RESTR.CAVITY>
0

>  <SCORE.RESTR.norm>
0

>  <SCORE.SYSTEM>
0

>  <SCORE.SYSTEM.CONST>
0

>  <SCORE.SYSTEM.DIHEDRAL>
0

>  <SCORE.SYSTEM.SOLV>
0

>  <SCORE.SYSTEM.norm>
0

>  <SCORE.heavy>
10

>  <SCORE.norm>
-2.37664

>  <RMSD>
3.147

$$$$
ligand
 OpenBabel11021811503D
libRbt.so/2013.1/901 2013/11/27
 10 11  0  0  0  0  0  0  0  0999 V2000
   17.6735   -0.6626    2.7668 N   0  0  0  0  0  0  0  0  0  0  0  0
   16.5697   -0.8159    3.4742 C   0  0  0  0  0  0  0  0  0  0  0  0
   16.2010   -2.0976    3.8964 N   0  0  0  0  0  0  0  0  0  0  0  0
   16.9588   -3.1529    3.5674 C   0  0  0  0  0  0  0  0  0  0  0  0
   18.0675   -2.9927    2.8487 C   0  0  0  0  0  0  0  0  0  0  0  0
   18.4510   -1.7820    2.4507 C   0  0  0  0  0  0  0  0  0  0  0  0
   19.4905   -1.6325    1.8105 O   0  0  0  0  0  0  0  0  0  0  0  0
   18.5735   -4.1992    2.6084 N   0  0  0  0  0  0  0  0  0  0  0  0
   17.7848   -5.1035    3.1804 C   0  0  0  0  0  0  0  0  0  0  0  0
   16.7909   -4.4540    3.7798 N   0  0  0  0  0  0  0  0  0  0  0  0
  1  2  1  0  0  0  0
  1  6  1  0  0  0  0
  2  3  2  0  0  0  0
  3  4  1  0  0  0  0
  4  5  2  0  0  0  0
  4 10  1  0  0  0  0
  5  6  1  0  0  0  0
  5  8  1  0  0  0  0
  6  7  2  0  0  0  0
  8  9  1  0  0  0  0
  9 10  2  0  0  0  0
M  END
>  <CHROM.1>
17.69057501,-2.66728657,3.01482397,1.41715953,0.55260384,-0.10930451

>  <Name>
ligand

>  <RI>
0

>  <Rbt.Current_Directory>
/home/itssahil/PROJECTS/Mol_Feturizer/New_Systems/rnas/4NYD

>  <Rbt.Executable>
rbdock ($Id: //depot/dev/client3/rdock/2013.1/src/exe/rbdock.cxx#4 $)

>  <Rbt.Library>
libRbt.so (2013.1, Build901 2013/11/27)

>  <Rbt.Parameter_File>
/export/apps/rDock/src/rDock_2013.1_src/data/scripts/dock_solv.prm

>  <Rbt.Receptor>
prm/pocket_docking_7.prm

>  <SCORE>
-23.7845

>  <SCORE.INTER>
-23.7845

>  <SCORE.INTER.CONST>
1

>  <SCORE.INTER.POLAR>
0

>  <SCORE.INTER.ROT>
0

>  <SCORE.INTER.SOLV>
3.47833

>  <SCORE.INTER.VDW>
-20.6158

>  <SCORE.INTER.norm>
-2.37845

>  <SCORE.INTRA>
0

>  <SCORE.INTRA.DIHEDRAL>
0

>  <SCORE.INTRA.DIHEDRAL.0>
0

>  <SCORE.INTRA.POLAR>
0

>  <SCORE.INTRA.POLAR.0>
0

>  <SCORE.INTRA.REPUL>
0

>  <SCORE.INTRA.REPUL.0>
0

>  <SCORE.INTRA.SOLV>
0

>  <SCORE.INTRA.SOLV.lig_0>
-4.1818

>  <SCORE.INTRA.VDW>
0

>  <SCORE.INTRA.VDW.0>
0

>  <SCORE.INTRA.norm>
0

>  <SCORE.RESTR>
0

>  <SCORE.RESTR.CAVITY>
0

>  <SCORE.RESTR.norm>
0

>  <SCORE.SYSTEM>
0

>  <SCORE.SYSTEM.CONST>
0

>  <SCORE.SYSTEM.DIHEDRAL>
0

>  <SCORE.SYSTEM.SOLV>
0

>  <SCORE.SYSTEM.norm>
0

>  <SCORE.heavy>
10

>  <SCORE.norm>
-2.37845

>  <RMSD>
3.147

$$$$
ligand
 OpenBabel11021811503D
libRbt.so/2013.1/901 2013/11/27
 10 11  0  0  0  0  0  0  0  0999 V2000
   17.5858   -0.7076    2.7696 N   0  0  0  0  0  0  0  0  0  0  0  0
   16.4999   -0.9159    3.4906 C   0  0  0  0  0  0  0  0  0  0  0  0
   16.1971   -2.2154    3.9107 N   0  0  0  0  0  0  0  0  0  0  0  0
   16.9990   -3.2325    3.5661 C   0  0  0  0  0  0  0  0  0  0  0  0
   18.0893   -3.0171    2.8337 C   0  0  0  0  0  0  0  0  0  0  0  0
   18.4104   -1.7879    2.4373 C   0  0  0  0  0  0  0  0  0  0  0  0
   19.4331   -1.5869    1.7843 O   0  0  0  0  0  0  0  0  0  0  0  0
   18.6478   -4.1975    2.5803 N   0  0  0  0  0  0  0  0  0  0  0  0
   17.9099   -5.1404    3.1577 C   0  0  0  0  0  0  0  0  0  0  0  0
   16.8948   -4.5411    3.7736 N   0  0  0  0  0  0  0  0  0  0  0  0
  1  2  1  0  0  0  0
  1  6  1  0  0  0  0
  2  3  2  0  0  0  0
  3  4  1  0  0  0  0
  4  5  2  0  0  0  0
  4 10  1  0  0  0  0
  5  6  1  0  0  0  0
  5  8  1  0  0  0  0
  6  7  2  0  0  0  0
  8  9  1  0  0  0  0
  9 10  2  0  0  0  0
M  END
>  <CHROM.1>
17.69978384,-2.71053013,3.00654637,1.47373313,0.56007661,-0.13407139

>  <Name>
ligand

>  <RI>
0

>  <Rbt.Current_Directory>
/home/itssahil/PROJECTS/Mol_Feturizer/New_Systems/rnas/4NYD

>  <Rbt.Executable>
rbdock ($Id: //depot/dev/client3/rdock/2013.1/src/exe/rbdock.cxx#4 $)

>  <Rbt.Library>
libRbt.so (2013.1, Build901 2013/11/27)

>  <Rbt.Parameter_File>
/export/apps/rDock/src/rDock_2013.1_src/data/scripts/dock_solv.prm

>  <Rbt.Receptor>
prm/blind_docking_40.prm

>  <SCORE>
-23.779

>  <SCORE.INTER>
-23.779

>  <SCORE.INTER.CONST>
1

>  <SCORE.INTER.POLAR>
0

>  <SCORE.INTER.ROT>
0

>  <SCORE.INTER.SOLV>
3.44306

>  <SCORE.INTER.VDW>
-20.6004

>  <SCORE.INTER.norm>
-2.3779

>  <SCORE.INTRA>
0

>  <SCORE.INTRA.DIHEDRAL>
0

>  <SCORE.INTRA.DIHEDRAL.0>
0

>  <SCORE.INTRA.POLAR>
0

>  <SCORE.INTRA.POLAR.0>
0

>  <SCORE.INTRA.REPUL>
0

>  <SCORE.INTRA.REPUL.0>
0

>  <SCORE.INTRA.SOLV>
0

>  <SCORE.INTRA.SOLV.lig_0>
-4.1818

>  <SCORE.INTRA.VDW>
0

>  <SCORE.INTRA.VDW.0>
0

>  <SCORE.INTRA.norm>
0

>  <SCORE.RESTR>
0

>  <SCORE.RESTR.CAVITY>
0

>  <SCORE.RESTR.norm>
0

>  <SCORE.SYSTEM>
0

>  <SCORE.SYSTEM.CONST>
0

>  <SCORE.SYSTEM.DIHEDRAL>
0

>  <SCORE.SYSTEM.SOLV>
0

>  <SCORE.SYSTEM.norm>
0

>  <SCORE.heavy>
10

>  <SCORE.norm>
-2.3779

>  <RMSD>
3.148

$$$$
ligand
 OpenBabel11021811503D
libRbt.so/2013.1/901 2013/11/27
 10 11  0  0  0  0  0  0  0  0999 V2000
   17.5963   -0.7083    2.7742 N   0  0  0  0  0  0  0  0  0  0  0  0
   16.4992   -0.9117    3.4795 C   0  0  0  0  0  0  0  0  0  0  0  0
   16.1790   -2.2114    3.8857 N   0  0  0  0  0  0  0  0  0  0  0  0
   16.9757   -3.2334    3.5439 C   0  0  0  0  0  0  0  0  0  0  0  0
   18.0774   -3.0229    2.8274 C   0  0  0  0  0  0  0  0  0  0  0  0
   18.4151   -1.7938    2.4444 C   0  0  0  0  0  0  0  0  0  0  0  0
   19.4481   -1.5976    1.8063 O   0  0  0  0  0  0  0  0  0  0  0  0
   18.6282   -4.2065    2.5722 N   0  0  0  0  0  0  0  0  0  0  0  0
   17.8741   -5.1468    3.1329 C   0  0  0  0  0  0  0  0  0  0  0  0
   16.8567   -4.5424    3.7401 N   0  0  0  0  0  0  0  0  0  0  0  0
  1  2  1  0  0  0  0
  1  6  1  0  0  0  0
  2  3  2  0  0  0  0
  3  4  1  0  0  0  0
  4  5  2  0  0  0  0
  4 10  1  0  0  0  0
  5  6  1  0  0  0  0
  5  8  1  0  0  0  0
  6  7  2  0  0  0  0
  8  9  1  0  0  0  0
  9 10  2  0  0  0  0
M  END
>  <CHROM.1>
17.68859000,-2.71391114,2.99741773,1.46089595,0.54836646,-0.11981355

>  <Name>
ligand

>  <RI>
0

>  <Rbt.Current_Directory>
/home/itssahil/PROJECTS/Mol_Feturizer/New_Systems/rnas/4NYD

>  <Rbt.Executable>
rbdock ($Id: //depot/dev/client3/rdock/2013.1/src/exe/rbdock.cxx#4 $)

>  <Rbt.Library>
libRbt.so (2013.1, Build901 2013/11/27)

>  <Rbt.Parameter_File>
/export/apps/rDock/src/rDock_2013.1_src/data/scripts/dock_solv.prm

>  <Rbt.Receptor>
prm/pocket_docking_4.prm

>  <SCORE>
-23.7943

>  <SCORE.INTER>
-23.7943

>  <SCORE.INTER.CONST>
1

>  <SCORE.INTER.POLAR>
0

>  <SCORE.INTER.ROT>
0

>  <SCORE.INTER.SOLV>
3.44608

>  <SCORE.INTER.VDW>
-20.6116

>  <SCORE.INTER.norm>
-2.37943

>  <SCORE.INTRA>
0

>  <SCORE.INTRA.DIHEDRAL>
0

>  <SCORE.INTRA.DIHEDRAL.0>
0

>  <SCORE.INTRA.POLAR>
0

>  <SCORE.INTRA.POLAR.0>
0

>  <SCORE.INTRA.REPUL>
0

>  <SCORE.INTRA.REPUL.0>
0

>  <SCORE.INTRA.SOLV>
0

>  <SCORE.INTRA.SOLV.lig_0>
-4.1818

>  <SCORE.INTRA.VDW>
0

>  <SCORE.INTRA.VDW.0>
0

>  <SCORE.INTRA.norm>
0

>  <SCORE.RESTR>
0

>  <SCORE.RESTR.CAVITY>
0

>  <SCORE.RESTR.norm>
0

>  <SCORE.SYSTEM>
0

>  <SCORE.SYSTEM.CONST>
0

>  <SCORE.SYSTEM.DIHEDRAL>
0

>  <SCORE.SYSTEM.SOLV>
0

>  <SCORE.SYSTEM.norm>
0

>  <SCORE.heavy>
10

>  <SCORE.norm>
-2.37943

>  <RMSD>
3.148

$$$$
ligand
 OpenBabel11021811503D
libRbt.so/2013.1/901 2013/11/27
 10 11  0  0  0  0  0  0  0  0999 V2000
   17.6662   -0.6640    2.7566 N   0  0  0  0  0  0  0  0  0  0  0  0
   16.5662   -0.8158    3.4703 C   0  0  0  0  0  0  0  0  0  0  0  0
   16.2008   -2.0964    3.8987 N   0  0  0  0  0  0  0  0  0  0  0  0
   16.9579   -3.1521    3.5696 C   0  0  0  0  0  0  0  0  0  0  0  0
   18.0628   -2.9934    2.8446 C   0  0  0  0  0  0  0  0  0  0  0  0
   18.4431   -1.7837    2.4405 C   0  0  0  0  0  0  0  0  0  0  0  0
   19.4791   -1.6356    1.7944 O   0  0  0  0  0  0  0  0  0  0  0  0
   18.5686   -4.2003    2.6059 N   0  0  0  0  0  0  0  0  0  0  0  0
   17.7836   -5.1033    3.1851 C   0  0  0  0  0  0  0  0  0  0  0  0
   16.7922   -4.4527    3.7873 N   0  0  0  0  0  0  0  0  0  0  0  0
  1  2  1  0  0  0  0
  1  6  1  0  0  0  0
  2  3  2  0  0  0  0
  3  4  1  0  0  0  0
  4  5  2  0  0  0  0
  4 10  1  0  0  0  0
  5  6  1  0  0  0  0
  5  8  1  0  0  0  0
  6  7  2  0  0  0  0
  8  9  1  0  0  0  0
  9 10  2  0  0  0  0
M  END
>  <CHROM.1>
17.68637502,-2.66778240,3.01153999,1.41889692,0.55759091,-0.11367692

>  <Name>
ligand

>  <RI>
0

>  <Rbt.Current_Directory>
/home/itssahil/PROJECTS/Mol_Feturizer/New_Systems/rnas/4NYD

>  <Rbt.Executable>
rbdock ($Id: //depot/dev/client3/rdock/2013.1/src/exe/rbdock.cxx#4 $)

>  <Rbt.Library>
libRbt.so (2013.1, Build901 2013/11/27)

>  <Rbt.Parameter_File>
/export/apps/rDock/src/rDock_2013.1_src/data/scripts/dock_solv.prm

>  <Rbt.Receptor>
prm/pocket_docking_5.prm

>  <SCORE>
-23.7808

>  <SCORE.INTER>
-23.7808

>  <SCORE.INTER.CONST>
1

>  <SCORE.INTER.POLAR>
0

>  <SCORE.INTER.ROT>
0

>  <SCORE.INTER.SOLV>
3.47568

>  <SCORE.INTER.VDW>
-20.6124

>  <SCORE.INTER.norm>
-2.37808

>  <SCORE.INTRA>
0

>  <SCORE.INTRA.DIHEDRAL>
0

>  <SCORE.INTRA.DIHEDRAL.0>
0

>  <SCORE.INTRA.POLAR>
0

>  <SCORE.INTRA.POLAR.0>
0

>  <SCORE.INTRA.REPUL>
0

>  <SCORE.INTRA.REPUL.0>
0

>  <SCORE.INTRA.SOLV>
0

>  <SCORE.INTRA.SOLV.lig_0>
-4.1818

>  <SCORE.INTRA.VDW>
0

>  <SCORE.INTRA.VDW.0>
0

>  <SCORE.INTRA.norm>
0

>  <SCORE.RESTR>
0

>  <SCORE.RESTR.CAVITY>
0

>  <SCORE.RESTR.norm>
0

>  <SCORE.SYSTEM>
0

>  <SCORE.SYSTEM.CONST>
0

>  <SCORE.SYSTEM.DIHEDRAL>
0

>  <SCORE.SYSTEM.SOLV>
0

>  <SCORE.SYSTEM.norm>
0

>  <SCORE.heavy>
10

>  <SCORE.norm>
-2.37808

>  <RMSD>
3.148

$$$$
ligand
 OpenBabel11021811503D
libRbt.so/2013.1/901 2013/11/27
 10 11  0  0  0  0  0  0  0  0999 V2000
   17.6661   -0.6419    2.7063 N   0  0  0  0  0  0  0  0  0  0  0  0
   16.5601   -0.7803    3.4133 C   0  0  0  0  0  0  0  0  0  0  0  0
   16.1879   -2.0534    3.8580 N   0  0  0  0  0  0  0  0  0  0  0  0
   16.9449   -3.1158    3.5508 C   0  0  0  0  0  0  0  0  0  0  0  0
   18.0559   -2.9708    2.8324 C   0  0  0  0  0  0  0  0  0  0  0  0
   18.4426   -1.7683    2.4132 C   0  0  0  0  0  0  0  0  0  0  0  0
   19.4841   -1.6324    1.7733 O   0  0  0  0  0  0  0  0  0  0  0  0
   18.5604   -4.1824    2.6158 N   0  0  0  0  0  0  0  0  0  0  0  0
   17.7685   -5.0747    3.2022 C   0  0  0  0  0  0  0  0  0  0  0  0
   16.7741   -4.4125    3.7866 N   0  0  0  0  0  0  0  0  0  0  0  0
  1  2  1  0  0  0  0
  1  6  1  0  0  0  0
  2  3  2  0  0  0  0
  3  4  1  0  0  0  0
  4  5  2  0  0  0  0
  4 10  1  0  0  0  0
  5  6  1  0  0  0  0
  5  8  1  0  0  0  0
  6  7  2  0  0  0  0
  8  9  1  0  0  0  0
  9 10  2  0  0  0  0
M  END
>  <CHROM.1>
17.67901694,-2.64175170,2.99136043,1.41478929,0.54997967,-0.12653021

>  <Name>
ligand

>  <RI>
0

>  <Rbt.Current_Directory>
/home/itssahil/PROJECTS/Mol_Feturizer/New_Systems/rnas/4NYD

>  <Rbt.Executable>
rbdock ($Id: //depot/dev/client3/rdock/2013.1/src/exe/rbdock.cxx#4 $)

>  <Rbt.Library>
libRbt.so (2013.1, Build901 2013/11/27)

>  <Rbt.Parameter_File>
/export/apps/rDock/src/rDock_2013.1_src/data/scripts/dock_solv.prm

>  <Rbt.Receptor>
prm/pocket_docking_6.prm

>  <SCORE>
-23.7755

>  <SCORE.INTER>
-23.7755

>  <SCORE.INTER.CONST>
1

>  <SCORE.INTER.POLAR>
0

>  <SCORE.INTER.ROT>
0

>  <SCORE.INTER.SOLV>
3.4453

>  <SCORE.INTER.VDW>
-20.5987

>  <SCORE.INTER.norm>
-2.37755

>  <SCORE.INTRA>
0

>  <SCORE.INTRA.DIHEDRAL>
0

>  <SCORE.INTRA.DIHEDRAL.0>
0

>  <SCORE.INTRA.POLAR>
0

>  <SCORE.INTRA.POLAR.0>
0

>  <SCORE.INTRA.REPUL>
0

>  <SCORE.INTRA.REPUL.0>
0

>  <SCORE.INTRA.SOLV>
0

>  <SCORE.INTRA.SOLV.lig_0>
-4.1818

>  <SCORE.INTRA.VDW>
0

>  <SCORE.INTRA.VDW.0>
0

>  <SCORE.INTRA.norm>
0

>  <SCORE.RESTR>
0

>  <SCORE.RESTR.CAVITY>
0

>  <SCORE.RESTR.norm>
0

>  <SCORE.SYSTEM>
0

>  <SCORE.SYSTEM.CONST>
0

>  <SCORE.SYSTEM.DIHEDRAL>
0

>  <SCORE.SYSTEM.SOLV>
0

>  <SCORE.SYSTEM.norm>
0

>  <SCORE.heavy>
10

>  <SCORE.norm>
-2.37755

>  <RMSD>
3.148

$$$$
ligand
 OpenBabel11021811503D
libRbt.so/2013.1/901 2013/11/27
 10 11  0  0  0  0  0  0  0  0999 V2000
   17.5520   -0.7375    2.8493 N   0  0  0  0  0  0  0  0  0  0  0  0
   16.4922   -0.9955    3.5926 C   0  0  0  0  0  0  0  0  0  0  0  0
   16.2365   -2.3140    3.9841 N   0  0  0  0  0  0  0  0  0  0  0  0
   17.0562   -3.2984    3.5903 C   0  0  0  0  0  0  0  0  0  0  0  0
   18.1199   -3.0328    2.8358 C   0  0  0  0  0  0  0  0  0  0  0  0
   18.3965   -1.7848    2.4654 C   0  0  0  0  0  0  0  0  0  0  0  0
   19.3953   -1.5376    1.7916 O   0  0  0  0  0  0  0  0  0  0  0  0
   18.7034   -4.1897    2.5350 N   0  0  0  0  0  0  0  0  0  0  0  0
   18.0074   -5.1683    3.1051 C   0  0  0  0  0  0  0  0  0  0  0  0
   16.9935   -4.6146    3.7639 N   0  0  0  0  0  0  0  0  0  0  0  0
  1  2  1  0  0  0  0
  1  6  1  0  0  0  0
  2  3  2  0  0  0  0
  3  4  1  0  0  0  0
  4  5  2  0  0  0  0
  4 10  1  0  0  0  0
  5  6  1  0  0  0  0
  5  8  1  0  0  0  0
  6  7  2  0  0  0  0
  8  9  1  0  0  0  0
  9 10  2  0  0  0  0
M  END
>  <CHROM.1>
17.72705845,-2.74207163,3.02727708,1.51048739,0.58296911,-0.12645652

>  <Name>
ligand

>  <RI>
0

>  <Rbt.Current_Directory>
/home/itssahil/PROJECTS/Mol_Feturizer/New_Systems/rnas/4NYD

>  <Rbt.Executable>
rbdock ($Id: //depot/dev/client3/rdock/2013.1/src/exe/rbdock.cxx#4 $)

>  <Rbt.Library>
libRbt.so (2013.1, Build901 2013/11/27)

>  <Rbt.Parameter_File>
/export/apps/rDock/src/rDock_2013.1_src/data/scripts/dock_solv.prm

>  <Rbt.Receptor>
prm/pocket_docking_7.prm

>  <SCORE>
-23.7963

>  <SCORE.INTER>
-23.7963

>  <SCORE.INTER.CONST>
1

>  <SCORE.INTER.POLAR>
0

>  <SCORE.INTER.ROT>
0

>  <SCORE.INTER.SOLV>
3.48017

>  <SCORE.INTER.VDW>
-20.6243

>  <SCORE.INTER.norm>
-2.37963

>  <SCORE.INTRA>
0

>  <SCORE.INTRA.DIHEDRAL>
0

>  <SCORE.INTRA.DIHEDRAL.0>
0

>  <SCORE.INTRA.POLAR>
0

>  <SCORE.INTRA.POLAR.0>
0

>  <SCORE.INTRA.REPUL>
0

>  <SCORE.INTRA.REPUL.0>
0

>  <SCORE.INTRA.SOLV>
0

>  <SCORE.INTRA.SOLV.lig_0>
-4.1818

>  <SCORE.INTRA.VDW>
0

>  <SCORE.INTRA.VDW.0>
0

>  <SCORE.INTRA.norm>
0

>  <SCORE.RESTR>
0

>  <SCORE.RESTR.CAVITY>
0

>  <SCORE.RESTR.norm>
0

>  <SCORE.SYSTEM>
0

>  <SCORE.SYSTEM.CONST>
0

>  <SCORE.SYSTEM.DIHEDRAL>
0

>  <SCORE.SYSTEM.SOLV>
0

>  <SCORE.SYSTEM.norm>
0

>  <SCORE.heavy>
10

>  <SCORE.norm>
-2.37963

>  <RMSD>
3.148

$$$$
ligand
 OpenBabel11021811503D
libRbt.so/2013.1/901 2013/11/27
 10 11  0  0  0  0  0  0  0  0999 V2000
   17.6203   -0.6898    2.8049 N   0  0  0  0  0  0  0  0  0  0  0  0
   16.5080   -0.8895    3.4871 C   0  0  0  0  0  0  0  0  0  0  0  0
   16.1725   -2.1889    3.8821 N   0  0  0  0  0  0  0  0  0  0  0  0
   16.9705   -3.2140    3.5530 C   0  0  0  0  0  0  0  0  0  0  0  0
   18.0877   -3.0071    2.8598 C   0  0  0  0  0  0  0  0  0  0  0  0
   18.4398   -1.7786    2.4881 C   0  0  0  0  0  0  0  0  0  0  0  0
   19.4865   -1.5860    1.8718 O   0  0  0  0  0  0  0  0  0  0  0  0
   18.6371   -4.1929    2.6118 N   0  0  0  0  0  0  0  0  0  0  0  0
   17.8667   -5.1309    3.1536 C   0  0  0  0  0  0  0  0  0  0  0  0
   16.8404   -4.5231    3.7422 N   0  0  0  0  0  0  0  0  0  0  0  0
  1  2  1  0  0  0  0
  1  6  1  0  0  0  0
  2  3  2  0  0  0  0
  3  4  1  0  0  0  0
  4  5  2  0  0  0  0
  4 10  1  0  0  0  0
  5  6  1  0  0  0  0
  5  8  1  0  0  0  0
  6  7  2  0  0  0  0
  8  9  1  0  0  0  0
  9 10  2  0  0  0  0
M  END
>  <CHROM.1>
17.69714258,-2.69662438,3.02297068,1.45183129,0.52879236,-0.11171664

>  <Name>
ligand

>  <RI>
0

>  <Rbt.Current_Directory>
/home/itssahil/PROJECTS/Mol_Feturizer/New_Systems/rnas/4NYD

>  <Rbt.Executable>
rbdock ($Id: //depot/dev/client3/rdock/2013.1/src/exe/rbdock.cxx#4 $)

>  <Rbt.Library>
libRbt.so (2013.1, Build901 2013/11/27)

>  <Rbt.Parameter_File>
/export/apps/rDock/src/rDock_2013.1_src/data/scripts/dock_solv.prm

>  <Rbt.Receptor>
prm/pocket_docking_7.prm

>  <SCORE>
-23.7757

>  <SCORE.INTER>
-23.7757

>  <SCORE.INTER.CONST>
1

>  <SCORE.INTER.POLAR>
0

>  <SCORE.INTER.ROT>
0

>  <SCORE.INTER.SOLV>
3.46888

>  <SCORE.INTER.VDW>
-20.6067

>  <SCORE.INTER.norm>
-2.37757

>  <SCORE.INTRA>
0

>  <SCORE.INTRA.DIHEDRAL>
0

>  <SCORE.INTRA.DIHEDRAL.0>
0

>  <SCORE.INTRA.POLAR>
0

>  <SCORE.INTRA.POLAR.0>
0

>  <SCORE.INTRA.REPUL>
0

>  <SCORE.INTRA.REPUL.0>
0

>  <SCORE.INTRA.SOLV>
0

>  <SCORE.INTRA.SOLV.lig_0>
-4.1818

>  <SCORE.INTRA.VDW>
0

>  <SCORE.INTRA.VDW.0>
0

>  <SCORE.INTRA.norm>
0

>  <SCORE.RESTR>
0

>  <SCORE.RESTR.CAVITY>
0

>  <SCORE.RESTR.norm>
0

>  <SCORE.SYSTEM>
0

>  <SCORE.SYSTEM.CONST>
0

>  <SCORE.SYSTEM.DIHEDRAL>
0

>  <SCORE.SYSTEM.SOLV>
0

>  <SCORE.SYSTEM.norm>
0

>  <SCORE.heavy>
10

>  <SCORE.norm>
-2.37757

>  <RMSD>
3.148

$$$$
ligand
 OpenBabel11021811503D
libRbt.so/2013.1/901 2013/11/27
 10 11  0  0  0  0  0  0  0  0999 V2000
   17.5990   -0.7005    2.8003 N   0  0  0  0  0  0  0  0  0  0  0  0
   16.5087   -0.9137    3.5131 C   0  0  0  0  0  0  0  0  0  0  0  0
   16.1978   -2.2176    3.9134 N   0  0  0  0  0  0  0  0  0  0  0  0
   16.9966   -3.2335    3.5584 C   0  0  0  0  0  0  0  0  0  0  0  0
   18.0914   -3.0131    2.8344 C   0  0  0  0  0  0  0  0  0  0  0  0
   18.4202   -1.7799    2.4568 C   0  0  0  0  0  0  0  0  0  0  0  0
   19.4470   -1.5746    1.8117 O   0  0  0  0  0  0  0  0  0  0  0  0
   18.6457   -4.1923    2.5671 N   0  0  0  0  0  0  0  0  0  0  0  0
   17.9006   -5.1398    3.1276 C   0  0  0  0  0  0  0  0  0  0  0  0
   16.8854   -4.5444    3.7470 N   0  0  0  0  0  0  0  0  0  0  0  0
  1  2  1  0  0  0  0
  1  6  1  0  0  0  0
  2  3  2  0  0  0  0
  3  4  1  0  0  0  0
  4  5  2  0  0  0  0
  4 10  1  0  0  0  0
  5  6  1  0  0  0  0
  5  8  1  0  0  0  0
  6  7  2  0  0  0  0
  8  9  1  0  0  0  0
  9 10  2  0  0  0  0
M  END
>  <CHROM.1>
17.70256386,-2.70707279,3.00963520,1.46753911,0.55585338,-0.11673936

>  <Name>
ligand

>  <RI>
0

>  <Rbt.Current_Directory>
/home/itssahil/PROJECTS/Mol_Feturizer/New_Systems/rnas/4NYD

>  <Rbt.Executable>
rbdock ($Id: //depot/dev/client3/rdock/2013.1/src/exe/rbdock.cxx#4 $)

>  <Rbt.Library>
libRbt.so (2013.1, Build901 2013/11/27)

>  <Rbt.Parameter_File>
/export/apps/rDock/src/rDock_2013.1_src/data/scripts/dock_solv.prm

>  <Rbt.Receptor>
prm/pocket_docking_8.prm

>  <SCORE>
-23.7845

>  <SCORE.INTER>
-23.7845

>  <SCORE.INTER.CONST>
1

>  <SCORE.INTER.POLAR>
0

>  <SCORE.INTER.ROT>
0

>  <SCORE.INTER.SOLV>
3.46038

>  <SCORE.INTER.VDW>
-20.6098

>  <SCORE.INTER.norm>
-2.37845

>  <SCORE.INTRA>
0

>  <SCORE.INTRA.DIHEDRAL>
0

>  <SCORE.INTRA.DIHEDRAL.0>
0

>  <SCORE.INTRA.POLAR>
0

>  <SCORE.INTRA.POLAR.0>
0

>  <SCORE.INTRA.REPUL>
0

>  <SCORE.INTRA.REPUL.0>
0

>  <SCORE.INTRA.SOLV>
0

>  <SCORE.INTRA.SOLV.lig_0>
-4.1818

>  <SCORE.INTRA.VDW>
0

>  <SCORE.INTRA.VDW.0>
0

>  <SCORE.INTRA.norm>
0

>  <SCORE.RESTR>
0

>  <SCORE.RESTR.CAVITY>
0

>  <SCORE.RESTR.norm>
0

>  <SCORE.SYSTEM>
0

>  <SCORE.SYSTEM.CONST>
0

>  <SCORE.SYSTEM.DIHEDRAL>
0

>  <SCORE.SYSTEM.SOLV>
0

>  <SCORE.SYSTEM.norm>
0

>  <SCORE.heavy>
10

>  <SCORE.norm>
-2.37845

>  <RMSD>
3.148

$$$$
ligand
 OpenBabel11021811503D
libRbt.so/2013.1/901 2013/11/27
 10 11  0  0  0  0  0  0  0  0999 V2000
   17.6736   -0.6609    2.7741 N   0  0  0  0  0  0  0  0  0  0  0  0
   16.5690   -0.8139    3.4803 C   0  0  0  0  0  0  0  0  0  0  0  0
   16.1990   -2.0956    3.9015 N   0  0  0  0  0  0  0  0  0  0  0  0
   16.9566   -3.1512    3.5728 C   0  0  0  0  0  0  0  0  0  0  0  0
   18.0661   -2.9913    2.8554 C   0  0  0  0  0  0  0  0  0  0  0  0
   18.4508   -1.7806    2.4583 C   0  0  0  0  0  0  0  0  0  0  0  0
   19.4910   -1.6316    1.8193 O   0  0  0  0  0  0  0  0  0  0  0  0
   18.5716   -4.1980    2.6151 N   0  0  0  0  0  0  0  0  0  0  0  0
   17.7817   -5.1021    3.1858 C   0  0  0  0  0  0  0  0  0  0  0  0
   16.7876   -4.4523    3.7844 N   0  0  0  0  0  0  0  0  0  0  0  0
  1  2  1  0  0  0  0
  1  6  1  0  0  0  0
  2  3  2  0  0  0  0
  3  4  1  0  0  0  0
  4  5  2  0  0  0  0
  4 10  1  0  0  0  0
  5  6  1  0  0  0  0
  5  8  1  0  0  0  0
  6  7  2  0  0  0  0
  8  9  1  0  0  0  0
  9 10  2  0  0  0  0
M  END
>  <CHROM.1>
17.68921291,-2.66577136,3.02123287,1.41631308,0.55160200,-0.10839563

>  <Name>
ligand

>  <RI>
0

>  <Rbt.Current_Directory>
/home/itssahil/PROJECTS/Mol_Feturizer/New_Systems/rnas/4NYD

>  <Rbt.Executable>
rbdock ($Id: //depot/dev/client3/rdock/2013.1/src/exe/rbdock.cxx#4 $)

>  <Rbt.Library>
libRbt.so (2013.1, Build901 2013/11/27)

>  <Rbt.Parameter_File>
/export/apps/rDock/src/rDock_2013.1_src/data/scripts/dock_solv.prm

>  <Rbt.Receptor>
prm/blind_docking_100.prm

>  <SCORE>
-23.7842

>  <SCORE.INTER>
-23.7842

>  <SCORE.INTER.CONST>
1

>  <SCORE.INTER.POLAR>
0

>  <SCORE.INTER.ROT>
0

>  <SCORE.INTER.SOLV>
3.48376

>  <SCORE.INTER.VDW>
-20.6174

>  <SCORE.INTER.norm>
-2.37842

>  <SCORE.INTRA>
0

>  <SCORE.INTRA.DIHEDRAL>
0

>  <SCORE.INTRA.DIHEDRAL.0>
0

>  <SCORE.INTRA.POLAR>
0

>  <SCORE.INTRA.POLAR.0>
0

>  <SCORE.INTRA.REPUL>
0

>  <SCORE.INTRA.REPUL.0>
0

>  <SCORE.INTRA.SOLV>
0

>  <SCORE.INTRA.SOLV.lig_0>
-4.1818

>  <SCORE.INTRA.VDW>
0

>  <SCORE.INTRA.VDW.0>
0

>  <SCORE.INTRA.norm>
0

>  <SCORE.RESTR>
0

>  <SCORE.RESTR.CAVITY>
0

>  <SCORE.RESTR.norm>
0

>  <SCORE.SYSTEM>
0

>  <SCORE.SYSTEM.CONST>
0

>  <SCORE.SYSTEM.DIHEDRAL>
0

>  <SCORE.SYSTEM.SOLV>
0

>  <SCORE.SYSTEM.norm>
0

>  <SCORE.heavy>
10

>  <SCORE.norm>
-2.37842

>  <RMSD>
3.149

$$$$
ligand
 OpenBabel11021811503D
libRbt.so/2013.1/901 2013/11/27
 10 11  0  0  0  0  0  0  0  0999 V2000
   17.6725   -0.6634    2.7808 N   0  0  0  0  0  0  0  0  0  0  0  0
   16.5657   -0.8184    3.4831 C   0  0  0  0  0  0  0  0  0  0  0  0
   16.1960   -2.1008    3.9021 N   0  0  0  0  0  0  0  0  0  0  0  0
   16.9560   -3.1552    3.5753 C   0  0  0  0  0  0  0  0  0  0  0  0
   18.0677   -2.9934    2.8617 C   0  0  0  0  0  0  0  0  0  0  0  0
   18.4521   -1.7819    2.4669 C   0  0  0  0  0  0  0  0  0  0  0  0
   19.4943   -1.6310    1.8315 O   0  0  0  0  0  0  0  0  0  0  0  0
   18.5756   -4.1992    2.6222 N   0  0  0  0  0  0  0  0  0  0  0  0
   17.7850   -5.1048    3.1896 C   0  0  0  0  0  0  0  0  0  0  0  0
   16.7880   -4.4567    3.7854 N   0  0  0  0  0  0  0  0  0  0  0  0
  1  2  1  0  0  0  0
  1  6  1  0  0  0  0
  2  3  2  0  0  0  0
  3  4  1  0  0  0  0
  4  5  2  0  0  0  0
  4 10  1  0  0  0  0
  5  6  1  0  0  0  0
  5  8  1  0  0  0  0
  6  7  2  0  0  0  0
  8  9  1  0  0  0  0
  9 10  2  0  0  0  0
M  END
>  <CHROM.1>
17.68984320,-2.66841676,3.02653353,1.41741965,0.54809730,-0.10825238

>  <Name>
ligand

>  <RI>
0

>  <Rbt.Current_Directory>
/home/itssahil/PROJECTS/Mol_Feturizer/New_Systems/rnas/4NYD

>  <Rbt.Executable>
rbdock ($Id: //depot/dev/client3/rdock/2013.1/src/exe/rbdock.cxx#4 $)

>  <Rbt.Library>
libRbt.so (2013.1, Build901 2013/11/27)

>  <Rbt.Parameter_File>
/export/apps/rDock/src/rDock_2013.1_src/data/scripts/dock_solv.prm

>  <Rbt.Receptor>
prm/pocket_docking_3.prm

>  <SCORE>
-23.7834

>  <SCORE.INTER>
-23.7834

>  <SCORE.INTER.CONST>
1

>  <SCORE.INTER.POLAR>
0

>  <SCORE.INTER.ROT>
0

>  <SCORE.INTER.SOLV>
3.48532

>  <SCORE.INTER.VDW>
-20.6174

>  <SCORE.INTER.norm>
-2.37834

>  <SCORE.INTRA>
0

>  <SCORE.INTRA.DIHEDRAL>
0

>  <SCORE.INTRA.DIHEDRAL.0>
0

>  <SCORE.INTRA.POLAR>
0

>  <SCORE.INTRA.POLAR.0>
0

>  <SCORE.INTRA.REPUL>
0

>  <SCORE.INTRA.REPUL.0>
0

>  <SCORE.INTRA.SOLV>
0

>  <SCORE.INTRA.SOLV.lig_0>
-4.1818

>  <SCORE.INTRA.VDW>
0

>  <SCORE.INTRA.VDW.0>
0

>  <SCORE.INTRA.norm>
0

>  <SCORE.RESTR>
0

>  <SCORE.RESTR.CAVITY>
0

>  <SCORE.RESTR.norm>
0

>  <SCORE.SYSTEM>
0

>  <SCORE.SYSTEM.CONST>
0

>  <SCORE.SYSTEM.DIHEDRAL>
0

>  <SCORE.SYSTEM.SOLV>
0

>  <SCORE.SYSTEM.norm>
0

>  <SCORE.heavy>
10

>  <SCORE.norm>
-2.37834

>  <RMSD>
3.149

$$$$
ligand
 OpenBabel11021811503D
libRbt.so/2013.1/901 2013/11/27
 10 11  0  0  0  0  0  0  0  0999 V2000
   17.6014   -0.7081    2.7846 N   0  0  0  0  0  0  0  0  0  0  0  0
   16.5005   -0.9104    3.4842 C   0  0  0  0  0  0  0  0  0  0  0  0
   16.1763   -2.2099    3.8879 N   0  0  0  0  0  0  0  0  0  0  0  0
   16.9733   -3.2328    3.5494 C   0  0  0  0  0  0  0  0  0  0  0  0
   18.0790   -3.0234    2.8387 C   0  0  0  0  0  0  0  0  0  0  0  0
   18.4204   -1.7945    2.4584 C   0  0  0  0  0  0  0  0  0  0  0  0
   19.4569   -1.5994    1.8257 O   0  0  0  0  0  0  0  0  0  0  0  0
   18.6294   -4.2076    2.5856 N   0  0  0  0  0  0  0  0  0  0  0  0
   17.8711   -5.1472    3.1418 C   0  0  0  0  0  0  0  0  0  0  0  0
   16.8514   -4.5418    3.7442 N   0  0  0  0  0  0  0  0  0  0  0  0
  1  2  1  0  0  0  0
  1  6  1  0  0  0  0
  2  3  2  0  0  0  0
  3  4  1  0  0  0  0
  4  5  2  0  0  0  0
  4 10  1  0  0  0  0
  5  6  1  0  0  0  0
  5  8  1  0  0  0  0
  6  7  2  0  0  0  0
  8  9  1  0  0  0  0
  9 10  2  0  0  0  0
M  END
>  <CHROM.1>
17.68971864,-2.71396288,3.00700325,1.45852045,0.54344566,-0.11791215

>  <Name>
ligand

>  <RI>
0

>  <Rbt.Current_Directory>
/home/itssahil/PROJECTS/Mol_Feturizer/New_Systems/rnas/4NYD

>  <Rbt.Executable>
rbdock ($Id: //depot/dev/client3/rdock/2013.1/src/exe/rbdock.cxx#4 $)

>  <Rbt.Library>
libRbt.so (2013.1, Build901 2013/11/27)

>  <Rbt.Parameter_File>
/export/apps/rDock/src/rDock_2013.1_src/data/scripts/dock_solv.prm

>  <Rbt.Receptor>
prm/pocket_docking_7.prm

>  <SCORE>
-23.7963

>  <SCORE.INTER>
-23.7963

>  <SCORE.INTER.CONST>
1

>  <SCORE.INTER.POLAR>
0

>  <SCORE.INTER.ROT>
0

>  <SCORE.INTER.SOLV>
3.45393

>  <SCORE.INTER.VDW>
-20.6155

>  <SCORE.INTER.norm>
-2.37963

>  <SCORE.INTRA>
0

>  <SCORE.INTRA.DIHEDRAL>
0

>  <SCORE.INTRA.DIHEDRAL.0>
0

>  <SCORE.INTRA.POLAR>
0

>  <SCORE.INTRA.POLAR.0>
0

>  <SCORE.INTRA.REPUL>
0

>  <SCORE.INTRA.REPUL.0>
0

>  <SCORE.INTRA.SOLV>
0

>  <SCORE.INTRA.SOLV.lig_0>
-4.1818

>  <SCORE.INTRA.VDW>
0

>  <SCORE.INTRA.VDW.0>
0

>  <SCORE.INTRA.norm>
0

>  <SCORE.RESTR>
0

>  <SCORE.RESTR.CAVITY>
0

>  <SCORE.RESTR.norm>
0

>  <SCORE.SYSTEM>
0

>  <SCORE.SYSTEM.CONST>
0

>  <SCORE.SYSTEM.DIHEDRAL>
0

>  <SCORE.SYSTEM.SOLV>
0

>  <SCORE.SYSTEM.norm>
0

>  <SCORE.heavy>
10

>  <SCORE.norm>
-2.37963

>  <RMSD>
3.149

$$$$
ligand
 OpenBabel11021811503D
libRbt.so/2013.1/901 2013/11/27
 10 11  0  0  0  0  0  0  0  0999 V2000
   17.6659   -0.6643    2.7642 N   0  0  0  0  0  0  0  0  0  0  0  0
   16.5640   -0.8179    3.4744 C   0  0  0  0  0  0  0  0  0  0  0  0
   16.1983   -2.0993    3.9003 N   0  0  0  0  0  0  0  0  0  0  0  0
   16.9572   -3.1540    3.5719 C   0  0  0  0  0  0  0  0  0  0  0  0
   18.0640   -2.9936    2.8504 C   0  0  0  0  0  0  0  0  0  0  0  0
   18.4445   -1.7831    2.4488 C   0  0  0  0  0  0  0  0  0  0  0  0
   19.4823   -1.6333    1.8060 O   0  0  0  0  0  0  0  0  0  0  0  0
   18.5714   -4.1997    2.6116 N   0  0  0  0  0  0  0  0  0  0  0  0
   17.7855   -5.1041    3.1873 C   0  0  0  0  0  0  0  0  0  0  0  0
   16.7919   -4.4550    3.7875 N   0  0  0  0  0  0  0  0  0  0  0  0
  1  2  1  0  0  0  0
  1  6  1  0  0  0  0
  2  3  2  0  0  0  0
  3  4  1  0  0  0  0
  4  5  2  0  0  0  0
  4 10  1  0  0  0  0
  5  6  1  0  0  0  0
  5  8  1  0  0  0  0
  6  7  2  0  0  0  0
  8  9  1  0  0  0  0
  9 10  2  0  0  0  0
M  END
>  <CHROM.1>
17.68686760,-2.66842957,3.01659685,1.41941932,0.55465327,-0.11269244

>  <Name>
ligand

>  <RI>
0

>  <Rbt.Current_Directory>
/home/itssahil/PROJECTS/Mol_Feturizer/New_Systems/rnas/4NYD

>  <Rbt.Executable>
rbdock ($Id: //depot/dev/client3/rdock/2013.1/src/exe/rbdock.cxx#4 $)

>  <Rbt.Library>
libRbt.so (2013.1, Build901 2013/11/27)

>  <Rbt.Parameter_File>
/export/apps/rDock/src/rDock_2013.1_src/data/scripts/dock_solv.prm

>  <Rbt.Receptor>
prm/pocket_docking_7.prm

>  <SCORE>
-23.7822

>  <SCORE.INTER>
-23.7822

>  <SCORE.INTER.CONST>
1

>  <SCORE.INTER.POLAR>
0

>  <SCORE.INTER.ROT>
0

>  <SCORE.INTER.SOLV>
3.4783

>  <SCORE.INTER.VDW>
-20.6142

>  <SCORE.INTER.norm>
-2.37822

>  <SCORE.INTRA>
0

>  <SCORE.INTRA.DIHEDRAL>
0

>  <SCORE.INTRA.DIHEDRAL.0>
0

>  <SCORE.INTRA.POLAR>
0

>  <SCORE.INTRA.POLAR.0>
0

>  <SCORE.INTRA.REPUL>
0

>  <SCORE.INTRA.REPUL.0>
0

>  <SCORE.INTRA.SOLV>
0

>  <SCORE.INTRA.SOLV.lig_0>
-4.1818

>  <SCORE.INTRA.VDW>
0

>  <SCORE.INTRA.VDW.0>
0

>  <SCORE.INTRA.norm>
0

>  <SCORE.RESTR>
0

>  <SCORE.RESTR.CAVITY>
0

>  <SCORE.RESTR.norm>
0

>  <SCORE.SYSTEM>
0

>  <SCORE.SYSTEM.CONST>
0

>  <SCORE.SYSTEM.DIHEDRAL>
0

>  <SCORE.SYSTEM.SOLV>
0

>  <SCORE.SYSTEM.norm>
0

>  <SCORE.heavy>
10

>  <SCORE.norm>
-2.37822

>  <RMSD>
3.149

$$$$
ligand
 OpenBabel11021811503D
libRbt.so/2013.1/901 2013/11/27
 10 11  0  0  0  0  0  0  0  0999 V2000
   17.7643   -0.5916    2.7848 N   0  0  0  0  0  0  0  0  0  0  0  0
   16.6211   -0.6942    3.4366 C   0  0  0  0  0  0  0  0  0  0  0  0
   16.1836   -1.9554    3.8549 N   0  0  0  0  0  0  0  0  0  0  0  0
   16.9170   -3.0424    3.5780 C   0  0  0  0  0  0  0  0  0  0  0  0
   18.0659   -2.9333    2.9151 C   0  0  0  0  0  0  0  0  0  0  0  0
   18.5143   -1.7432    2.5226 C   0  0  0  0  0  0  0  0  0  0  0  0
   19.5897   -1.6412    1.9347 O   0  0  0  0  0  0  0  0  0  0  0  0
   18.5378   -4.1608    2.7157 N   0  0  0  0  0  0  0  0  0  0  0  0
   17.6878   -5.0274    3.2575 C   0  0  0  0  0  0  0  0  0  0  0  0
   16.6898   -4.3334    3.7973 N   0  0  0  0  0  0  0  0  0  0  0  0
  1  2  1  0  0  0  0
  1  6  1  0  0  0  0
  2  3  2  0  0  0  0
  3  4  1  0  0  0  0
  4  5  2  0  0  0  0
  4 10  1  0  0  0  0
  5  6  1  0  0  0  0
  5  8  1  0  0  0  0
  6  7  2  0  0  0  0
  8  9  1  0  0  0  0
  9 10  2  0  0  0  0
M  END
>  <CHROM.1>
17.69353276,-2.59190948,3.05777174,1.36820500,0.50570140,-0.09768391

>  <Name>
ligand

>  <RI>
0

>  <Rbt.Current_Directory>
/home/itssahil/PROJECTS/Mol_Feturizer/New_Systems/rnas/4NYD

>  <Rbt.Executable>
rbdock ($Id: //depot/dev/client3/rdock/2013.1/src/exe/rbdock.cxx#4 $)

>  <Rbt.Library>
libRbt.so (2013.1, Build901 2013/11/27)

>  <Rbt.Parameter_File>
/export/apps/rDock/src/rDock_2013.1_src/data/scripts/dock_solv.prm

>  <Rbt.Receptor>
prm/pocket_docking_8.prm

>  <SCORE>
-23.7414

>  <SCORE.INTER>
-23.7414

>  <SCORE.INTER.CONST>
1

>  <SCORE.INTER.POLAR>
0

>  <SCORE.INTER.ROT>
0

>  <SCORE.INTER.SOLV>
3.51981

>  <SCORE.INTER.VDW>
-20.6009

>  <SCORE.INTER.norm>
-2.37414

>  <SCORE.INTRA>
0

>  <SCORE.INTRA.DIHEDRAL>
0

>  <SCORE.INTRA.DIHEDRAL.0>
0

>  <SCORE.INTRA.POLAR>
0

>  <SCORE.INTRA.POLAR.0>
0

>  <SCORE.INTRA.REPUL>
0

>  <SCORE.INTRA.REPUL.0>
0

>  <SCORE.INTRA.SOLV>
0

>  <SCORE.INTRA.SOLV.lig_0>
-4.1818

>  <SCORE.INTRA.VDW>
0

>  <SCORE.INTRA.VDW.0>
0

>  <SCORE.INTRA.norm>
0

>  <SCORE.RESTR>
0

>  <SCORE.RESTR.CAVITY>
0

>  <SCORE.RESTR.norm>
0

>  <SCORE.SYSTEM>
0

>  <SCORE.SYSTEM.CONST>
0

>  <SCORE.SYSTEM.DIHEDRAL>
0

>  <SCORE.SYSTEM.SOLV>
0

>  <SCORE.SYSTEM.norm>
0

>  <SCORE.heavy>
10

>  <SCORE.norm>
-2.37414

>  <RMSD>
3.149

$$$$
ligand
 OpenBabel11021811503D
libRbt.so/2013.1/901 2013/11/27
 10 11  0  0  0  0  0  0  0  0999 V2000
   17.6603   -0.6693    2.7774 N   0  0  0  0  0  0  0  0  0  0  0  0
   16.5516   -0.8282    3.4758 C   0  0  0  0  0  0  0  0  0  0  0  0
   16.1877   -2.1112    3.8981 N   0  0  0  0  0  0  0  0  0  0  0  0
   16.9553   -3.1623    3.5783 C   0  0  0  0  0  0  0  0  0  0  0  0
   18.0689   -2.9966    2.8686 C   0  0  0  0  0  0  0  0  0  0  0  0
   18.4478   -1.7844    2.4708 C   0  0  0  0  0  0  0  0  0  0  0  0
   19.4917   -1.6297    1.8390 O   0  0  0  0  0  0  0  0  0  0  0  0
   18.5848   -4.2003    2.6357 N   0  0  0  0  0  0  0  0  0  0  0  0
   17.7972   -5.1084    3.2033 C   0  0  0  0  0  0  0  0  0  0  0  0
   16.7940   -4.4640    3.7926 N   0  0  0  0  0  0  0  0  0  0  0  0
  1  2  1  0  0  0  0
  1  6  1  0  0  0  0
  2  3  2  0  0  0  0
  3  4  1  0  0  0  0
  4  5  2  0  0  0  0
  4 10  1  0  0  0  0
  5  6  1  0  0  0  0
  5  8  1  0  0  0  0
  6  7  2  0  0  0  0
  8  9  1  0  0  0  0
  9 10  2  0  0  0  0
M  END
>  <CHROM.1>
17.68844778,-2.67327312,3.03068603,1.42370320,0.54344605,-0.11524843

>  <Name>
ligand

>  <RI>
0

>  <Rbt.Current_Directory>
/home/itssahil/PROJECTS/Mol_Feturizer/New_Systems/rnas/4NYD

>  <Rbt.Executable>
rbdock ($Id: //depot/dev/client3/rdock/2013.1/src/exe/rbdock.cxx#4 $)

>  <Rbt.Library>
libRbt.so (2013.1, Build901 2013/11/27)

>  <Rbt.Parameter_File>
/export/apps/rDock/src/rDock_2013.1_src/data/scripts/dock_solv.prm

>  <Rbt.Receptor>
prm/blind_docking_100.prm

>  <SCORE>
-23.7778

>  <SCORE.INTER>
-23.7778

>  <SCORE.INTER.CONST>
1

>  <SCORE.INTER.POLAR>
0

>  <SCORE.INTER.ROT>
0

>  <SCORE.INTER.SOLV>
3.47861

>  <SCORE.INTER.VDW>
-20.6114

>  <SCORE.INTER.norm>
-2.37778

>  <SCORE.INTRA>
0

>  <SCORE.INTRA.DIHEDRAL>
0

>  <SCORE.INTRA.DIHEDRAL.0>
0

>  <SCORE.INTRA.POLAR>
0

>  <SCORE.INTRA.POLAR.0>
0

>  <SCORE.INTRA.REPUL>
0

>  <SCORE.INTRA.REPUL.0>
0

>  <SCORE.INTRA.SOLV>
0

>  <SCORE.INTRA.SOLV.lig_0>
-4.1818

>  <SCORE.INTRA.VDW>
0

>  <SCORE.INTRA.VDW.0>
0

>  <SCORE.INTRA.norm>
0

>  <SCORE.RESTR>
0

>  <SCORE.RESTR.CAVITY>
0

>  <SCORE.RESTR.norm>
0

>  <SCORE.SYSTEM>
0

>  <SCORE.SYSTEM.CONST>
0

>  <SCORE.SYSTEM.DIHEDRAL>
0

>  <SCORE.SYSTEM.SOLV>
0

>  <SCORE.SYSTEM.norm>
0

>  <SCORE.heavy>
10

>  <SCORE.norm>
-2.37778

>  <RMSD>
3.150

$$$$
ligand
 OpenBabel11021811503D
libRbt.so/2013.1/901 2013/11/27
 10 11  0  0  0  0  0  0  0  0999 V2000
   17.5372   -0.7408    2.8277 N   0  0  0  0  0  0  0  0  0  0  0  0
   16.4853   -0.9982    3.5824 C   0  0  0  0  0  0  0  0  0  0  0  0
   16.2366   -2.3156    3.9818 N   0  0  0  0  0  0  0  0  0  0  0  0
   17.0547   -3.2998    3.5841 C   0  0  0  0  0  0  0  0  0  0  0  0
   18.1104   -3.0348    2.8181 C   0  0  0  0  0  0  0  0  0  0  0  0
   18.3804   -1.7877    2.4399 C   0  0  0  0  0  0  0  0  0  0  0  0
   19.3720   -1.5409    1.7553 O   0  0  0  0  0  0  0  0  0  0  0  0
   18.6937   -4.1916    2.5163 N   0  0  0  0  0  0  0  0  0  0  0  0
   18.0057   -5.1695    3.0973 C   0  0  0  0  0  0  0  0  0  0  0  0
   16.9969   -4.6153    3.7637 N   0  0  0  0  0  0  0  0  0  0  0  0
  1  2  1  0  0  0  0
  1  6  1  0  0  0  0
  2  3  2  0  0  0  0
  3  4  1  0  0  0  0
  4  5  2  0  0  0  0
  4 10  1  0  0  0  0
  5  6  1  0  0  0  0
  5  8  1  0  0  0  0
  6  7  2  0  0  0  0
  8  9  1  0  0  0  0
  9 10  2  0  0  0  0
M  END
>  <CHROM.1>
17.71874170,-2.74420130,3.01220167,1.51483645,0.59236631,-0.13300663

>  <Name>
ligand

>  <RI>
0

>  <Rbt.Current_Directory>
/home/itssahil/PROJECTS/Mol_Feturizer/New_Systems/rnas/4NYD

>  <Rbt.Executable>
rbdock ($Id: //depot/dev/client3/rdock/2013.1/src/exe/rbdock.cxx#4 $)

>  <Rbt.Library>
libRbt.so (2013.1, Build901 2013/11/27)

>  <Rbt.Parameter_File>
/export/apps/rDock/src/rDock_2013.1_src/data/scripts/dock_solv.prm

>  <Rbt.Receptor>
prm/blind_docking_80.prm

>  <SCORE>
-23.7921

>  <SCORE.INTER>
-23.7921

>  <SCORE.INTER.CONST>
1

>  <SCORE.INTER.POLAR>
0

>  <SCORE.INTER.ROT>
0

>  <SCORE.INTER.SOLV>
3.46722

>  <SCORE.INTER.VDW>
-20.6171

>  <SCORE.INTER.norm>
-2.37921

>  <SCORE.INTRA>
0

>  <SCORE.INTRA.DIHEDRAL>
0

>  <SCORE.INTRA.DIHEDRAL.0>
0

>  <SCORE.INTRA.POLAR>
0

>  <SCORE.INTRA.POLAR.0>
0

>  <SCORE.INTRA.REPUL>
0

>  <SCORE.INTRA.REPUL.0>
0

>  <SCORE.INTRA.SOLV>
0

>  <SCORE.INTRA.SOLV.lig_0>
-4.1818

>  <SCORE.INTRA.VDW>
0

>  <SCORE.INTRA.VDW.0>
0

>  <SCORE.INTRA.norm>
0

>  <SCORE.RESTR>
0

>  <SCORE.RESTR.CAVITY>
0

>  <SCORE.RESTR.norm>
0

>  <SCORE.SYSTEM>
0

>  <SCORE.SYSTEM.CONST>
0

>  <SCORE.SYSTEM.DIHEDRAL>
0

>  <SCORE.SYSTEM.SOLV>
0

>  <SCORE.SYSTEM.norm>
0

>  <SCORE.heavy>
10

>  <SCORE.norm>
-2.37921

>  <RMSD>
3.150

$$$$
ligand
 OpenBabel11021811503D
libRbt.so/2013.1/901 2013/11/27
 10 11  0  0  0  0  0  0  0  0999 V2000
   17.6553   -0.6612    2.7670 N   0  0  0  0  0  0  0  0  0  0  0  0
   16.5530   -0.8219    3.4752 C   0  0  0  0  0  0  0  0  0  0  0  0
   16.1935   -2.1060    3.8981 N   0  0  0  0  0  0  0  0  0  0  0  0
   16.9584   -3.1561    3.5691 C   0  0  0  0  0  0  0  0  0  0  0  0
   18.0655   -2.9885    2.8496 C   0  0  0  0  0  0  0  0  0  0  0  0
   18.4403   -1.7753    2.4509 C   0  0  0  0  0  0  0  0  0  0  0  0
   19.4783   -1.6189    1.8100 O   0  0  0  0  0  0  0  0  0  0  0  0
   18.5797   -4.1915    2.6094 N   0  0  0  0  0  0  0  0  0  0  0  0
   17.7976   -5.1011    3.1823 C   0  0  0  0  0  0  0  0  0  0  0  0
   16.7996   -4.4583    3.7820 N   0  0  0  0  0  0  0  0  0  0  0  0
  1  2  1  0  0  0  0
  1  6  1  0  0  0  0
  2  3  2  0  0  0  0
  3  4  1  0  0  0  0
  4  5  2  0  0  0  0
  4 10  1  0  0  0  0
  5  6  1  0  0  0  0
  5  8  1  0  0  0  0
  6  7  2  0  0  0  0
  8  9  1  0  0  0  0
  9 10  2  0  0  0  0
M  END
>  <CHROM.1>
17.68642913,-2.66563987,3.01583865,1.42536064,0.55244344,-0.11398256

>  <Name>
ligand

>  <RI>
0

>  <Rbt.Current_Directory>
/home/itssahil/PROJECTS/Mol_Feturizer/New_Systems/rnas/4NYD

>  <Rbt.Executable>
rbdock ($Id: //depot/dev/client3/rdock/2013.1/src/exe/rbdock.cxx#4 $)

>  <Rbt.Library>
libRbt.so (2013.1, Build901 2013/11/27)

>  <Rbt.Parameter_File>
/export/apps/rDock/src/rDock_2013.1_src/data/scripts/dock_solv.prm

>  <Rbt.Receptor>
prm/pocket_docking_4.prm

>  <SCORE>
-23.7468

>  <SCORE.INTER>
-23.7468

>  <SCORE.INTER.CONST>
1

>  <SCORE.INTER.POLAR>
0

>  <SCORE.INTER.ROT>
0

>  <SCORE.INTER.SOLV>
3.47331

>  <SCORE.INTER.VDW>
-20.589

>  <SCORE.INTER.norm>
-2.37468

>  <SCORE.INTRA>
0

>  <SCORE.INTRA.DIHEDRAL>
0

>  <SCORE.INTRA.DIHEDRAL.0>
0

>  <SCORE.INTRA.POLAR>
0

>  <SCORE.INTRA.POLAR.0>
0

>  <SCORE.INTRA.REPUL>
0

>  <SCORE.INTRA.REPUL.0>
0

>  <SCORE.INTRA.SOLV>
0

>  <SCORE.INTRA.SOLV.lig_0>
-4.1818

>  <SCORE.INTRA.VDW>
0

>  <SCORE.INTRA.VDW.0>
0

>  <SCORE.INTRA.norm>
0

>  <SCORE.RESTR>
0

>  <SCORE.RESTR.CAVITY>
0

>  <SCORE.RESTR.norm>
0

>  <SCORE.SYSTEM>
0

>  <SCORE.SYSTEM.CONST>
0

>  <SCORE.SYSTEM.DIHEDRAL>
0

>  <SCORE.SYSTEM.SOLV>
0

>  <SCORE.SYSTEM.norm>
0

>  <SCORE.heavy>
10

>  <SCORE.norm>
-2.37468

>  <RMSD>
3.150

$$$$
ligand
 OpenBabel11021811503D
libRbt.so/2013.1/901 2013/11/27
 10 11  0  0  0  0  0  0  0  0999 V2000
   17.5389   -0.7438    2.8287 N   0  0  0  0  0  0  0  0  0  0  0  0
   16.4833   -0.9979    3.5794 C   0  0  0  0  0  0  0  0  0  0  0  0
   16.2315   -2.3138    3.9817 N   0  0  0  0  0  0  0  0  0  0  0  0
   17.0504   -3.3000    3.5908 C   0  0  0  0  0  0  0  0  0  0  0  0
   18.1098   -3.0385    2.8288 C   0  0  0  0  0  0  0  0  0  0  0  0
   18.3828   -1.7928    2.4480 C   0  0  0  0  0  0  0  0  0  0  0  0
   19.3777   -1.5491    1.7672 O   0  0  0  0  0  0  0  0  0  0  0  0
   18.6933   -4.1967    2.5333 N   0  0  0  0  0  0  0  0  0  0  0  0
   18.0016   -5.1721    3.1141 C   0  0  0  0  0  0  0  0  0  0  0  0
   16.9904   -4.6149    3.7742 N   0  0  0  0  0  0  0  0  0  0  0  0
  1  2  1  0  0  0  0
  1  6  1  0  0  0  0
  2  3  2  0  0  0  0
  3  4  1  0  0  0  0
  4  5  2  0  0  0  0
  4 10  1  0  0  0  0
  5  6  1  0  0  0  0
  5  8  1  0  0  0  0
  6  7  2  0  0  0  0
  8  9  1  0  0  0  0
  9 10  2  0  0  0  0
M  END
>  <CHROM.1>
17.71757564,-2.74683875,3.02022276,1.51288374,0.58799282,-0.13500867

>  <Name>
ligand

>  <RI>
0

>  <Rbt.Current_Directory>
/home/itssahil/PROJECTS/Mol_Feturizer/New_Systems/rnas/4NYD

>  <Rbt.Executable>
rbdock ($Id: //depot/dev/client3/rdock/2013.1/src/exe/rbdock.cxx#4 $)

>  <Rbt.Library>
libRbt.so (2013.1, Build901 2013/11/27)

>  <Rbt.Parameter_File>
/export/apps/rDock/src/rDock_2013.1_src/data/scripts/dock_solv.prm

>  <Rbt.Receptor>
prm/pocket_docking_4.prm

>  <SCORE>
-23.7892

>  <SCORE.INTER>
-23.7892

>  <SCORE.INTER.CONST>
1

>  <SCORE.INTER.POLAR>
0

>  <SCORE.INTER.ROT>
0

>  <SCORE.INTER.SOLV>
3.46895

>  <SCORE.INTER.VDW>
-20.6158

>  <SCORE.INTER.norm>
-2.37892

>  <SCORE.INTRA>
0

>  <SCORE.INTRA.DIHEDRAL>
0

>  <SCORE.INTRA.DIHEDRAL.0>
0

>  <SCORE.INTRA.POLAR>
0

>  <SCORE.INTRA.POLAR.0>
0

>  <SCORE.INTRA.REPUL>
0

>  <SCORE.INTRA.REPUL.0>
0

>  <SCORE.INTRA.SOLV>
0

>  <SCORE.INTRA.SOLV.lig_0>
-4.1818

>  <SCORE.INTRA.VDW>
0

>  <SCORE.INTRA.VDW.0>
0

>  <SCORE.INTRA.norm>
0

>  <SCORE.RESTR>
0

>  <SCORE.RESTR.CAVITY>
0

>  <SCORE.RESTR.norm>
0

>  <SCORE.SYSTEM>
0

>  <SCORE.SYSTEM.CONST>
0

>  <SCORE.SYSTEM.DIHEDRAL>
0

>  <SCORE.SYSTEM.SOLV>
0

>  <SCORE.SYSTEM.norm>
0

>  <SCORE.heavy>
10

>  <SCORE.norm>
-2.37892

>  <RMSD>
3.151

$$$$
ligand
 OpenBabel11021811503D
libRbt.so/2013.1/901 2013/11/27
 10 11  0  0  0  0  0  0  0  0999 V2000
   17.5896   -0.7173    2.7819 N   0  0  0  0  0  0  0  0  0  0  0  0
   16.4914   -0.9175    3.4865 C   0  0  0  0  0  0  0  0  0  0  0  0
   16.1705   -2.2153    3.8982 N   0  0  0  0  0  0  0  0  0  0  0  0
   16.9679   -3.2388    3.5624 C   0  0  0  0  0  0  0  0  0  0  0  0
   18.0707   -3.0316    2.8466 C   0  0  0  0  0  0  0  0  0  0  0  0
   18.4089   -1.8043    2.4585 C   0  0  0  0  0  0  0  0  0  0  0  0
   19.4429   -1.6110    1.8211 O   0  0  0  0  0  0  0  0  0  0  0  0
   18.6219   -4.2163    2.5979 N   0  0  0  0  0  0  0  0  0  0  0  0
   17.8670   -5.1540    3.1617 C   0  0  0  0  0  0  0  0  0  0  0  0
   16.8486   -4.5470    3.7645 N   0  0  0  0  0  0  0  0  0  0  0  0
  1  2  1  0  0  0  0
  1  6  1  0  0  0  0
  2  3  2  0  0  0  0
  3  4  1  0  0  0  0
  4  5  2  0  0  0  0
  4 10  1  0  0  0  0
  5  6  1  0  0  0  0
  5  8  1  0  0  0  0
  6  7  2  0  0  0  0
  8  9  1  0  0  0  0
  9 10  2  0  0  0  0
M  END
>  <CHROM.1>
17.68158510,-2.72184787,3.01463066,1.46071879,0.54680548,-0.12435755

>  <Name>
ligand

>  <RI>
0

>  <Rbt.Current_Directory>
/home/itssahil/PROJECTS/Mol_Feturizer/New_Systems/rnas/4NYD

>  <Rbt.Executable>
rbdock ($Id: //depot/dev/client3/rdock/2013.1/src/exe/rbdock.cxx#4 $)

>  <Rbt.Library>
libRbt.so (2013.1, Build901 2013/11/27)

>  <Rbt.Parameter_File>
/export/apps/rDock/src/rDock_2013.1_src/data/scripts/dock_solv.prm

>  <Rbt.Receptor>
prm/pocket_docking_3.prm

>  <SCORE>
-23.8075

>  <SCORE.INTER>
-23.8075

>  <SCORE.INTER.CONST>
1

>  <SCORE.INTER.POLAR>
0

>  <SCORE.INTER.ROT>
0

>  <SCORE.INTER.SOLV>
3.4568

>  <SCORE.INTER.VDW>
-20.624

>  <SCORE.INTER.norm>
-2.38075

>  <SCORE.INTRA>
0

>  <SCORE.INTRA.DIHEDRAL>
0

>  <SCORE.INTRA.DIHEDRAL.0>
0

>  <SCORE.INTRA.POLAR>
0

>  <SCORE.INTRA.POLAR.0>
0

>  <SCORE.INTRA.REPUL>
0

>  <SCORE.INTRA.REPUL.0>
0

>  <SCORE.INTRA.SOLV>
0

>  <SCORE.INTRA.SOLV.lig_0>
-4.1818

>  <SCORE.INTRA.VDW>
0

>  <SCORE.INTRA.VDW.0>
0

>  <SCORE.INTRA.norm>
0

>  <SCORE.RESTR>
0

>  <SCORE.RESTR.CAVITY>
0

>  <SCORE.RESTR.norm>
0

>  <SCORE.SYSTEM>
0

>  <SCORE.SYSTEM.CONST>
0

>  <SCORE.SYSTEM.DIHEDRAL>
0

>  <SCORE.SYSTEM.SOLV>
0

>  <SCORE.SYSTEM.norm>
0

>  <SCORE.heavy>
10

>  <SCORE.norm>
-2.38075

>  <RMSD>
3.152

$$$$
ligand
 OpenBabel11021811503D
libRbt.so/2013.1/901 2013/11/27
 10 11  0  0  0  0  0  0  0  0999 V2000
   17.5981   -0.7089    2.8113 N   0  0  0  0  0  0  0  0  0  0  0  0
   16.4938   -0.9139    3.5048 C   0  0  0  0  0  0  0  0  0  0  0  0
   16.1680   -2.2149    3.9024 N   0  0  0  0  0  0  0  0  0  0  0  0
   16.9670   -3.2364    3.5643 C   0  0  0  0  0  0  0  0  0  0  0  0
   18.0760   -3.0242    2.8597 C   0  0  0  0  0  0  0  0  0  0  0  0
   18.4189   -1.7939    2.4853 C   0  0  0  0  0  0  0  0  0  0  0  0
   19.4584   -1.5963    1.8583 O   0  0  0  0  0  0  0  0  0  0  0  0
   18.6279   -4.2074    2.6052 N   0  0  0  0  0  0  0  0  0  0  0  0
   17.8672   -5.1491    3.1544 C   0  0  0  0  0  0  0  0  0  0  0  0
   16.8445   -4.5461    3.7539 N   0  0  0  0  0  0  0  0  0  0  0  0
  1  2  1  0  0  0  0
  1  6  1  0  0  0  0
  2  3  2  0  0  0  0
  3  4  1  0  0  0  0
  4  5  2  0  0  0  0
  4 10  1  0  0  0  0
  5  6  1  0  0  0  0
  5  8  1  0  0  0  0
  6  7  2  0  0  0  0
  8  9  1  0  0  0  0
  9 10  2  0  0  0  0
M  END
>  <CHROM.1>
17.68585086,-2.71547419,3.02717160,1.45817726,0.53861427,-0.11426810

>  <Name>
ligand

>  <RI>
0

>  <Rbt.Current_Directory>
/home/itssahil/PROJECTS/Mol_Feturizer/New_Systems/rnas/4NYD

>  <Rbt.Executable>
rbdock ($Id: //depot/dev/client3/rdock/2013.1/src/exe/rbdock.cxx#4 $)

>  <Rbt.Library>
libRbt.so (2013.1, Build901 2013/11/27)

>  <Rbt.Parameter_File>
/export/apps/rDock/src/rDock_2013.1_src/data/scripts/dock_solv.prm

>  <Rbt.Receptor>
prm/blind_docking_80.prm

>  <SCORE>
-23.8122

>  <SCORE.INTER>
-23.8122

>  <SCORE.INTER.CONST>
1

>  <SCORE.INTER.POLAR>
0

>  <SCORE.INTER.ROT>
0

>  <SCORE.INTER.SOLV>
3.47465

>  <SCORE.INTER.VDW>
-20.633

>  <SCORE.INTER.norm>
-2.38122

>  <SCORE.INTRA>
0

>  <SCORE.INTRA.DIHEDRAL>
0

>  <SCORE.INTRA.DIHEDRAL.0>
0

>  <SCORE.INTRA.POLAR>
0

>  <SCORE.INTRA.POLAR.0>
0

>  <SCORE.INTRA.REPUL>
0

>  <SCORE.INTRA.REPUL.0>
0

>  <SCORE.INTRA.SOLV>
0

>  <SCORE.INTRA.SOLV.lig_0>
-4.1818

>  <SCORE.INTRA.VDW>
0

>  <SCORE.INTRA.VDW.0>
0

>  <SCORE.INTRA.norm>
0

>  <SCORE.RESTR>
0

>  <SCORE.RESTR.CAVITY>
0

>  <SCORE.RESTR.norm>
0

>  <SCORE.SYSTEM>
0

>  <SCORE.SYSTEM.CONST>
0

>  <SCORE.SYSTEM.DIHEDRAL>
0

>  <SCORE.SYSTEM.SOLV>
0

>  <SCORE.SYSTEM.norm>
0

>  <SCORE.heavy>
10

>  <SCORE.norm>
-2.38122

>  <RMSD>
3.153

$$$$
ligand
 OpenBabel11021811503D
libRbt.so/2013.1/901 2013/11/27
 10 11  0  0  0  0  0  0  0  0999 V2000
   17.5584   -0.7517    2.8541 N   0  0  0  0  0  0  0  0  0  0  0  0
   16.4946   -0.9953    3.5965 C   0  0  0  0  0  0  0  0  0  0  0  0
   16.2247   -2.3092    3.9939 N   0  0  0  0  0  0  0  0  0  0  0  0
   17.0352   -3.3038    3.6067 C   0  0  0  0  0  0  0  0  0  0  0  0
   18.1030   -3.0528    2.8530 C   0  0  0  0  0  0  0  0  0  0  0  0
   18.3930   -1.8094    2.4771 C   0  0  0  0  0  0  0  0  0  0  0  0
   19.3956   -1.5757    1.8041 O   0  0  0  0  0  0  0  0  0  0  0  0
   18.6753   -4.2170    2.5591 N   0  0  0  0  0  0  0  0  0  0  0  0
   17.9683   -5.1857    3.1326 C   0  0  0  0  0  0  0  0  0  0  0  0
   16.9587   -4.6184    3.7867 N   0  0  0  0  0  0  0  0  0  0  0  0
  1  2  1  0  0  0  0
  1  6  1  0  0  0  0
  2  3  2  0  0  0  0
  3  4  1  0  0  0  0
  4  5  2  0  0  0  0
  4 10  1  0  0  0  0
  5  6  1  0  0  0  0
  5  8  1  0  0  0  0
  6  7  2  0  0  0  0
  8  9  1  0  0  0  0
  9 10  2  0  0  0  0
M  END
>  <CHROM.1>
17.71275282,-2.75709393,3.04227735,1.49813320,0.58226661,-0.12460069

>  <Name>
ligand

>  <RI>
0

>  <Rbt.Current_Directory>
/home/itssahil/PROJECTS/Mol_Feturizer/New_Systems/rnas/4NYD

>  <Rbt.Executable>
rbdock ($Id: //depot/dev/client3/rdock/2013.1/src/exe/rbdock.cxx#4 $)

>  <Rbt.Library>
libRbt.so (2013.1, Build901 2013/11/27)

>  <Rbt.Parameter_File>
/export/apps/rDock/src/rDock_2013.1_src/data/scripts/dock_solv.prm

>  <Rbt.Receptor>
prm/pocket_docking_5.prm

>  <SCORE>
-23.7783

>  <SCORE.INTER>
-23.7783

>  <SCORE.INTER.CONST>
1

>  <SCORE.INTER.POLAR>
0

>  <SCORE.INTER.ROT>
0

>  <SCORE.INTER.SOLV>
3.49437

>  <SCORE.INTER.VDW>
-20.617

>  <SCORE.INTER.norm>
-2.37783

>  <SCORE.INTRA>
0

>  <SCORE.INTRA.DIHEDRAL>
0

>  <SCORE.INTRA.DIHEDRAL.0>
0

>  <SCORE.INTRA.POLAR>
0

>  <SCORE.INTRA.POLAR.0>
0

>  <SCORE.INTRA.REPUL>
0

>  <SCORE.INTRA.REPUL.0>
0

>  <SCORE.INTRA.SOLV>
0

>  <SCORE.INTRA.SOLV.lig_0>
-4.1818

>  <SCORE.INTRA.VDW>
0

>  <SCORE.INTRA.VDW.0>
0

>  <SCORE.INTRA.norm>
0

>  <SCORE.RESTR>
0

>  <SCORE.RESTR.CAVITY>
0

>  <SCORE.RESTR.norm>
0

>  <SCORE.SYSTEM>
0

>  <SCORE.SYSTEM.CONST>
0

>  <SCORE.SYSTEM.DIHEDRAL>
0

>  <SCORE.SYSTEM.SOLV>
0

>  <SCORE.SYSTEM.norm>
0

>  <SCORE.heavy>
10

>  <SCORE.norm>
-2.37783

>  <RMSD>
3.153

$$$$
ligand
 OpenBabel11021811503D
libRbt.so/2013.1/901 2013/11/27
 10 11  0  0  0  0  0  0  0  0999 V2000
   17.5971   -0.7174    2.7983 N   0  0  0  0  0  0  0  0  0  0  0  0
   16.4904   -0.9168    3.4894 C   0  0  0  0  0  0  0  0  0  0  0  0
   16.1607   -2.2152    3.8922 N   0  0  0  0  0  0  0  0  0  0  0  0
   16.9586   -3.2399    3.5614 C   0  0  0  0  0  0  0  0  0  0  0  0
   18.0701   -3.0334    2.8591 C   0  0  0  0  0  0  0  0  0  0  0  0
   18.4167   -1.8056    2.4799 C   0  0  0  0  0  0  0  0  0  0  0  0
   19.4585   -1.6131    1.8551 O   0  0  0  0  0  0  0  0  0  0  0  0
   18.6204   -4.2189    2.6119 N   0  0  0  0  0  0  0  0  0  0  0  0
   17.8561   -5.1564    3.1633 C   0  0  0  0  0  0  0  0  0  0  0  0
   16.8328   -4.5485    3.7568 N   0  0  0  0  0  0  0  0  0  0  0  0
  1  2  1  0  0  0  0
  1  6  1  0  0  0  0
  2  3  2  0  0  0  0
  3  4  1  0  0  0  0
  4  5  2  0  0  0  0
  4 10  1  0  0  0  0
  5  6  1  0  0  0  0
  5  8  1  0  0  0  0
  6  7  2  0  0  0  0
  8  9  1  0  0  0  0
  9 10  2  0  0  0  0
M  END
>  <CHROM.1>
17.68012175,-2.72308365,3.02392680,1.45540130,0.53582798,-0.11760373

>  <Name>
ligand

>  <RI>
0

>  <Rbt.Current_Directory>
/home/itssahil/PROJECTS/Mol_Feturizer/New_Systems/rnas/4NYD

>  <Rbt.Executable>
rbdock ($Id: //depot/dev/client3/rdock/2013.1/src/exe/rbdock.cxx#4 $)

>  <Rbt.Library>
libRbt.so (2013.1, Build901 2013/11/27)

>  <Rbt.Parameter_File>
/export/apps/rDock/src/rDock_2013.1_src/data/scripts/dock_solv.prm

>  <Rbt.Receptor>
prm/pocket_docking_6.prm

>  <SCORE>
-23.8188

>  <SCORE.INTER>
-23.8188

>  <SCORE.INTER.CONST>
1

>  <SCORE.INTER.POLAR>
0

>  <SCORE.INTER.ROT>
0

>  <SCORE.INTER.SOLV>
3.46733

>  <SCORE.INTER.VDW>
-20.635

>  <SCORE.INTER.norm>
-2.38188

>  <SCORE.INTRA>
0

>  <SCORE.INTRA.DIHEDRAL>
0

>  <SCORE.INTRA.DIHEDRAL.0>
0

>  <SCORE.INTRA.POLAR>
0

>  <SCORE.INTRA.POLAR.0>
0

>  <SCORE.INTRA.REPUL>
0

>  <SCORE.INTRA.REPUL.0>
0

>  <SCORE.INTRA.SOLV>
0

>  <SCORE.INTRA.SOLV.lig_0>
-4.1818

>  <SCORE.INTRA.VDW>
0

>  <SCORE.INTRA.VDW.0>
0

>  <SCORE.INTRA.norm>
0

>  <SCORE.RESTR>
0

>  <SCORE.RESTR.CAVITY>
0

>  <SCORE.RESTR.norm>
0

>  <SCORE.SYSTEM>
0

>  <SCORE.SYSTEM.CONST>
0

>  <SCORE.SYSTEM.DIHEDRAL>
0

>  <SCORE.SYSTEM.SOLV>
0

>  <SCORE.SYSTEM.norm>
0

>  <SCORE.heavy>
10

>  <SCORE.norm>
-2.38188

>  <RMSD>
3.153

$$$$
ligand
 OpenBabel11021811503D
libRbt.so/2013.1/901 2013/11/27
 10 11  0  0  0  0  0  0  0  0999 V2000
   17.6080   -0.7076    2.8212 N   0  0  0  0  0  0  0  0  0  0  0  0
   16.5024   -0.9088    3.5138 C   0  0  0  0  0  0  0  0  0  0  0  0
   16.1671   -2.2099    3.9033 N   0  0  0  0  0  0  0  0  0  0  0  0
   16.9583   -3.2351    3.5583 C   0  0  0  0  0  0  0  0  0  0  0  0
   18.0686   -3.0267    2.8546 C   0  0  0  0  0  0  0  0  0  0  0  0
   18.4206   -1.7967    2.4879 C   0  0  0  0  0  0  0  0  0  0  0  0
   19.4613   -1.6028    1.8618 O   0  0  0  0  0  0  0  0  0  0  0  0
   18.6116   -4.2123    2.5923 N   0  0  0  0  0  0  0  0  0  0  0  0
   17.8441   -5.1518    3.1358 C   0  0  0  0  0  0  0  0  0  0  0  0
   16.8262   -4.5450    3.7396 N   0  0  0  0  0  0  0  0  0  0  0  0
  1  2  1  0  0  0  0
  1  6  1  0  0  0  0
  2  3  2  0  0  0  0
  3  4  1  0  0  0  0
  4  5  2  0  0  0  0
  4 10  1  0  0  0  0
  5  6  1  0  0  0  0
  5  8  1  0  0  0  0
  6  7  2  0  0  0  0
  8  9  1  0  0  0  0
  9 10  2  0  0  0  0
M  END
>  <CHROM.1>
17.68084463,-2.71615912,3.02421520,1.44959934,0.53979194,-0.10348040

>  <Name>
ligand

>  <RI>
0

>  <Rbt.Current_Directory>
/home/itssahil/PROJECTS/Mol_Feturizer/New_Systems/rnas/4NYD

>  <Rbt.Executable>
rbdock ($Id: //depot/dev/client3/rdock/2013.1/src/exe/rbdock.cxx#4 $)

>  <Rbt.Library>
libRbt.so (2013.1, Build901 2013/11/27)

>  <Rbt.Parameter_File>
/export/apps/rDock/src/rDock_2013.1_src/data/scripts/dock_solv.prm

>  <Rbt.Receptor>
prm/pocket_docking_8.prm

>  <SCORE>
-23.8288

>  <SCORE.INTER>
-23.8288

>  <SCORE.INTER.CONST>
1

>  <SCORE.INTER.POLAR>
0

>  <SCORE.INTER.ROT>
0

>  <SCORE.INTER.SOLV>
3.4841

>  <SCORE.INTER.VDW>
-20.6472

>  <SCORE.INTER.norm>
-2.38288

>  <SCORE.INTRA>
0

>  <SCORE.INTRA.DIHEDRAL>
0

>  <SCORE.INTRA.DIHEDRAL.0>
0

>  <SCORE.INTRA.POLAR>
0

>  <SCORE.INTRA.POLAR.0>
0

>  <SCORE.INTRA.REPUL>
0

>  <SCORE.INTRA.REPUL.0>
0

>  <SCORE.INTRA.SOLV>
0

>  <SCORE.INTRA.SOLV.lig_0>
-4.1818

>  <SCORE.INTRA.VDW>
0

>  <SCORE.INTRA.VDW.0>
0

>  <SCORE.INTRA.norm>
0

>  <SCORE.RESTR>
0

>  <SCORE.RESTR.CAVITY>
0

>  <SCORE.RESTR.norm>
0

>  <SCORE.SYSTEM>
0

>  <SCORE.SYSTEM.CONST>
0

>  <SCORE.SYSTEM.DIHEDRAL>
0

>  <SCORE.SYSTEM.SOLV>
0

>  <SCORE.SYSTEM.norm>
0

>  <SCORE.heavy>
10

>  <SCORE.norm>
-2.38288

>  <RMSD>
3.154

$$$$
ligand
 OpenBabel11021811503D
libRbt.so/2013.1/901 2013/11/27
 10 11  0  0  0  0  0  0  0  0999 V2000
   17.5999   -0.7152    2.8058 N   0  0  0  0  0  0  0  0  0  0  0  0
   16.4951   -0.9118    3.5008 C   0  0  0  0  0  0  0  0  0  0  0  0
   16.1653   -2.2089    3.9078 N   0  0  0  0  0  0  0  0  0  0  0  0
   16.9611   -3.2352    3.5769 C   0  0  0  0  0  0  0  0  0  0  0  0
   18.0706   -3.0316    2.8707 C   0  0  0  0  0  0  0  0  0  0  0  0
   18.4173   -1.8051    2.4874 C   0  0  0  0  0  0  0  0  0  0  0  0
   19.4574   -1.6152    1.8590 O   0  0  0  0  0  0  0  0  0  0  0  0
   18.6188   -4.2182    2.6245 N   0  0  0  0  0  0  0  0  0  0  0  0
   17.8553   -5.1536    3.1805 C   0  0  0  0  0  0  0  0  0  0  0  0
   16.8345   -4.5432    3.7758 N   0  0  0  0  0  0  0  0  0  0  0  0
  1  2  1  0  0  0  0
  1  6  1  0  0  0  0
  2  3  2  0  0  0  0
  3  4  1  0  0  0  0
  4  5  2  0  0  0  0
  4 10  1  0  0  0  0
  5  6  1  0  0  0  0
  5  8  1  0  0  0  0
  6  7  2  0  0  0  0
  8  9  1  0  0  0  0
  9 10  2  0  0  0  0
M  END
>  <CHROM.1>
17.68147353,-2.72044290,3.03594512,1.45458129,0.53906823,-0.11954862

>  <Name>
ligand

>  <RI>
0

>  <Rbt.Current_Directory>
/home/itssahil/PROJECTS/Mol_Feturizer/New_Systems/rnas/4NYD

>  <Rbt.Executable>
rbdock ($Id: //depot/dev/client3/rdock/2013.1/src/exe/rbdock.cxx#4 $)

>  <Rbt.Library>
libRbt.so (2013.1, Build901 2013/11/27)

>  <Rbt.Parameter_File>
/export/apps/rDock/src/rDock_2013.1_src/data/scripts/dock_solv.prm

>  <Rbt.Receptor>
prm/blind_docking_60.prm

>  <SCORE>
-23.801

>  <SCORE.INTER>
-23.801

>  <SCORE.INTER.CONST>
1

>  <SCORE.INTER.POLAR>
0

>  <SCORE.INTER.ROT>
0

>  <SCORE.INTER.SOLV>
3.47674

>  <SCORE.INTER.VDW>
-20.6263

>  <SCORE.INTER.norm>
-2.3801

>  <SCORE.INTRA>
0

>  <SCORE.INTRA.DIHEDRAL>
0

>  <SCORE.INTRA.DIHEDRAL.0>
0

>  <SCORE.INTRA.POLAR>
0

>  <SCORE.INTRA.POLAR.0>
0

>  <SCORE.INTRA.REPUL>
0

>  <SCORE.INTRA.REPUL.0>
0

>  <SCORE.INTRA.SOLV>
0

>  <SCORE.INTRA.SOLV.lig_0>
-4.1818

>  <SCORE.INTRA.VDW>
0

>  <SCORE.INTRA.VDW.0>
0

>  <SCORE.INTRA.norm>
0

>  <SCORE.RESTR>
0

>  <SCORE.RESTR.CAVITY>
0

>  <SCORE.RESTR.norm>
0

>  <SCORE.SYSTEM>
0

>  <SCORE.SYSTEM.CONST>
0

>  <SCORE.SYSTEM.DIHEDRAL>
0

>  <SCORE.SYSTEM.SOLV>
0

>  <SCORE.SYSTEM.norm>
0

>  <SCORE.heavy>
10

>  <SCORE.norm>
-2.3801

>  <RMSD>
3.155

$$$$
ligand
 OpenBabel11021811503D
libRbt.so/2013.1/901 2013/11/27
 10 11  0  0  0  0  0  0  0  0999 V2000
   17.6103   -0.7052    2.8325 N   0  0  0  0  0  0  0  0  0  0  0  0
   16.5032   -0.9076    3.5221 C   0  0  0  0  0  0  0  0  0  0  0  0
   16.1658   -2.2095    3.9067 N   0  0  0  0  0  0  0  0  0  0  0  0
   16.9568   -3.2344    3.5602 C   0  0  0  0  0  0  0  0  0  0  0  0
   18.0688   -3.0248    2.8595 C   0  0  0  0  0  0  0  0  0  0  0  0
   18.4226   -1.7939    2.4975 C   0  0  0  0  0  0  0  0  0  0  0  0
   19.4648   -1.5990    1.8742 O   0  0  0  0  0  0  0  0  0  0  0  0
   18.6113   -4.2101    2.5946 N   0  0  0  0  0  0  0  0  0  0  0  0
   17.8418   -5.1506    3.1334 C   0  0  0  0  0  0  0  0  0  0  0  0
   16.8231   -4.5448    3.7370 N   0  0  0  0  0  0  0  0  0  0  0  0
  1  2  1  0  0  0  0
  1  6  1  0  0  0  0
  2  3  2  0  0  0  0
  3  4  1  0  0  0  0
  4  5  2  0  0  0  0
  4 10  1  0  0  0  0
  5  6  1  0  0  0  0
  5  8  1  0  0  0  0
  6  7  2  0  0  0  0
  8  9  1  0  0  0  0
  9 10  2  0  0  0  0
M  END
>  <CHROM.1>
17.68093363,-2.71443276,3.02926987,1.44828511,0.53777339,-0.09961751

>  <Name>
ligand

>  <RI>
0

>  <Rbt.Current_Directory>
/home/itssahil/PROJECTS/Mol_Feturizer/New_Systems/rnas/4NYD

>  <Rbt.Executable>
rbdock ($Id: //depot/dev/client3/rdock/2013.1/src/exe/rbdock.cxx#4 $)

>  <Rbt.Library>
libRbt.so (2013.1, Build901 2013/11/27)

>  <Rbt.Parameter_File>
/export/apps/rDock/src/rDock_2013.1_src/data/scripts/dock_solv.prm

>  <Rbt.Receptor>
prm/pocket_docking_3.prm

>  <SCORE>
-23.8247

>  <SCORE.INTER>
-23.8247

>  <SCORE.INTER.CONST>
1

>  <SCORE.INTER.POLAR>
0

>  <SCORE.INTER.ROT>
0

>  <SCORE.INTER.SOLV>
3.49258

>  <SCORE.INTER.VDW>
-20.6473

>  <SCORE.INTER.norm>
-2.38247

>  <SCORE.INTRA>
0

>  <SCORE.INTRA.DIHEDRAL>
0

>  <SCORE.INTRA.DIHEDRAL.0>
0

>  <SCORE.INTRA.POLAR>
0

>  <SCORE.INTRA.POLAR.0>
0

>  <SCORE.INTRA.REPUL>
0

>  <SCORE.INTRA.REPUL.0>
0

>  <SCORE.INTRA.SOLV>
0

>  <SCORE.INTRA.SOLV.lig_0>
-4.1818

>  <SCORE.INTRA.VDW>
0

>  <SCORE.INTRA.VDW.0>
0

>  <SCORE.INTRA.norm>
0

>  <SCORE.RESTR>
0

>  <SCORE.RESTR.CAVITY>
0

>  <SCORE.RESTR.norm>
0

>  <SCORE.SYSTEM>
0

>  <SCORE.SYSTEM.CONST>
0

>  <SCORE.SYSTEM.DIHEDRAL>
0

>  <SCORE.SYSTEM.SOLV>
0

>  <SCORE.SYSTEM.norm>
0

>  <SCORE.heavy>
10

>  <SCORE.norm>
-2.38247

>  <RMSD>
3.155

$$$$
ligand
 OpenBabel11021811503D
libRbt.so/2013.1/901 2013/11/27
 10 11  0  0  0  0  0  0  0  0999 V2000
   17.5611   -0.6794    2.8208 N   0  0  0  0  0  0  0  0  0  0  0  0
   16.4807   -0.9167    3.5409 C   0  0  0  0  0  0  0  0  0  0  0  0
   16.1917   -2.2297    3.9276 N   0  0  0  0  0  0  0  0  0  0  0  0
   17.0012   -3.2298    3.5525 C   0  0  0  0  0  0  0  0  0  0  0  0
   18.0859   -2.9850    2.8212 C   0  0  0  0  0  0  0  0  0  0  0  0
   18.3940   -1.7428    2.4561 C   0  0  0  0  0  0  0  0  0  0  0  0
   19.4117   -1.5151    1.8041 O   0  0  0  0  0  0  0  0  0  0  0  0
   18.6539   -4.1530    2.5339 N   0  0  0  0  0  0  0  0  0  0  0  0
   17.9274   -5.1177    3.0893 C   0  0  0  0  0  0  0  0  0  0  0  0
   16.9099   -4.5443    3.7255 N   0  0  0  0  0  0  0  0  0  0  0  0
  1  2  1  0  0  0  0
  1  6  1  0  0  0  0
  2  3  2  0  0  0  0
  3  4  1  0  0  0  0
  4  5  2  0  0  0  0
  4 10  1  0  0  0  0
  5  6  1  0  0  0  0
  5  8  1  0  0  0  0
  6  7  2  0  0  0  0
  8  9  1  0  0  0  0
  9 10  2  0  0  0  0
M  END
>  <CHROM.1>
17.69451029,-2.68671536,3.00383749,1.48515567,0.56355669,-0.11356601

>  <Name>
ligand

>  <RI>
0

>  <Rbt.Current_Directory>
/home/itssahil/PROJECTS/Mol_Feturizer/New_Systems/rnas/4NYD

>  <Rbt.Executable>
rbdock ($Id: //depot/dev/client3/rdock/2013.1/src/exe/rbdock.cxx#4 $)

>  <Rbt.Library>
libRbt.so (2013.1, Build901 2013/11/27)

>  <Rbt.Parameter_File>
/export/apps/rDock/src/rDock_2013.1_src/data/scripts/dock_solv.prm

>  <Rbt.Receptor>
prm/pocket_docking_7.prm

>  <SCORE>
-23.7609

>  <SCORE.INTER>
-23.7609

>  <SCORE.INTER.CONST>
1

>  <SCORE.INTER.POLAR>
0

>  <SCORE.INTER.ROT>
0

>  <SCORE.INTER.SOLV>
3.46416

>  <SCORE.INTER.VDW>
-20.5953

>  <SCORE.INTER.norm>
-2.37609

>  <SCORE.INTRA>
0

>  <SCORE.INTRA.DIHEDRAL>
0

>  <SCORE.INTRA.DIHEDRAL.0>
0

>  <SCORE.INTRA.POLAR>
0

>  <SCORE.INTRA.POLAR.0>
0

>  <SCORE.INTRA.REPUL>
0

>  <SCORE.INTRA.REPUL.0>
0

>  <SCORE.INTRA.SOLV>
0

>  <SCORE.INTRA.SOLV.lig_0>
-4.1818

>  <SCORE.INTRA.VDW>
0

>  <SCORE.INTRA.VDW.0>
0

>  <SCORE.INTRA.norm>
0

>  <SCORE.RESTR>
0

>  <SCORE.RESTR.CAVITY>
0

>  <SCORE.RESTR.norm>
0

>  <SCORE.SYSTEM>
0

>  <SCORE.SYSTEM.CONST>
0

>  <SCORE.SYSTEM.DIHEDRAL>
0

>  <SCORE.SYSTEM.SOLV>
0

>  <SCORE.SYSTEM.norm>
0

>  <SCORE.heavy>
10

>  <SCORE.norm>
-2.37609

>  <RMSD>
3.157

$$$$
ligand
 OpenBabel11021811503D
libRbt.so/2013.1/901 2013/11/27
 10 11  0  0  0  0  0  0  0  0999 V2000
   17.7237   -0.6186    2.8424 N   0  0  0  0  0  0  0  0  0  0  0  0
   16.5780   -0.7495    3.4848 C   0  0  0  0  0  0  0  0  0  0  0  0
   16.1616   -2.0230    3.8869 N   0  0  0  0  0  0  0  0  0  0  0  0
   16.9175   -3.0930    3.6043 C   0  0  0  0  0  0  0  0  0  0  0  0
   18.0688   -2.9553    2.9509 C   0  0  0  0  0  0  0  0  0  0  0  0
   18.4972   -1.7530    2.5739 C   0  0  0  0  0  0  0  0  0  0  0  0
   19.5747   -1.6246    1.9949 O   0  0  0  0  0  0  0  0  0  0  0  0
   18.5653   -4.1716    2.7424 N   0  0  0  0  0  0  0  0  0  0  0  0
   17.7280   -5.0597    3.2691 C   0  0  0  0  0  0  0  0  0  0  0  0
   16.7132   -4.3903    3.8086 N   0  0  0  0  0  0  0  0  0  0  0  0
  1  2  1  0  0  0  0
  1  6  1  0  0  0  0
  2  3  2  0  0  0  0
  3  4  1  0  0  0  0
  4  5  2  0  0  0  0
  4 10  1  0  0  0  0
  5  6  1  0  0  0  0
  5  8  1  0  0  0  0
  6  7  2  0  0  0  0
  8  9  1  0  0  0  0
  9 10  2  0  0  0  0
M  END
>  <CHROM.1>
17.68898774,-2.62255808,3.09429543,1.38889360,0.49670349,-0.09731913

>  <Name>
ligand

>  <RI>
0

>  <Rbt.Current_Directory>
/home/itssahil/PROJECTS/Mol_Feturizer/New_Systems/rnas/4NYD

>  <Rbt.Executable>
rbdock ($Id: //depot/dev/client3/rdock/2013.1/src/exe/rbdock.cxx#4 $)

>  <Rbt.Library>
libRbt.so (2013.1, Build901 2013/11/27)

>  <Rbt.Parameter_File>
/export/apps/rDock/src/rDock_2013.1_src/data/scripts/dock_solv.prm

>  <Rbt.Receptor>
prm/pocket_docking_6.prm

>  <SCORE>
-23.7337

>  <SCORE.INTER>
-23.7337

>  <SCORE.INTER.CONST>
1

>  <SCORE.INTER.POLAR>
0

>  <SCORE.INTER.ROT>
0

>  <SCORE.INTER.SOLV>
3.55871

>  <SCORE.INTER.VDW>
-20.6087

>  <SCORE.INTER.norm>
-2.37337

>  <SCORE.INTRA>
0

>  <SCORE.INTRA.DIHEDRAL>
0

>  <SCORE.INTRA.DIHEDRAL.0>
0

>  <SCORE.INTRA.POLAR>
0

>  <SCORE.INTRA.POLAR.0>
0

>  <SCORE.INTRA.REPUL>
0

>  <SCORE.INTRA.REPUL.0>
0

>  <SCORE.INTRA.SOLV>
0

>  <SCORE.INTRA.SOLV.lig_0>
-4.1818

>  <SCORE.INTRA.VDW>
0

>  <SCORE.INTRA.VDW.0>
0

>  <SCORE.INTRA.norm>
0

>  <SCORE.RESTR>
0

>  <SCORE.RESTR.CAVITY>
0

>  <SCORE.RESTR.norm>
0

>  <SCORE.SYSTEM>
0

>  <SCORE.SYSTEM.CONST>
0

>  <SCORE.SYSTEM.DIHEDRAL>
0

>  <SCORE.SYSTEM.SOLV>
0

>  <SCORE.SYSTEM.norm>
0

>  <SCORE.heavy>
10

>  <SCORE.norm>
-2.37337

>  <RMSD>
3.158

$$$$
ligand
 OpenBabel11021811503D
libRbt.so/2013.1/901 2013/11/27
 10 11  0  0  0  0  0  0  0  0999 V2000
   17.5890   -0.6905    2.8581 N   0  0  0  0  0  0  0  0  0  0  0  0
   16.4815   -0.9128    3.5409 C   0  0  0  0  0  0  0  0  0  0  0  0
   16.1595   -2.2221    3.9136 N   0  0  0  0  0  0  0  0  0  0  0  0
   16.9654   -3.2337    3.5626 C   0  0  0  0  0  0  0  0  0  0  0  0
   18.0777   -3.0040    2.8688 C   0  0  0  0  0  0  0  0  0  0  0  0
   18.4170   -1.7657    2.5181 C   0  0  0  0  0  0  0  0  0  0  0  0
   19.4594   -1.5523    1.9012 O   0  0  0  0  0  0  0  0  0  0  0  0
   18.6369   -4.1799    2.5970 N   0  0  0  0  0  0  0  0  0  0  0  0
   17.8774   -5.1347    3.1248 C   0  0  0  0  0  0  0  0  0  0  0  0
   16.8481   -4.5472    3.7284 N   0  0  0  0  0  0  0  0  0  0  0  0
  1  2  1  0  0  0  0
  1  6  1  0  0  0  0
  2  3  2  0  0  0  0
  3  4  1  0  0  0  0
  4  5  2  0  0  0  0
  4 10  1  0  0  0  0
  5  6  1  0  0  0  0
  5  8  1  0  0  0  0
  6  7  2  0  0  0  0
  8  9  1  0  0  0  0
  9 10  2  0  0  0  0
M  END
>  <CHROM.1>
17.68507354,-2.70011750,3.03918802,1.46291698,0.53193587,-0.09911926

>  <Name>
ligand

>  <RI>
0

>  <Rbt.Current_Directory>
/home/itssahil/PROJECTS/Mol_Feturizer/New_Systems/rnas/4NYD

>  <Rbt.Executable>
rbdock ($Id: //depot/dev/client3/rdock/2013.1/src/exe/rbdock.cxx#4 $)

>  <Rbt.Library>
libRbt.so (2013.1, Build901 2013/11/27)

>  <Rbt.Parameter_File>
/export/apps/rDock/src/rDock_2013.1_src/data/scripts/dock_solv.prm

>  <Rbt.Receptor>
prm/pocket_docking_3.prm

>  <SCORE>
-23.832

>  <SCORE.INTER>
-23.832

>  <SCORE.INTER.CONST>
1

>  <SCORE.INTER.POLAR>
0

>  <SCORE.INTER.ROT>
0

>  <SCORE.INTER.SOLV>
3.50141

>  <SCORE.INTER.VDW>
-20.6551

>  <SCORE.INTER.norm>
-2.3832

>  <SCORE.INTRA>
0

>  <SCORE.INTRA.DIHEDRAL>
0

>  <SCORE.INTRA.DIHEDRAL.0>
0

>  <SCORE.INTRA.POLAR>
0

>  <SCORE.INTRA.POLAR.0>
0

>  <SCORE.INTRA.REPUL>
0

>  <SCORE.INTRA.REPUL.0>
0

>  <SCORE.INTRA.SOLV>
0

>  <SCORE.INTRA.SOLV.lig_0>
-4.1818

>  <SCORE.INTRA.VDW>
0

>  <SCORE.INTRA.VDW.0>
0

>  <SCORE.INTRA.norm>
0

>  <SCORE.RESTR>
0

>  <SCORE.RESTR.CAVITY>
0

>  <SCORE.RESTR.norm>
0

>  <SCORE.SYSTEM>
0

>  <SCORE.SYSTEM.CONST>
0

>  <SCORE.SYSTEM.DIHEDRAL>
0

>  <SCORE.SYSTEM.SOLV>
0

>  <SCORE.SYSTEM.norm>
0

>  <SCORE.heavy>
10

>  <SCORE.norm>
-2.3832

>  <RMSD>
3.159

$$$$
ligand
 OpenBabel11021811503D
libRbt.so/2013.1/901 2013/11/27
 10 11  0  0  0  0  0  0  0  0999 V2000
   17.6258   -0.6861    2.7839 N   0  0  0  0  0  0  0  0  0  0  0  0
   16.5256   -0.8499    3.4946 C   0  0  0  0  0  0  0  0  0  0  0  0
   16.1746   -2.1340    3.9247 N   0  0  0  0  0  0  0  0  0  0  0  0
   16.9456   -3.1810    3.6000 C   0  0  0  0  0  0  0  0  0  0  0  0
   18.0506   -3.0103    2.8780 C   0  0  0  0  0  0  0  0  0  0  0  0
   18.4173   -1.7969    2.4725 C   0  0  0  0  0  0  0  0  0  0  0  0
   19.4534   -1.6375    1.8293 O   0  0  0  0  0  0  0  0  0  0  0  0
   18.5719   -4.2114    2.6434 N   0  0  0  0  0  0  0  0  0  0  0  0
   17.7963   -5.1228    3.2221 C   0  0  0  0  0  0  0  0  0  0  0  0
   16.7951   -4.4831    3.8200 N   0  0  0  0  0  0  0  0  0  0  0  0
  1  2  1  0  0  0  0
  1  6  1  0  0  0  0
  2  3  2  0  0  0  0
  3  4  1  0  0  0  0
  4  5  2  0  0  0  0
  4 10  1  0  0  0  0
  5  6  1  0  0  0  0
  5  8  1  0  0  0  0
  6  7  2  0  0  0  0
  8  9  1  0  0  0  0
  9 10  2  0  0  0  0
M  END
>  <CHROM.1>
17.66973877,-2.68898193,3.04312746,1.43277921,0.55314744,-0.12309189

>  <Name>
ligand

>  <RI>
0

>  <Rbt.Current_Directory>
/home/itssahil/PROJECTS/Mol_Feturizer/New_Systems/rnas/4NYD

>  <Rbt.Executable>
rbdock ($Id: //depot/dev/client3/rdock/2013.1/src/exe/rbdock.cxx#4 $)

>  <Rbt.Library>
libRbt.so (2013.1, Build901 2013/11/27)

>  <Rbt.Parameter_File>
/export/apps/rDock/src/rDock_2013.1_src/data/scripts/dock_solv.prm

>  <Rbt.Receptor>
prm/blind_docking_40.prm

>  <SCORE>
-23.7697

>  <SCORE.INTER>
-23.7697

>  <SCORE.INTER.CONST>
1

>  <SCORE.INTER.POLAR>
0

>  <SCORE.INTER.ROT>
0

>  <SCORE.INTER.SOLV>
3.489

>  <SCORE.INTER.VDW>
-20.6094

>  <SCORE.INTER.norm>
-2.37697

>  <SCORE.INTRA>
0

>  <SCORE.INTRA.DIHEDRAL>
0

>  <SCORE.INTRA.DIHEDRAL.0>
0

>  <SCORE.INTRA.POLAR>
0

>  <SCORE.INTRA.POLAR.0>
0

>  <SCORE.INTRA.REPUL>
0

>  <SCORE.INTRA.REPUL.0>
0

>  <SCORE.INTRA.SOLV>
0

>  <SCORE.INTRA.SOLV.lig_0>
-4.1818

>  <SCORE.INTRA.VDW>
0

>  <SCORE.INTRA.VDW.0>
0

>  <SCORE.INTRA.norm>
0

>  <SCORE.RESTR>
0

>  <SCORE.RESTR.CAVITY>
0

>  <SCORE.RESTR.norm>
0

>  <SCORE.SYSTEM>
0

>  <SCORE.SYSTEM.CONST>
0

>  <SCORE.SYSTEM.DIHEDRAL>
0

>  <SCORE.SYSTEM.SOLV>
0

>  <SCORE.SYSTEM.norm>
0

>  <SCORE.heavy>
10

>  <SCORE.norm>
-2.37697

>  <RMSD>
3.160

$$$$
ligand
 OpenBabel11021811503D
libRbt.so/2013.1/901 2013/11/27
 10 11  0  0  0  0  0  0  0  0999 V2000
   17.5894   -0.6834    2.8558 N   0  0  0  0  0  0  0  0  0  0  0  0
   16.4869   -0.9046    3.5471 C   0  0  0  0  0  0  0  0  0  0  0  0
   16.1628   -2.2145    3.9160 N   0  0  0  0  0  0  0  0  0  0  0  0
   16.9615   -3.2276    3.5529 C   0  0  0  0  0  0  0  0  0  0  0  0
   18.0687   -2.9989    2.8506 C   0  0  0  0  0  0  0  0  0  0  0  0
   18.4100   -1.7602    2.5033 C   0  0  0  0  0  0  0  0  0  0  0  0
   19.4478   -1.5479    1.8784 O   0  0  0  0  0  0  0  0  0  0  0  0
   18.6206   -4.1757    2.5680 N   0  0  0  0  0  0  0  0  0  0  0  0
   17.8618   -5.1300    3.0976 C   0  0  0  0  0  0  0  0  0  0  0  0
   16.8402   -4.5414    3.7131 N   0  0  0  0  0  0  0  0  0  0  0  0
  1  2  1  0  0  0  0
  1  6  1  0  0  0  0
  2  3  2  0  0  0  0
  3  4  1  0  0  0  0
  4  5  2  0  0  0  0
  4 10  1  0  0  0  0
  5  6  1  0  0  0  0
  5  8  1  0  0  0  0
  6  7  2  0  0  0  0
  8  9  1  0  0  0  0
  9 10  2  0  0  0  0
M  END
>  <CHROM.1>
17.67876014,-2.69426219,3.02594387,1.45914278,0.54095209,-0.09212028

>  <Name>
ligand

>  <RI>
0

>  <Rbt.Current_Directory>
/home/itssahil/PROJECTS/Mol_Feturizer/New_Systems/rnas/4NYD

>  <Rbt.Executable>
rbdock ($Id: //depot/dev/client3/rdock/2013.1/src/exe/rbdock.cxx#4 $)

>  <Rbt.Library>
libRbt.so (2013.1, Build901 2013/11/27)

>  <Rbt.Parameter_File>
/export/apps/rDock/src/rDock_2013.1_src/data/scripts/dock_solv.prm

>  <Rbt.Receptor>
prm/blind_docking_60.prm

>  <SCORE>
-23.8258

>  <SCORE.INTER>
-23.8258

>  <SCORE.INTER.CONST>
1

>  <SCORE.INTER.POLAR>
0

>  <SCORE.INTER.ROT>
0

>  <SCORE.INTER.SOLV>
3.49961

>  <SCORE.INTER.VDW>
-20.6504

>  <SCORE.INTER.norm>
-2.38258

>  <SCORE.INTRA>
0

>  <SCORE.INTRA.DIHEDRAL>
0

>  <SCORE.INTRA.DIHEDRAL.0>
0

>  <SCORE.INTRA.POLAR>
0

>  <SCORE.INTRA.POLAR.0>
0

>  <SCORE.INTRA.REPUL>
0

>  <SCORE.INTRA.REPUL.0>
0

>  <SCORE.INTRA.SOLV>
0

>  <SCORE.INTRA.SOLV.lig_0>
-4.1818

>  <SCORE.INTRA.VDW>
0

>  <SCORE.INTRA.VDW.0>
0

>  <SCORE.INTRA.norm>
0

>  <SCORE.RESTR>
0

>  <SCORE.RESTR.CAVITY>
0

>  <SCORE.RESTR.norm>
0

>  <SCORE.SYSTEM>
0

>  <SCORE.SYSTEM.CONST>
0

>  <SCORE.SYSTEM.DIHEDRAL>
0

>  <SCORE.SYSTEM.SOLV>
0

>  <SCORE.SYSTEM.norm>
0

>  <SCORE.heavy>
10

>  <SCORE.norm>
-2.38258

>  <RMSD>
3.160

$$$$
ligand
 OpenBabel11021811503D
libRbt.so/2013.1/901 2013/11/27
 10 11  0  0  0  0  0  0  0  0999 V2000
   17.6474   -0.6537    2.7154 N   0  0  0  0  0  0  0  0  0  0  0  0
   16.5311   -0.7822    3.4081 C   0  0  0  0  0  0  0  0  0  0  0  0
   16.1514   -2.0491    3.8637 N   0  0  0  0  0  0  0  0  0  0  0  0
   16.9117   -3.1159    3.5812 C   0  0  0  0  0  0  0  0  0  0  0  0
   18.0331   -2.9810    2.8772 C   0  0  0  0  0  0  0  0  0  0  0  0
   18.4270   -1.7843    2.4482 C   0  0  0  0  0  0  0  0  0  0  0  0
   19.4778   -1.6575    1.8218 O   0  0  0  0  0  0  0  0  0  0  0  0
   18.5397   -4.1957    2.6837 N   0  0  0  0  0  0  0  0  0  0  0  0
   17.7385   -5.0797    3.2699 C   0  0  0  0  0  0  0  0  0  0  0  0
   16.7363   -4.4094    3.8313 N   0  0  0  0  0  0  0  0  0  0  0  0
  1  2  1  0  0  0  0
  1  6  1  0  0  0  0
  2  3  2  0  0  0  0
  3  4  1  0  0  0  0
  4  5  2  0  0  0  0
  4 10  1  0  0  0  0
  5  6  1  0  0  0  0
  5  8  1  0  0  0  0
  6  7  2  0  0  0  0
  8  9  1  0  0  0  0
  9 10  2  0  0  0  0
M  END
>  <CHROM.1>
17.65433601,-2.64968368,3.02646808,1.41159803,0.53571802,-0.13779619

>  <Name>
ligand

>  <RI>
0

>  <Rbt.Current_Directory>
/home/itssahil/PROJECTS/Mol_Feturizer/New_Systems/rnas/4NYD

>  <Rbt.Executable>
rbdock ($Id: //depot/dev/client3/rdock/2013.1/src/exe/rbdock.cxx#4 $)

>  <Rbt.Library>
libRbt.so (2013.1, Build901 2013/11/27)

>  <Rbt.Parameter_File>
/export/apps/rDock/src/rDock_2013.1_src/data/scripts/dock_solv.prm

>  <Rbt.Receptor>
prm/blind_docking_80.prm

>  <SCORE>
-23.7559

>  <SCORE.INTER>
-23.7559

>  <SCORE.INTER.CONST>
1

>  <SCORE.INTER.POLAR>
0

>  <SCORE.INTER.ROT>
0

>  <SCORE.INTER.SOLV>
3.45975

>  <SCORE.INTER.VDW>
-20.5905

>  <SCORE.INTER.norm>
-2.37559

>  <SCORE.INTRA>
0

>  <SCORE.INTRA.DIHEDRAL>
0

>  <SCORE.INTRA.DIHEDRAL.0>
0

>  <SCORE.INTRA.POLAR>
0

>  <SCORE.INTRA.POLAR.0>
0

>  <SCORE.INTRA.REPUL>
0

>  <SCORE.INTRA.REPUL.0>
0

>  <SCORE.INTRA.SOLV>
0

>  <SCORE.INTRA.SOLV.lig_0>
-4.1818

>  <SCORE.INTRA.VDW>
0

>  <SCORE.INTRA.VDW.0>
0

>  <SCORE.INTRA.norm>
0

>  <SCORE.RESTR>
0

>  <SCORE.RESTR.CAVITY>
0

>  <SCORE.RESTR.norm>
0

>  <SCORE.SYSTEM>
0

>  <SCORE.SYSTEM.CONST>
0

>  <SCORE.SYSTEM.DIHEDRAL>
0

>  <SCORE.SYSTEM.SOLV>
0

>  <SCORE.SYSTEM.norm>
0

>  <SCORE.heavy>
10

>  <SCORE.norm>
-2.37559

>  <RMSD>
3.160

$$$$
ligand
 OpenBabel11021811503D
libRbt.so/2013.1/901 2013/11/27
 10 11  0  0  0  0  0  0  0  0999 V2000
   17.5690   -0.6955    2.8275 N   0  0  0  0  0  0  0  0  0  0  0  0
   16.4662   -0.9173    3.5181 C   0  0  0  0  0  0  0  0  0  0  0  0
   16.1548   -2.2244    3.9073 N   0  0  0  0  0  0  0  0  0  0  0  0
   16.9660   -3.2345    3.5642 C   0  0  0  0  0  0  0  0  0  0  0  0
   18.0735   -3.0054    2.8626 C   0  0  0  0  0  0  0  0  0  0  0  0
   18.4028   -1.7690    2.4961 C   0  0  0  0  0  0  0  0  0  0  0  0
   19.4408   -1.5556    1.8719 O   0  0  0  0  0  0  0  0  0  0  0  0
   18.6394   -4.1806    2.6017 N   0  0  0  0  0  0  0  0  0  0  0  0
   17.8888   -5.1343    3.1441 C   0  0  0  0  0  0  0  0  0  0  0  0
   16.8583   -4.5467    3.7457 N   0  0  0  0  0  0  0  0  0  0  0  0
  1  2  1  0  0  0  0
  1  6  1  0  0  0  0
  2  3  2  0  0  0  0
  3  4  1  0  0  0  0
  4  5  2  0  0  0  0
  4 10  1  0  0  0  0
  5  6  1  0  0  0  0
  5  8  1  0  0  0  0
  6  7  2  0  0  0  0
  8  9  1  0  0  0  0
  9 10  2  0  0  0  0
M  END
>  <CHROM.1>
17.67957978,-2.70217294,3.03131670,1.47128809,0.53584871,-0.11492237

>  <Name>
ligand

>  <RI>
0

>  <Rbt.Current_Directory>
/home/itssahil/PROJECTS/Mol_Feturizer/New_Systems/rnas/4NYD

>  <Rbt.Executable>
rbdock ($Id: //depot/dev/client3/rdock/2013.1/src/exe/rbdock.cxx#4 $)

>  <Rbt.Library>
libRbt.so (2013.1, Build901 2013/11/27)

>  <Rbt.Parameter_File>
/export/apps/rDock/src/rDock_2013.1_src/data/scripts/dock_solv.prm

>  <Rbt.Receptor>
prm/pocket_docking_4.prm

>  <SCORE>
-23.8348

>  <SCORE.INTER>
-23.8348

>  <SCORE.INTER.CONST>
1

>  <SCORE.INTER.POLAR>
0

>  <SCORE.INTER.ROT>
0

>  <SCORE.INTER.SOLV>
3.47839

>  <SCORE.INTER.VDW>
-20.6493

>  <SCORE.INTER.norm>
-2.38348

>  <SCORE.INTRA>
0

>  <SCORE.INTRA.DIHEDRAL>
0

>  <SCORE.INTRA.DIHEDRAL.0>
0

>  <SCORE.INTRA.POLAR>
0

>  <SCORE.INTRA.POLAR.0>
0

>  <SCORE.INTRA.REPUL>
0

>  <SCORE.INTRA.REPUL.0>
0

>  <SCORE.INTRA.SOLV>
0

>  <SCORE.INTRA.SOLV.lig_0>
-4.1818

>  <SCORE.INTRA.VDW>
0

>  <SCORE.INTRA.VDW.0>
0

>  <SCORE.INTRA.norm>
0

>  <SCORE.RESTR>
0

>  <SCORE.RESTR.CAVITY>
0

>  <SCORE.RESTR.norm>
0

>  <SCORE.SYSTEM>
0

>  <SCORE.SYSTEM.CONST>
0

>  <SCORE.SYSTEM.DIHEDRAL>
0

>  <SCORE.SYSTEM.SOLV>
0

>  <SCORE.SYSTEM.norm>
0

>  <SCORE.heavy>
10

>  <SCORE.norm>
-2.38348

>  <RMSD>
3.160

$$$$
ligand
 OpenBabel11021811503D
libRbt.so/2013.1/901 2013/11/27
 10 11  0  0  0  0  0  0  0  0999 V2000
   17.5859   -0.6951    2.8558 N   0  0  0  0  0  0  0  0  0  0  0  0
   16.4870   -0.9170    3.5526 C   0  0  0  0  0  0  0  0  0  0  0  0
   16.1680   -2.2264    3.9274 N   0  0  0  0  0  0  0  0  0  0  0  0
   16.9679   -3.2386    3.5645 C   0  0  0  0  0  0  0  0  0  0  0  0
   18.0715   -3.0093    2.8567 C   0  0  0  0  0  0  0  0  0  0  0  0
   18.4079   -1.7710    2.5036 C   0  0  0  0  0  0  0  0  0  0  0  0
   19.4425   -1.5580    1.8736 O   0  0  0  0  0  0  0  0  0  0  0  0
   18.6254   -4.1856    2.5758 N   0  0  0  0  0  0  0  0  0  0  0  0
   17.8714   -5.1401    3.1119 C   0  0  0  0  0  0  0  0  0  0  0  0
   16.8509   -4.5521    3.7298 N   0  0  0  0  0  0  0  0  0  0  0  0
  1  2  1  0  0  0  0
  1  6  1  0  0  0  0
  2  3  2  0  0  0  0
  3  4  1  0  0  0  0
  4  5  2  0  0  0  0
  4 10  1  0  0  0  0
  5  6  1  0  0  0  0
  5  8  1  0  0  0  0
  6  7  2  0  0  0  0
  8  9  1  0  0  0  0
  9 10  2  0  0  0  0
M  END
>  <CHROM.1>
17.68145954,-2.70517040,3.03260167,1.46277281,0.54493292,-0.09748753

>  <Name>
ligand

>  <RI>
0

>  <Rbt.Current_Directory>
/home/itssahil/PROJECTS/Mol_Feturizer/New_Systems/rnas/4NYD

>  <Rbt.Executable>
rbdock ($Id: //depot/dev/client3/rdock/2013.1/src/exe/rbdock.cxx#4 $)

>  <Rbt.Library>
libRbt.so (2013.1, Build901 2013/11/27)

>  <Rbt.Parameter_File>
/export/apps/rDock/src/rDock_2013.1_src/data/scripts/dock_solv.prm

>  <Rbt.Receptor>
prm/pocket_docking_7.prm

>  <SCORE>
-23.8421

>  <SCORE.INTER>
-23.8421

>  <SCORE.INTER.CONST>
1

>  <SCORE.INTER.POLAR>
0

>  <SCORE.INTER.ROT>
0

>  <SCORE.INTER.SOLV>
3.50151

>  <SCORE.INTER.VDW>
-20.6619

>  <SCORE.INTER.norm>
-2.38421

>  <SCORE.INTRA>
0

>  <SCORE.INTRA.DIHEDRAL>
0

>  <SCORE.INTRA.DIHEDRAL.0>
0

>  <SCORE.INTRA.POLAR>
0

>  <SCORE.INTRA.POLAR.0>
0

>  <SCORE.INTRA.REPUL>
0

>  <SCORE.INTRA.REPUL.0>
0

>  <SCORE.INTRA.SOLV>
0

>  <SCORE.INTRA.SOLV.lig_0>
-4.1818

>  <SCORE.INTRA.VDW>
0

>  <SCORE.INTRA.VDW.0>
0

>  <SCORE.INTRA.norm>
0

>  <SCORE.RESTR>
0

>  <SCORE.RESTR.CAVITY>
0

>  <SCORE.RESTR.norm>
0

>  <SCORE.SYSTEM>
0

>  <SCORE.SYSTEM.CONST>
0

>  <SCORE.SYSTEM.DIHEDRAL>
0

>  <SCORE.SYSTEM.SOLV>
0

>  <SCORE.SYSTEM.norm>
0

>  <SCORE.heavy>
10

>  <SCORE.norm>
-2.38421

>  <RMSD>
3.160

$$$$
ligand
 OpenBabel11021811503D
libRbt.so/2013.1/901 2013/11/27
 10 11  0  0  0  0  0  0  0  0999 V2000
   17.5658   -0.7022    2.7805 N   0  0  0  0  0  0  0  0  0  0  0  0
   16.4751   -0.9093    3.4944 C   0  0  0  0  0  0  0  0  0  0  0  0
   16.1638   -2.2098    3.9054 N   0  0  0  0  0  0  0  0  0  0  0  0
   16.9627   -3.2287    3.5594 C   0  0  0  0  0  0  0  0  0  0  0  0
   18.0580   -3.0144    2.8342 C   0  0  0  0  0  0  0  0  0  0  0  0
   18.3872   -1.7844    2.4466 C   0  0  0  0  0  0  0  0  0  0  0  0
   19.4144   -1.5847    1.8004 O   0  0  0  0  0  0  0  0  0  0  0  0
   18.6123   -4.1959    2.5771 N   0  0  0  0  0  0  0  0  0  0  0  0
   17.8668   -5.1386    3.1451 C   0  0  0  0  0  0  0  0  0  0  0  0
   16.8512   -4.5379    3.7588 N   0  0  0  0  0  0  0  0  0  0  0  0
  1  2  1  0  0  0  0
  1  6  1  0  0  0  0
  2  3  2  0  0  0  0
  3  4  1  0  0  0  0
  4  5  2  0  0  0  0
  4 10  1  0  0  0  0
  5  6  1  0  0  0  0
  5  8  1  0  0  0  0
  6  7  2  0  0  0  0
  8  9  1  0  0  0  0
  9 10  2  0  0  0  0
M  END
>  <CHROM.1>
17.66906745,-2.70689818,3.00667308,1.46734211,0.55526016,-0.12499201

>  <Name>
ligand

>  <RI>
0

>  <Rbt.Current_Directory>
/home/itssahil/PROJECTS/Mol_Feturizer/New_Systems/rnas/4NYD

>  <Rbt.Executable>
rbdock ($Id: //depot/dev/client3/rdock/2013.1/src/exe/rbdock.cxx#4 $)

>  <Rbt.Library>
libRbt.so (2013.1, Build901 2013/11/27)

>  <Rbt.Parameter_File>
/export/apps/rDock/src/rDock_2013.1_src/data/scripts/dock_solv.prm

>  <Rbt.Receptor>
prm/pocket_docking_8.prm

>  <SCORE>
-23.8036

>  <SCORE.INTER>
-23.8036

>  <SCORE.INTER.CONST>
1

>  <SCORE.INTER.POLAR>
0

>  <SCORE.INTER.ROT>
0

>  <SCORE.INTER.SOLV>
3.45355

>  <SCORE.INTER.VDW>
-20.6203

>  <SCORE.INTER.norm>
-2.38036

>  <SCORE.INTRA>
0

>  <SCORE.INTRA.DIHEDRAL>
0

>  <SCORE.INTRA.DIHEDRAL.0>
0

>  <SCORE.INTRA.POLAR>
0

>  <SCORE.INTRA.POLAR.0>
0

>  <SCORE.INTRA.REPUL>
0

>  <SCORE.INTRA.REPUL.0>
0

>  <SCORE.INTRA.SOLV>
0

>  <SCORE.INTRA.SOLV.lig_0>
-4.1818

>  <SCORE.INTRA.VDW>
0

>  <SCORE.INTRA.VDW.0>
0

>  <SCORE.INTRA.norm>
0

>  <SCORE.RESTR>
0

>  <SCORE.RESTR.CAVITY>
0

>  <SCORE.RESTR.norm>
0

>  <SCORE.SYSTEM>
0

>  <SCORE.SYSTEM.CONST>
0

>  <SCORE.SYSTEM.DIHEDRAL>
0

>  <SCORE.SYSTEM.SOLV>
0

>  <SCORE.SYSTEM.norm>
0

>  <SCORE.heavy>
10

>  <SCORE.norm>
-2.38036

>  <RMSD>
3.160

$$$$
ligand
 OpenBabel11021811503D
libRbt.so/2013.1/901 2013/11/27
 10 11  0  0  0  0  0  0  0  0999 V2000
   17.6232   -0.6964    2.7888 N   0  0  0  0  0  0  0  0  0  0  0  0
   16.5256   -0.8631    3.5028 C   0  0  0  0  0  0  0  0  0  0  0  0
   16.1758   -2.1489    3.9285 N   0  0  0  0  0  0  0  0  0  0  0  0
   16.9453   -3.1947    3.5963 C   0  0  0  0  0  0  0  0  0  0  0  0
   18.0477   -3.0211    2.8710 C   0  0  0  0  0  0  0  0  0  0  0  0
   18.4132   -1.8060    2.4695 C   0  0  0  0  0  0  0  0  0  0  0  0
   19.4470   -1.6439    1.8232 O   0  0  0  0  0  0  0  0  0  0  0  0
   18.5678   -4.2212    2.6291 N   0  0  0  0  0  0  0  0  0  0  0  0
   17.7941   -5.1350    3.2066 C   0  0  0  0  0  0  0  0  0  0  0  0
   16.7953   -4.4977    3.8110 N   0  0  0  0  0  0  0  0  0  0  0  0
  1  2  1  0  0  0  0
  1  6  1  0  0  0  0
  2  3  2  0  0  0  0
  3  4  1  0  0  0  0
  4  5  2  0  0  0  0
  4 10  1  0  0  0  0
  5  6  1  0  0  0  0
  5  8  1  0  0  0  0
  6  7  2  0  0  0  0
  8  9  1  0  0  0  0
  9 10  2  0  0  0  0
M  END
>  <CHROM.1>
17.66754794,-2.70038939,3.03893600,1.43299387,0.55685177,-0.11875431

>  <Name>
ligand

>  <RI>
0

>  <Rbt.Current_Directory>
/home/itssahil/PROJECTS/Mol_Feturizer/New_Systems/rnas/4NYD

>  <Rbt.Executable>
rbdock ($Id: //depot/dev/client3/rdock/2013.1/src/exe/rbdock.cxx#4 $)

>  <Rbt.Library>
libRbt.so (2013.1, Build901 2013/11/27)

>  <Rbt.Parameter_File>
/export/apps/rDock/src/rDock_2013.1_src/data/scripts/dock_solv.prm

>  <Rbt.Receptor>
prm/pocket_docking_8.prm

>  <SCORE>
-23.7932

>  <SCORE.INTER>
-23.7932

>  <SCORE.INTER.CONST>
1

>  <SCORE.INTER.POLAR>
0

>  <SCORE.INTER.ROT>
0

>  <SCORE.INTER.SOLV>
3.49175

>  <SCORE.INTER.VDW>
-20.6261

>  <SCORE.INTER.norm>
-2.37932

>  <SCORE.INTRA>
0

>  <SCORE.INTRA.DIHEDRAL>
0

>  <SCORE.INTRA.DIHEDRAL.0>
0

>  <SCORE.INTRA.POLAR>
0

>  <SCORE.INTRA.POLAR.0>
0

>  <SCORE.INTRA.REPUL>
0

>  <SCORE.INTRA.REPUL.0>
0

>  <SCORE.INTRA.SOLV>
0

>  <SCORE.INTRA.SOLV.lig_0>
-4.1818

>  <SCORE.INTRA.VDW>
0

>  <SCORE.INTRA.VDW.0>
0

>  <SCORE.INTRA.norm>
0

>  <SCORE.RESTR>
0

>  <SCORE.RESTR.CAVITY>
0

>  <SCORE.RESTR.norm>
0

>  <SCORE.SYSTEM>
0

>  <SCORE.SYSTEM.CONST>
0

>  <SCORE.SYSTEM.DIHEDRAL>
0

>  <SCORE.SYSTEM.SOLV>
0

>  <SCORE.SYSTEM.norm>
0

>  <SCORE.heavy>
10

>  <SCORE.norm>
-2.37932

>  <RMSD>
3.160

$$$$
ligand
 OpenBabel11021811503D
libRbt.so/2013.1/901 2013/11/27
 10 11  0  0  0  0  0  0  0  0999 V2000
   17.6415   -0.6801    2.8317 N   0  0  0  0  0  0  0  0  0  0  0  0
   16.5358   -0.8499    3.5324 C   0  0  0  0  0  0  0  0  0  0  0  0
   16.1769   -2.1387    3.9413 N   0  0  0  0  0  0  0  0  0  0  0  0
   16.9460   -3.1840    3.6066 C   0  0  0  0  0  0  0  0  0  0  0  0
   18.0565   -3.0072    2.8947 C   0  0  0  0  0  0  0  0  0  0  0  0
   18.4307   -1.7895    2.5094 C   0  0  0  0  0  0  0  0  0  0  0  0
   19.4718   -1.6248    1.8755 O   0  0  0  0  0  0  0  0  0  0  0  0
   18.5747   -4.2068    2.6460 N   0  0  0  0  0  0  0  0  0  0  0  0
   17.7917   -5.1234    3.2061 C   0  0  0  0  0  0  0  0  0  0  0  0
   16.7890   -4.4885    3.8065 N   0  0  0  0  0  0  0  0  0  0  0  0
  1  2  1  0  0  0  0
  1  6  1  0  0  0  0
  2  3  2  0  0  0  0
  3  4  1  0  0  0  0
  4  5  2  0  0  0  0
  4 10  1  0  0  0  0
  5  6  1  0  0  0  0
  5  8  1  0  0  0  0
  6  7  2  0  0  0  0
  8  9  1  0  0  0  0
  9 10  2  0  0  0  0
M  END
>  <CHROM.1>
17.67583933,-2.68675664,3.06187150,1.42727148,0.54686432,-0.10562956

>  <Name>
ligand

>  <RI>
0

>  <Rbt.Current_Directory>
/home/itssahil/PROJECTS/Mol_Feturizer/New_Systems/rnas/4NYD

>  <Rbt.Executable>
rbdock ($Id: //depot/dev/client3/rdock/2013.1/src/exe/rbdock.cxx#4 $)

>  <Rbt.Library>
libRbt.so (2013.1, Build901 2013/11/27)

>  <Rbt.Parameter_File>
/export/apps/rDock/src/rDock_2013.1_src/data/scripts/dock_solv.prm

>  <Rbt.Receptor>
prm/blind_docking_100.prm

>  <SCORE>
-23.8047

>  <SCORE.INTER>
-23.8047

>  <SCORE.INTER.CONST>
1

>  <SCORE.INTER.POLAR>
0

>  <SCORE.INTER.ROT>
0

>  <SCORE.INTER.SOLV>
3.51892

>  <SCORE.INTER.VDW>
-20.6428

>  <SCORE.INTER.norm>
-2.38047

>  <SCORE.INTRA>
0

>  <SCORE.INTRA.DIHEDRAL>
0

>  <SCORE.INTRA.DIHEDRAL.0>
0

>  <SCORE.INTRA.POLAR>
0

>  <SCORE.INTRA.POLAR.0>
0

>  <SCORE.INTRA.REPUL>
0

>  <SCORE.INTRA.REPUL.0>
0

>  <SCORE.INTRA.SOLV>
0

>  <SCORE.INTRA.SOLV.lig_0>
-4.1818

>  <SCORE.INTRA.VDW>
0

>  <SCORE.INTRA.VDW.0>
0

>  <SCORE.INTRA.norm>
0

>  <SCORE.RESTR>
0

>  <SCORE.RESTR.CAVITY>
0

>  <SCORE.RESTR.norm>
0

>  <SCORE.SYSTEM>
0

>  <SCORE.SYSTEM.CONST>
0

>  <SCORE.SYSTEM.DIHEDRAL>
0

>  <SCORE.SYSTEM.SOLV>
0

>  <SCORE.SYSTEM.norm>
0

>  <SCORE.heavy>
10

>  <SCORE.norm>
-2.38047

>  <RMSD>
3.161

$$$$
ligand
 OpenBabel11021811503D
libRbt.so/2013.1/901 2013/11/27
 10 11  0  0  0  0  0  0  0  0999 V2000
   17.5738   -0.7013    2.8366 N   0  0  0  0  0  0  0  0  0  0  0  0
   16.4802   -0.9210    3.5423 C   0  0  0  0  0  0  0  0  0  0  0  0
   16.1671   -2.2286    3.9284 N   0  0  0  0  0  0  0  0  0  0  0  0
   16.9671   -3.2413    3.5671 C   0  0  0  0  0  0  0  0  0  0  0  0
   18.0653   -3.0143    2.8502 C   0  0  0  0  0  0  0  0  0  0  0  0
   18.3962   -1.7776    2.4862 C   0  0  0  0  0  0  0  0  0  0  0  0
   19.4260   -1.5665    1.8477 O   0  0  0  0  0  0  0  0  0  0  0  0
   18.6203   -4.1911    2.5739 N   0  0  0  0  0  0  0  0  0  0  0  0
   17.8723   -5.1437    3.1217 C   0  0  0  0  0  0  0  0  0  0  0  0
   16.8545   -4.5539    3.7423 N   0  0  0  0  0  0  0  0  0  0  0  0
  1  2  1  0  0  0  0
  1  6  1  0  0  0  0
  2  3  2  0  0  0  0
  3  4  1  0  0  0  0
  4  5  2  0  0  0  0
  4 10  1  0  0  0  0
  5  6  1  0  0  0  0
  5  8  1  0  0  0  0
  6  7  2  0  0  0  0
  8  9  1  0  0  0  0
  9 10  2  0  0  0  0
M  END
>  <CHROM.1>
17.67569543,-2.70985810,3.02668355,1.46649110,0.55142910,-0.10640968

>  <Name>
ligand

>  <RI>
0

>  <Rbt.Current_Directory>
/home/itssahil/PROJECTS/Mol_Feturizer/New_Systems/rnas/4NYD

>  <Rbt.Executable>
rbdock ($Id: //depot/dev/client3/rdock/2013.1/src/exe/rbdock.cxx#4 $)

>  <Rbt.Library>
libRbt.so (2013.1, Build901 2013/11/27)

>  <Rbt.Parameter_File>
/export/apps/rDock/src/rDock_2013.1_src/data/scripts/dock_solv.prm

>  <Rbt.Receptor>
prm/blind_docking_60.prm

>  <SCORE>
-23.8461

>  <SCORE.INTER>
-23.8461

>  <SCORE.INTER.CONST>
1

>  <SCORE.INTER.POLAR>
0

>  <SCORE.INTER.ROT>
0

>  <SCORE.INTER.SOLV>
3.48856

>  <SCORE.INTER.VDW>
-20.6603

>  <SCORE.INTER.norm>
-2.38461

>  <SCORE.INTRA>
0

>  <SCORE.INTRA.DIHEDRAL>
0

>  <SCORE.INTRA.DIHEDRAL.0>
0

>  <SCORE.INTRA.POLAR>
0

>  <SCORE.INTRA.POLAR.0>
0

>  <SCORE.INTRA.REPUL>
0

>  <SCORE.INTRA.REPUL.0>
0

>  <SCORE.INTRA.SOLV>
0

>  <SCORE.INTRA.SOLV.lig_0>
-4.1818

>  <SCORE.INTRA.VDW>
0

>  <SCORE.INTRA.VDW.0>
0

>  <SCORE.INTRA.norm>
0

>  <SCORE.RESTR>
0

>  <SCORE.RESTR.CAVITY>
0

>  <SCORE.RESTR.norm>
0

>  <SCORE.SYSTEM>
0

>  <SCORE.SYSTEM.CONST>
0

>  <SCORE.SYSTEM.DIHEDRAL>
0

>  <SCORE.SYSTEM.SOLV>
0

>  <SCORE.SYSTEM.norm>
0

>  <SCORE.heavy>
10

>  <SCORE.norm>
-2.38461

>  <RMSD>
3.161

$$$$
ligand
 OpenBabel11021811503D
libRbt.so/2013.1/901 2013/11/27
 10 11  0  0  0  0  0  0  0  0999 V2000
   17.6332   -0.6739    2.8303 N   0  0  0  0  0  0  0  0  0  0  0  0
   16.5315   -0.8512    3.5353 C   0  0  0  0  0  0  0  0  0  0  0  0
   16.1760   -2.1441    3.9342 N   0  0  0  0  0  0  0  0  0  0  0  0
   16.9442   -3.1855    3.5857 C   0  0  0  0  0  0  0  0  0  0  0  0
   18.0507   -3.0010    2.8695 C   0  0  0  0  0  0  0  0  0  0  0  0
   18.4217   -1.7794    2.4934 C   0  0  0  0  0  0  0  0  0  0  0  0
   19.4592   -1.6079    1.8556 O   0  0  0  0  0  0  0  0  0  0  0  0
   18.5686   -4.1978    2.6069 N   0  0  0  0  0  0  0  0  0  0  0  0
   17.7894   -5.1203    3.1627 C   0  0  0  0  0  0  0  0  0  0  0  0
   16.7894   -4.4919    3.7743 N   0  0  0  0  0  0  0  0  0  0  0  0
  1  2  1  0  0  0  0
  1  6  1  0  0  0  0
  2  3  2  0  0  0  0
  3  4  1  0  0  0  0
  4  5  2  0  0  0  0
  4 10  1  0  0  0  0
  5  6  1  0  0  0  0
  5  8  1  0  0  0  0
  6  7  2  0  0  0  0
  8  9  1  0  0  0  0
  9 10  2  0  0  0  0
M  END
>  <CHROM.1>
17.67059139,-2.68252071,3.04166685,1.42900265,0.55214432,-0.09725447

>  <Name>
ligand

>  <RI>
0

>  <Rbt.Current_Directory>
/home/itssahil/PROJECTS/Mol_Feturizer/New_Systems/rnas/4NYD

>  <Rbt.Executable>
rbdock ($Id: //depot/dev/client3/rdock/2013.1/src/exe/rbdock.cxx#4 $)

>  <Rbt.Library>
libRbt.so (2013.1, Build901 2013/11/27)

>  <Rbt.Parameter_File>
/export/apps/rDock/src/rDock_2013.1_src/data/scripts/dock_solv.prm

>  <Rbt.Receptor>
prm/blind_docking_80.prm

>  <SCORE>
-23.8002

>  <SCORE.INTER>
-23.8002

>  <SCORE.INTER.CONST>
1

>  <SCORE.INTER.POLAR>
0

>  <SCORE.INTER.ROT>
0

>  <SCORE.INTER.SOLV>
3.51132

>  <SCORE.INTER.VDW>
-20.6372

>  <SCORE.INTER.norm>
-2.38002

>  <SCORE.INTRA>
0

>  <SCORE.INTRA.DIHEDRAL>
0

>  <SCORE.INTRA.DIHEDRAL.0>
0

>  <SCORE.INTRA.POLAR>
0

>  <SCORE.INTRA.POLAR.0>
0

>  <SCORE.INTRA.REPUL>
0

>  <SCORE.INTRA.REPUL.0>
0

>  <SCORE.INTRA.SOLV>
0

>  <SCORE.INTRA.SOLV.lig_0>
-4.1818

>  <SCORE.INTRA.VDW>
0

>  <SCORE.INTRA.VDW.0>
0

>  <SCORE.INTRA.norm>
0

>  <SCORE.RESTR>
0

>  <SCORE.RESTR.CAVITY>
0

>  <SCORE.RESTR.norm>
0

>  <SCORE.SYSTEM>
0

>  <SCORE.SYSTEM.CONST>
0

>  <SCORE.SYSTEM.DIHEDRAL>
0

>  <SCORE.SYSTEM.SOLV>
0

>  <SCORE.SYSTEM.norm>
0

>  <SCORE.heavy>
10

>  <SCORE.norm>
-2.38002

>  <RMSD>
3.161

$$$$
ligand
 OpenBabel11021811503D
libRbt.so/2013.1/901 2013/11/27
 10 11  0  0  0  0  0  0  0  0999 V2000
   17.6329   -0.6658    2.8074 N   0  0  0  0  0  0  0  0  0  0  0  0
   16.5259   -0.8355    3.5061 C   0  0  0  0  0  0  0  0  0  0  0  0
   16.1673   -2.1239    3.9163 N   0  0  0  0  0  0  0  0  0  0  0  0
   16.9381   -3.1690    3.5850 C   0  0  0  0  0  0  0  0  0  0  0  0
   18.0499   -2.9924    2.8751 C   0  0  0  0  0  0  0  0  0  0  0  0
   18.4238   -1.7749    2.4886 C   0  0  0  0  0  0  0  0  0  0  0  0
   19.4661   -1.6103    1.8567 O   0  0  0  0  0  0  0  0  0  0  0  0
   18.5698   -4.1919    2.6295 N   0  0  0  0  0  0  0  0  0  0  0  0
   17.7864   -5.1083    3.1894 C   0  0  0  0  0  0  0  0  0  0  0  0
   16.7819   -4.4733    3.7867 N   0  0  0  0  0  0  0  0  0  0  0  0
  1  2  1  0  0  0  0
  1  6  1  0  0  0  0
  2  3  2  0  0  0  0
  3  4  1  0  0  0  0
  4  5  2  0  0  0  0
  4 10  1  0  0  0  0
  5  6  1  0  0  0  0
  5  8  1  0  0  0  0
  6  7  2  0  0  0  0
  8  9  1  0  0  0  0
  9 10  2  0  0  0  0
M  END
>  <CHROM.1>
17.66858653,-2.67202299,3.04098116,1.42809668,0.54466448,-0.10768295

>  <Name>
ligand

>  <RI>
0

>  <Rbt.Current_Directory>
/home/itssahil/PROJECTS/Mol_Feturizer/New_Systems/rnas/4NYD

>  <Rbt.Executable>
rbdock ($Id: //depot/dev/client3/rdock/2013.1/src/exe/rbdock.cxx#4 $)

>  <Rbt.Library>
libRbt.so (2013.1, Build901 2013/11/27)

>  <Rbt.Parameter_File>
/export/apps/rDock/src/rDock_2013.1_src/data/scripts/dock_solv.prm

>  <Rbt.Receptor>
prm/pocket_docking_3.prm

>  <SCORE>
-23.7685

>  <SCORE.INTER>
-23.7685

>  <SCORE.INTER.CONST>
1

>  <SCORE.INTER.POLAR>
0

>  <SCORE.INTER.ROT>
0

>  <SCORE.INTER.SOLV>
3.49666

>  <SCORE.INTER.VDW>
-20.6112

>  <SCORE.INTER.norm>
-2.37685

>  <SCORE.INTRA>
0

>  <SCORE.INTRA.DIHEDRAL>
0

>  <SCORE.INTRA.DIHEDRAL.0>
0

>  <SCORE.INTRA.POLAR>
0

>  <SCORE.INTRA.POLAR.0>
0

>  <SCORE.INTRA.REPUL>
0

>  <SCORE.INTRA.REPUL.0>
0

>  <SCORE.INTRA.SOLV>
0

>  <SCORE.INTRA.SOLV.lig_0>
-4.1818

>  <SCORE.INTRA.VDW>
0

>  <SCORE.INTRA.VDW.0>
0

>  <SCORE.INTRA.norm>
0

>  <SCORE.RESTR>
0

>  <SCORE.RESTR.CAVITY>
0

>  <SCORE.RESTR.norm>
0

>  <SCORE.SYSTEM>
0

>  <SCORE.SYSTEM.CONST>
0

>  <SCORE.SYSTEM.DIHEDRAL>
0

>  <SCORE.SYSTEM.SOLV>
0

>  <SCORE.SYSTEM.norm>
0

>  <SCORE.heavy>
10

>  <SCORE.norm>
-2.37685

>  <RMSD>
3.161

$$$$
ligand
 OpenBabel11021811503D
libRbt.so/2013.1/901 2013/11/27
 10 11  0  0  0  0  0  0  0  0999 V2000
   17.6319   -0.6808    2.8213 N   0  0  0  0  0  0  0  0  0  0  0  0
   16.5335   -0.8529    3.5327 C   0  0  0  0  0  0  0  0  0  0  0  0
   16.1807   -2.1425    3.9442 N   0  0  0  0  0  0  0  0  0  0  0  0
   16.9482   -3.1863    3.6013 C   0  0  0  0  0  0  0  0  0  0  0  0
   18.0514   -3.0071    2.8787 C   0  0  0  0  0  0  0  0  0  0  0  0
   18.4198   -1.7885    2.4906 C   0  0  0  0  0  0  0  0  0  0  0  0
   19.4544   -1.6217    1.8468 O   0  0  0  0  0  0  0  0  0  0  0  0
   18.5691   -4.2057    2.6242 N   0  0  0  0  0  0  0  0  0  0  0  0
   17.7931   -5.1240    3.1913 C   0  0  0  0  0  0  0  0  0  0  0  0
   16.7953   -4.4911    3.8019 N   0  0  0  0  0  0  0  0  0  0  0  0
  1  2  1  0  0  0  0
  1  6  1  0  0  0  0
  2  3  2  0  0  0  0
  3  4  1  0  0  0  0
  4  5  2  0  0  0  0
  4 10  1  0  0  0  0
  5  6  1  0  0  0  0
  5  8  1  0  0  0  0
  6  7  2  0  0  0  0
  8  9  1  0  0  0  0
  9 10  2  0  0  0  0
M  END
>  <CHROM.1>
17.67185490,-2.68746170,3.04983498,1.43042987,0.55639976,-0.10660308

>  <Name>
ligand

>  <RI>
0

>  <Rbt.Current_Directory>
/home/itssahil/PROJECTS/Mol_Feturizer/New_Systems/rnas/4NYD

>  <Rbt.Executable>
rbdock ($Id: //depot/dev/client3/rdock/2013.1/src/exe/rbdock.cxx#4 $)

>  <Rbt.Library>
libRbt.so (2013.1, Build901 2013/11/27)

>  <Rbt.Parameter_File>
/export/apps/rDock/src/rDock_2013.1_src/data/scripts/dock_solv.prm

>  <Rbt.Receptor>
prm/pocket_docking_4.prm

>  <SCORE>
-23.8141

>  <SCORE.INTER>
-23.8141

>  <SCORE.INTER.CONST>
1

>  <SCORE.INTER.POLAR>
0

>  <SCORE.INTER.ROT>
0

>  <SCORE.INTER.SOLV>
3.50968

>  <SCORE.INTER.VDW>
-20.646

>  <SCORE.INTER.norm>
-2.38141

>  <SCORE.INTRA>
0

>  <SCORE.INTRA.DIHEDRAL>
0

>  <SCORE.INTRA.DIHEDRAL.0>
0

>  <SCORE.INTRA.POLAR>
0

>  <SCORE.INTRA.POLAR.0>
0

>  <SCORE.INTRA.REPUL>
0

>  <SCORE.INTRA.REPUL.0>
0

>  <SCORE.INTRA.SOLV>
0

>  <SCORE.INTRA.SOLV.lig_0>
-4.1818

>  <SCORE.INTRA.VDW>
0

>  <SCORE.INTRA.VDW.0>
0

>  <SCORE.INTRA.norm>
0

>  <SCORE.RESTR>
0

>  <SCORE.RESTR.CAVITY>
0

>  <SCORE.RESTR.norm>
0

>  <SCORE.SYSTEM>
0

>  <SCORE.SYSTEM.CONST>
0

>  <SCORE.SYSTEM.DIHEDRAL>
0

>  <SCORE.SYSTEM.SOLV>
0

>  <SCORE.SYSTEM.norm>
0

>  <SCORE.heavy>
10

>  <SCORE.norm>
-2.38141

>  <RMSD>
3.161

$$$$
ligand
 OpenBabel11021811503D
libRbt.so/2013.1/901 2013/11/27
 10 11  0  0  0  0  0  0  0  0999 V2000
   17.5697   -0.6956    2.8350 N   0  0  0  0  0  0  0  0  0  0  0  0
   16.4709   -0.9185    3.5317 C   0  0  0  0  0  0  0  0  0  0  0  0
   16.1600   -2.2266    3.9178 N   0  0  0  0  0  0  0  0  0  0  0  0
   16.9673   -3.2367    3.5655 C   0  0  0  0  0  0  0  0  0  0  0  0
   18.0707   -3.0064    2.8577 C   0  0  0  0  0  0  0  0  0  0  0  0
   18.3996   -1.7691    2.4941 C   0  0  0  0  0  0  0  0  0  0  0  0
   19.4339   -1.5549    1.8641 O   0  0  0  0  0  0  0  0  0  0  0  0
   18.6330   -4.1814    2.5886 N   0  0  0  0  0  0  0  0  0  0  0  0
   17.8844   -5.1361    3.1319 C   0  0  0  0  0  0  0  0  0  0  0  0
   16.8588   -4.5494    3.7425 N   0  0  0  0  0  0  0  0  0  0  0  0
  1  2  1  0  0  0  0
  1  6  1  0  0  0  0
  2  3  2  0  0  0  0
  3  4  1  0  0  0  0
  4  5  2  0  0  0  0
  4 10  1  0  0  0  0
  5  6  1  0  0  0  0
  5  8  1  0  0  0  0
  6  7  2  0  0  0  0
  8  9  1  0  0  0  0
  9 10  2  0  0  0  0
M  END
>  <CHROM.1>
17.67834429,-2.70329282,3.03017426,1.47031073,0.54233818,-0.11044436

>  <Name>
ligand

>  <RI>
0

>  <Rbt.Current_Directory>
/home/itssahil/PROJECTS/Mol_Feturizer/New_Systems/rnas/4NYD

>  <Rbt.Executable>
rbdock ($Id: //depot/dev/client3/rdock/2013.1/src/exe/rbdock.cxx#4 $)

>  <Rbt.Library>
libRbt.so (2013.1, Build901 2013/11/27)

>  <Rbt.Parameter_File>
/export/apps/rDock/src/rDock_2013.1_src/data/scripts/dock_solv.prm

>  <Rbt.Receptor>
prm/pocket_docking_7.prm

>  <SCORE>
-23.8425

>  <SCORE.INTER>
-23.8425

>  <SCORE.INTER.CONST>
1

>  <SCORE.INTER.POLAR>
0

>  <SCORE.INTER.ROT>
0

>  <SCORE.INTER.SOLV>
3.48446

>  <SCORE.INTER.VDW>
-20.6565

>  <SCORE.INTER.norm>
-2.38425

>  <SCORE.INTRA>
0

>  <SCORE.INTRA.DIHEDRAL>
0

>  <SCORE.INTRA.DIHEDRAL.0>
0

>  <SCORE.INTRA.POLAR>
0

>  <SCORE.INTRA.POLAR.0>
0

>  <SCORE.INTRA.REPUL>
0

>  <SCORE.INTRA.REPUL.0>
0

>  <SCORE.INTRA.SOLV>
0

>  <SCORE.INTRA.SOLV.lig_0>
-4.1818

>  <SCORE.INTRA.VDW>
0

>  <SCORE.INTRA.VDW.0>
0

>  <SCORE.INTRA.norm>
0

>  <SCORE.RESTR>
0

>  <SCORE.RESTR.CAVITY>
0

>  <SCORE.RESTR.norm>
0

>  <SCORE.SYSTEM>
0

>  <SCORE.SYSTEM.CONST>
0

>  <SCORE.SYSTEM.DIHEDRAL>
0

>  <SCORE.SYSTEM.SOLV>
0

>  <SCORE.SYSTEM.norm>
0

>  <SCORE.heavy>
10

>  <SCORE.norm>
-2.38425

>  <RMSD>
3.161

$$$$
ligand
 OpenBabel11021811503D
libRbt.so/2013.1/901 2013/11/27
 10 11  0  0  0  0  0  0  0  0999 V2000
   17.5757   -0.6917    2.8373 N   0  0  0  0  0  0  0  0  0  0  0  0
   16.4997   -0.9107    3.5699 C   0  0  0  0  0  0  0  0  0  0  0  0
   16.1999   -2.2170    3.9705 N   0  0  0  0  0  0  0  0  0  0  0  0
   16.9944   -3.2293    3.5961 C   0  0  0  0  0  0  0  0  0  0  0  0
   18.0746   -3.0030    2.8523 C   0  0  0  0  0  0  0  0  0  0  0  0
   18.3930   -1.7674    2.4737 C   0  0  0  0  0  0  0  0  0  0  0  0
   19.4067   -1.5568    1.8099 O   0  0  0  0  0  0  0  0  0  0  0  0
   18.6267   -4.1797    2.5695 N   0  0  0  0  0  0  0  0  0  0  0  0
   17.8949   -5.1315    3.1402 C   0  0  0  0  0  0  0  0  0  0  0  0
   16.8901   -4.5412    3.7813 N   0  0  0  0  0  0  0  0  0  0  0  0
  1  2  1  0  0  0  0
  1  6  1  0  0  0  0
  2  3  2  0  0  0  0
  3  4  1  0  0  0  0
  4  5  2  0  0  0  0
  4 10  1  0  0  0  0
  5  6  1  0  0  0  0
  5  8  1  0  0  0  0
  6  7  2  0  0  0  0
  8  9  1  0  0  0  0
  9 10  2  0  0  0  0
M  END
>  <CHROM.1>
17.68834957,-2.69877591,3.03619383,1.47321819,0.57452429,-0.11562897

>  <Name>
ligand

>  <RI>
0

>  <Rbt.Current_Directory>
/home/itssahil/PROJECTS/Mol_Feturizer/New_Systems/rnas/4NYD

>  <Rbt.Executable>
rbdock ($Id: //depot/dev/client3/rdock/2013.1/src/exe/rbdock.cxx#4 $)

>  <Rbt.Library>
libRbt.so (2013.1, Build901 2013/11/27)

>  <Rbt.Parameter_File>
/export/apps/rDock/src/rDock_2013.1_src/data/scripts/dock_solv.prm

>  <Rbt.Receptor>
prm/pocket_docking_7.prm

>  <SCORE>
-23.7536

>  <SCORE.INTER>
-23.7536

>  <SCORE.INTER.CONST>
1

>  <SCORE.INTER.POLAR>
0

>  <SCORE.INTER.ROT>
0

>  <SCORE.INTER.SOLV>
3.49302

>  <SCORE.INTER.VDW>
-20.6001

>  <SCORE.INTER.norm>
-2.37536

>  <SCORE.INTRA>
0

>  <SCORE.INTRA.DIHEDRAL>
0

>  <SCORE.INTRA.DIHEDRAL.0>
0

>  <SCORE.INTRA.POLAR>
0

>  <SCORE.INTRA.POLAR.0>
0

>  <SCORE.INTRA.REPUL>
0

>  <SCORE.INTRA.REPUL.0>
0

>  <SCORE.INTRA.SOLV>
0

>  <SCORE.INTRA.SOLV.lig_0>
-4.1818

>  <SCORE.INTRA.VDW>
0

>  <SCORE.INTRA.VDW.0>
0

>  <SCORE.INTRA.norm>
0

>  <SCORE.RESTR>
0

>  <SCORE.RESTR.CAVITY>
0

>  <SCORE.RESTR.norm>
0

>  <SCORE.SYSTEM>
0

>  <SCORE.SYSTEM.CONST>
0

>  <SCORE.SYSTEM.DIHEDRAL>
0

>  <SCORE.SYSTEM.SOLV>
0

>  <SCORE.SYSTEM.norm>
0

>  <SCORE.heavy>
10

>  <SCORE.norm>
-2.37536

>  <RMSD>
3.161

$$$$
ligand
 OpenBabel11021811503D
libRbt.so/2013.1/901 2013/11/27
 10 11  0  0  0  0  0  0  0  0999 V2000
   17.5648   -0.6981    2.8216 N   0  0  0  0  0  0  0  0  0  0  0  0
   16.4829   -0.9180    3.5451 C   0  0  0  0  0  0  0  0  0  0  0  0
   16.1842   -2.2238    3.9485 N   0  0  0  0  0  0  0  0  0  0  0  0
   16.9859   -3.2347    3.5857 C   0  0  0  0  0  0  0  0  0  0  0  0
   18.0721   -3.0075    2.8510 C   0  0  0  0  0  0  0  0  0  0  0  0
   18.3894   -1.7723    2.4701 C   0  0  0  0  0  0  0  0  0  0  0  0
   19.4084   -1.5607    1.8148 O   0  0  0  0  0  0  0  0  0  0  0  0
   18.6311   -4.1833    2.5783 N   0  0  0  0  0  0  0  0  0  0  0  0
   17.8975   -5.1354    3.1462 C   0  0  0  0  0  0  0  0  0  0  0  0
   16.8847   -4.5462    3.7755 N   0  0  0  0  0  0  0  0  0  0  0  0
  1  2  1  0  0  0  0
  1  6  1  0  0  0  0
  2  3  2  0  0  0  0
  3  4  1  0  0  0  0
  4  5  2  0  0  0  0
  4 10  1  0  0  0  0
  5  6  1  0  0  0  0
  5  8  1  0  0  0  0
  6  7  2  0  0  0  0
  8  9  1  0  0  0  0
  9 10  2  0  0  0  0
M  END
>  <CHROM.1>
17.68301429,-2.70390976,3.03000861,1.47630112,0.56489446,-0.12151235

>  <Name>
ligand

>  <RI>
0

>  <Rbt.Current_Directory>
/home/itssahil/PROJECTS/Mol_Feturizer/New_Systems/rnas/4NYD

>  <Rbt.Executable>
rbdock ($Id: //depot/dev/client3/rdock/2013.1/src/exe/rbdock.cxx#4 $)

>  <Rbt.Library>
libRbt.so (2013.1, Build901 2013/11/27)

>  <Rbt.Parameter_File>
/export/apps/rDock/src/rDock_2013.1_src/data/scripts/dock_solv.prm

>  <Rbt.Receptor>
prm/pocket_docking_7.prm

>  <SCORE>
-23.7569

>  <SCORE.INTER>
-23.7569

>  <SCORE.INTER.CONST>
1

>  <SCORE.INTER.POLAR>
0

>  <SCORE.INTER.ROT>
0

>  <SCORE.INTER.SOLV>
3.47859

>  <SCORE.INTER.VDW>
-20.5975

>  <SCORE.INTER.norm>
-2.37569

>  <SCORE.INTRA>
0

>  <SCORE.INTRA.DIHEDRAL>
0

>  <SCORE.INTRA.DIHEDRAL.0>
0

>  <SCORE.INTRA.POLAR>
0

>  <SCORE.INTRA.POLAR.0>
0

>  <SCORE.INTRA.REPUL>
0

>  <SCORE.INTRA.REPUL.0>
0

>  <SCORE.INTRA.SOLV>
0

>  <SCORE.INTRA.SOLV.lig_0>
-4.1818

>  <SCORE.INTRA.VDW>
0

>  <SCORE.INTRA.VDW.0>
0

>  <SCORE.INTRA.norm>
0

>  <SCORE.RESTR>
0

>  <SCORE.RESTR.CAVITY>
0

>  <SCORE.RESTR.norm>
0

>  <SCORE.SYSTEM>
0

>  <SCORE.SYSTEM.CONST>
0

>  <SCORE.SYSTEM.DIHEDRAL>
0

>  <SCORE.SYSTEM.SOLV>
0

>  <SCORE.SYSTEM.norm>
0

>  <SCORE.heavy>
10

>  <SCORE.norm>
-2.37569

>  <RMSD>
3.161

$$$$
ligand
 OpenBabel11021811503D
libRbt.so/2013.1/901 2013/11/27
 10 11  0  0  0  0  0  0  0  0999 V2000
   17.6328   -0.6765    2.8253 N   0  0  0  0  0  0  0  0  0  0  0  0
   16.5315   -0.8496    3.5321 C   0  0  0  0  0  0  0  0  0  0  0  0
   16.1773   -2.1398    3.9407 N   0  0  0  0  0  0  0  0  0  0  0  0
   16.9463   -3.1831    3.5995 C   0  0  0  0  0  0  0  0  0  0  0  0
   18.0524   -3.0029    2.8816 C   0  0  0  0  0  0  0  0  0  0  0  0
   18.4222   -1.7838    2.4964 C   0  0  0  0  0  0  0  0  0  0  0  0
   19.4593   -1.6161    1.8569 O   0  0  0  0  0  0  0  0  0  0  0  0
   18.5713   -4.2011    2.6277 N   0  0  0  0  0  0  0  0  0  0  0  0
   17.7932   -5.1202    3.1905 C   0  0  0  0  0  0  0  0  0  0  0  0
   16.7928   -4.4882    3.7979 N   0  0  0  0  0  0  0  0  0  0  0  0
  1  2  1  0  0  0  0
  1  6  1  0  0  0  0
  2  3  2  0  0  0  0
  3  4  1  0  0  0  0
  4  5  2  0  0  0  0
  4 10  1  0  0  0  0
  5  6  1  0  0  0  0
  5  8  1  0  0  0  0
  6  7  2  0  0  0  0
  8  9  1  0  0  0  0
  9 10  2  0  0  0  0
M  END
>  <CHROM.1>
17.67211041,-2.68349871,3.05155688,1.43009191,0.55241692,-0.10522113

>  <Name>
ligand

>  <RI>
0

>  <Rbt.Current_Directory>
/home/itssahil/PROJECTS/Mol_Feturizer/New_Systems/rnas/4NYD

>  <Rbt.Executable>
rbdock ($Id: //depot/dev/client3/rdock/2013.1/src/exe/rbdock.cxx#4 $)

>  <Rbt.Library>
libRbt.so (2013.1, Build901 2013/11/27)

>  <Rbt.Parameter_File>
/export/apps/rDock/src/rDock_2013.1_src/data/scripts/dock_solv.prm

>  <Rbt.Receptor>
prm/blind_docking_60.prm

>  <SCORE>
-23.8121

>  <SCORE.INTER>
-23.8121

>  <SCORE.INTER.CONST>
1

>  <SCORE.INTER.POLAR>
0

>  <SCORE.INTER.ROT>
0

>  <SCORE.INTER.SOLV>
3.51159

>  <SCORE.INTER.VDW>
-20.6452

>  <SCORE.INTER.norm>
-2.38121

>  <SCORE.INTRA>
0

>  <SCORE.INTRA.DIHEDRAL>
0

>  <SCORE.INTRA.DIHEDRAL.0>
0

>  <SCORE.INTRA.POLAR>
0

>  <SCORE.INTRA.POLAR.0>
0

>  <SCORE.INTRA.REPUL>
0

>  <SCORE.INTRA.REPUL.0>
0

>  <SCORE.INTRA.SOLV>
0

>  <SCORE.INTRA.SOLV.lig_0>
-4.1818

>  <SCORE.INTRA.VDW>
0

>  <SCORE.INTRA.VDW.0>
0

>  <SCORE.INTRA.norm>
0

>  <SCORE.RESTR>
0

>  <SCORE.RESTR.CAVITY>
0

>  <SCORE.RESTR.norm>
0

>  <SCORE.SYSTEM>
0

>  <SCORE.SYSTEM.CONST>
0

>  <SCORE.SYSTEM.DIHEDRAL>
0

>  <SCORE.SYSTEM.SOLV>
0

>  <SCORE.SYSTEM.norm>
0

>  <SCORE.heavy>
10

>  <SCORE.norm>
-2.38121

>  <RMSD>
3.162

$$$$
ligand
 OpenBabel11021811503D
libRbt.so/2013.1/901 2013/11/27
 10 11  0  0  0  0  0  0  0  0999 V2000
   17.6276   -0.6794    2.8169 N   0  0  0  0  0  0  0  0  0  0  0  0
   16.5288   -0.8513    3.5279 C   0  0  0  0  0  0  0  0  0  0  0  0
   16.1778   -2.1403    3.9426 N   0  0  0  0  0  0  0  0  0  0  0  0
   16.9472   -3.1838    3.6031 C   0  0  0  0  0  0  0  0  0  0  0  0
   18.0507   -3.0049    2.8809 C   0  0  0  0  0  0  0  0  0  0  0  0
   18.4175   -1.7868    2.4898 C   0  0  0  0  0  0  0  0  0  0  0  0
   19.4523   -1.6201    1.8463 O   0  0  0  0  0  0  0  0  0  0  0  0
   18.5705   -4.2034    2.6300 N   0  0  0  0  0  0  0  0  0  0  0  0
   17.7955   -5.1214    3.1990 C   0  0  0  0  0  0  0  0  0  0  0  0
   16.7962   -4.4884    3.8071 N   0  0  0  0  0  0  0  0  0  0  0  0
  1  2  1  0  0  0  0
  1  6  1  0  0  0  0
  2  3  2  0  0  0  0
  3  4  1  0  0  0  0
  4  5  2  0  0  0  0
  4 10  1  0  0  0  0
  5  6  1  0  0  0  0
  5  8  1  0  0  0  0
  6  7  2  0  0  0  0
  8  9  1  0  0  0  0
  9 10  2  0  0  0  0
M  END
>  <CHROM.1>
17.67047928,-2.68538857,3.05085039,1.43216813,0.55546901,-0.11022147

>  <Name>
ligand

>  <RI>
0

>  <Rbt.Current_Directory>
/home/itssahil/PROJECTS/Mol_Feturizer/New_Systems/rnas/4NYD

>  <Rbt.Executable>
rbdock ($Id: //depot/dev/client3/rdock/2013.1/src/exe/rbdock.cxx#4 $)

>  <Rbt.Library>
libRbt.so (2013.1, Build901 2013/11/27)

>  <Rbt.Parameter_File>
/export/apps/rDock/src/rDock_2013.1_src/data/scripts/dock_solv.prm

>  <Rbt.Receptor>
prm/blind_docking_80.prm

>  <SCORE>
-23.8148

>  <SCORE.INTER>
-23.8148

>  <SCORE.INTER.CONST>
1

>  <SCORE.INTER.POLAR>
0

>  <SCORE.INTER.ROT>
0

>  <SCORE.INTER.SOLV>
3.50628

>  <SCORE.INTER.VDW>
-20.6453

>  <SCORE.INTER.norm>
-2.38148

>  <SCORE.INTRA>
0

>  <SCORE.INTRA.DIHEDRAL>
0

>  <SCORE.INTRA.DIHEDRAL.0>
0

>  <SCORE.INTRA.POLAR>
0

>  <SCORE.INTRA.POLAR.0>
0

>  <SCORE.INTRA.REPUL>
0

>  <SCORE.INTRA.REPUL.0>
0

>  <SCORE.INTRA.SOLV>
0

>  <SCORE.INTRA.SOLV.lig_0>
-4.1818

>  <SCORE.INTRA.VDW>
0

>  <SCORE.INTRA.VDW.0>
0

>  <SCORE.INTRA.norm>
0

>  <SCORE.RESTR>
0

>  <SCORE.RESTR.CAVITY>
0

>  <SCORE.RESTR.norm>
0

>  <SCORE.SYSTEM>
0

>  <SCORE.SYSTEM.CONST>
0

>  <SCORE.SYSTEM.DIHEDRAL>
0

>  <SCORE.SYSTEM.SOLV>
0

>  <SCORE.SYSTEM.norm>
0

>  <SCORE.heavy>
10

>  <SCORE.norm>
-2.38148

>  <RMSD>
3.162

$$$$
ligand
 OpenBabel11021811503D
libRbt.so/2013.1/901 2013/11/27
 10 11  0  0  0  0  0  0  0  0999 V2000
   17.6387   -0.6692    2.8207 N   0  0  0  0  0  0  0  0  0  0  0  0
   16.5336   -0.8377    3.5228 C   0  0  0  0  0  0  0  0  0  0  0  0
   16.1736   -2.1260    3.9320 N   0  0  0  0  0  0  0  0  0  0  0  0
   16.9409   -3.1722    3.5962 C   0  0  0  0  0  0  0  0  0  0  0  0
   18.0508   -2.9968    2.8830 C   0  0  0  0  0  0  0  0  0  0  0  0
   18.4261   -1.7795    2.4974 C   0  0  0  0  0  0  0  0  0  0  0  0
   19.4666   -1.6160    1.8623 O   0  0  0  0  0  0  0  0  0  0  0  0
   18.5672   -4.1970    2.6336 N   0  0  0  0  0  0  0  0  0  0  0  0
   17.7837   -5.1127    3.1945 C   0  0  0  0  0  0  0  0  0  0  0  0
   16.7825   -4.4765    3.7962 N   0  0  0  0  0  0  0  0  0  0  0  0
  1  2  1  0  0  0  0
  1  6  1  0  0  0  0
  2  3  2  0  0  0  0
  3  4  1  0  0  0  0
  4  5  2  0  0  0  0
  4 10  1  0  0  0  0
  5  6  1  0  0  0  0
  5  8  1  0  0  0  0
  6  7  2  0  0  0  0
  8  9  1  0  0  0  0
  9 10  2  0  0  0  0
M  END
>  <CHROM.1>
17.67074953,-2.67588727,3.05068969,1.42595356,0.54818716,-0.10483079

>  <Name>
ligand

>  <RI>
0

>  <Rbt.Current_Directory>
/home/itssahil/PROJECTS/Mol_Feturizer/New_Systems/rnas/4NYD

>  <Rbt.Executable>
rbdock ($Id: //depot/dev/client3/rdock/2013.1/src/exe/rbdock.cxx#4 $)

>  <Rbt.Library>
libRbt.so (2013.1, Build901 2013/11/27)

>  <Rbt.Parameter_File>
/export/apps/rDock/src/rDock_2013.1_src/data/scripts/dock_solv.prm

>  <Rbt.Receptor>
prm/pocket_docking_4.prm

>  <SCORE>
-23.773

>  <SCORE.INTER>
-23.773

>  <SCORE.INTER.CONST>
1

>  <SCORE.INTER.POLAR>
0

>  <SCORE.INTER.ROT>
0

>  <SCORE.INTER.SOLV>
3.50932

>  <SCORE.INTER.VDW>
-20.6185

>  <SCORE.INTER.norm>
-2.3773

>  <SCORE.INTRA>
0

>  <SCORE.INTRA.DIHEDRAL>
0

>  <SCORE.INTRA.DIHEDRAL.0>
0

>  <SCORE.INTRA.POLAR>
0

>  <SCORE.INTRA.POLAR.0>
0

>  <SCORE.INTRA.REPUL>
0

>  <SCORE.INTRA.REPUL.0>
0

>  <SCORE.INTRA.SOLV>
0

>  <SCORE.INTRA.SOLV.lig_0>
-4.1818

>  <SCORE.INTRA.VDW>
0

>  <SCORE.INTRA.VDW.0>
0

>  <SCORE.INTRA.norm>
0

>  <SCORE.RESTR>
0

>  <SCORE.RESTR.CAVITY>
0

>  <SCORE.RESTR.norm>
0

>  <SCORE.SYSTEM>
0

>  <SCORE.SYSTEM.CONST>
0

>  <SCORE.SYSTEM.DIHEDRAL>
0

>  <SCORE.SYSTEM.SOLV>
0

>  <SCORE.SYSTEM.norm>
0

>  <SCORE.heavy>
10

>  <SCORE.norm>
-2.3773

>  <RMSD>
3.162

$$$$
ligand
 OpenBabel11021811503D
libRbt.so/2013.1/901 2013/11/27
 10 11  0  0  0  0  0  0  0  0999 V2000
   17.5669   -0.6955    2.8285 N   0  0  0  0  0  0  0  0  0  0  0  0
   16.4740   -0.9164    3.5350 C   0  0  0  0  0  0  0  0  0  0  0  0
   16.1642   -2.2239    3.9240 N   0  0  0  0  0  0  0  0  0  0  0  0
   16.9667   -3.2354    3.5647 C   0  0  0  0  0  0  0  0  0  0  0  0
   18.0641   -3.0072    2.8471 C   0  0  0  0  0  0  0  0  0  0  0  0
   18.3919   -1.7705    2.4804 C   0  0  0  0  0  0  0  0  0  0  0  0
   19.4210   -1.5582    1.8412 O   0  0  0  0  0  0  0  0  0  0  0  0
   18.6220   -4.1832    2.5732 N   0  0  0  0  0  0  0  0  0  0  0  0
   17.8765   -5.1365    3.1233 C   0  0  0  0  0  0  0  0  0  0  0  0
   16.8574   -4.5479    3.7429 N   0  0  0  0  0  0  0  0  0  0  0  0
  1  2  1  0  0  0  0
  1  6  1  0  0  0  0
  2  3  2  0  0  0  0
  3  4  1  0  0  0  0
  4  5  2  0  0  0  0
  4 10  1  0  0  0  0
  5  6  1  0  0  0  0
  5  8  1  0  0  0  0
  6  7  2  0  0  0  0
  8  9  1  0  0  0  0
  9 10  2  0  0  0  0
M  END
>  <CHROM.1>
17.67381540,-2.70336616,3.02301042,1.46942556,0.55136030,-0.11014249

>  <Name>
ligand

>  <RI>
0

>  <Rbt.Current_Directory>
/home/itssahil/PROJECTS/Mol_Feturizer/New_Systems/rnas/4NYD

>  <Rbt.Executable>
rbdock ($Id: //depot/dev/client3/rdock/2013.1/src/exe/rbdock.cxx#4 $)

>  <Rbt.Library>
libRbt.so (2013.1, Build901 2013/11/27)

>  <Rbt.Parameter_File>
/export/apps/rDock/src/rDock_2013.1_src/data/scripts/dock_solv.prm

>  <Rbt.Receptor>
prm/pocket_docking_4.prm

>  <SCORE>
-23.8487

>  <SCORE.INTER>
-23.8487

>  <SCORE.INTER.CONST>
1

>  <SCORE.INTER.POLAR>
0

>  <SCORE.INTER.ROT>
0

>  <SCORE.INTER.SOLV>
3.48092

>  <SCORE.INTER.VDW>
-20.6595

>  <SCORE.INTER.norm>
-2.38487

>  <SCORE.INTRA>
0

>  <SCORE.INTRA.DIHEDRAL>
0

>  <SCORE.INTRA.DIHEDRAL.0>
0

>  <SCORE.INTRA.POLAR>
0

>  <SCORE.INTRA.POLAR.0>
0

>  <SCORE.INTRA.REPUL>
0

>  <SCORE.INTRA.REPUL.0>
0

>  <SCORE.INTRA.SOLV>
0

>  <SCORE.INTRA.SOLV.lig_0>
-4.1818

>  <SCORE.INTRA.VDW>
0

>  <SCORE.INTRA.VDW.0>
0

>  <SCORE.INTRA.norm>
0

>  <SCORE.RESTR>
0

>  <SCORE.RESTR.CAVITY>
0

>  <SCORE.RESTR.norm>
0

>  <SCORE.SYSTEM>
0

>  <SCORE.SYSTEM.CONST>
0

>  <SCORE.SYSTEM.DIHEDRAL>
0

>  <SCORE.SYSTEM.SOLV>
0

>  <SCORE.SYSTEM.norm>
0

>  <SCORE.heavy>
10

>  <SCORE.norm>
-2.38487

>  <RMSD>
3.162

$$$$
ligand
 OpenBabel11021811503D
libRbt.so/2013.1/901 2013/11/27
 10 11  0  0  0  0  0  0  0  0999 V2000
   17.6306   -0.6796    2.8141 N   0  0  0  0  0  0  0  0  0  0  0  0
   16.5360   -0.8499    3.5319 C   0  0  0  0  0  0  0  0  0  0  0  0
   16.1831   -2.1391    3.9448 N   0  0  0  0  0  0  0  0  0  0  0  0
   16.9464   -3.1842    3.5967 C   0  0  0  0  0  0  0  0  0  0  0  0
   18.0457   -3.0069    2.8676 C   0  0  0  0  0  0  0  0  0  0  0  0
   18.4142   -1.7888    2.4780 C   0  0  0  0  0  0  0  0  0  0  0  0
   19.4452   -1.6237    1.8280 O   0  0  0  0  0  0  0  0  0  0  0  0
   18.5594   -4.2063    2.6093 N   0  0  0  0  0  0  0  0  0  0  0  0
   17.7850   -5.1234    3.1805 C   0  0  0  0  0  0  0  0  0  0  0  0
   16.7921   -4.4889    3.7974 N   0  0  0  0  0  0  0  0  0  0  0  0
  1  2  1  0  0  0  0
  1  6  1  0  0  0  0
  2  3  2  0  0  0  0
  3  4  1  0  0  0  0
  4  5  2  0  0  0  0
  4 10  1  0  0  0  0
  5  6  1  0  0  0  0
  5  8  1  0  0  0  0
  6  7  2  0  0  0  0
  8  9  1  0  0  0  0
  9 10  2  0  0  0  0
M  END
>  <CHROM.1>
17.66778046,-2.68654161,3.04116532,1.42880486,0.56258482,-0.10516211

>  <Name>
ligand

>  <RI>
0

>  <Rbt.Current_Directory>
/home/itssahil/PROJECTS/Mol_Feturizer/New_Systems/rnas/4NYD

>  <Rbt.Executable>
rbdock ($Id: //depot/dev/client3/rdock/2013.1/src/exe/rbdock.cxx#4 $)

>  <Rbt.Library>
libRbt.so (2013.1, Build901 2013/11/27)

>  <Rbt.Parameter_File>
/export/apps/rDock/src/rDock_2013.1_src/data/scripts/dock_solv.prm

>  <Rbt.Receptor>
prm/pocket_docking_4.prm

>  <SCORE>
-23.8112

>  <SCORE.INTER>
-23.8112

>  <SCORE.INTER.CONST>
1

>  <SCORE.INTER.POLAR>
0

>  <SCORE.INTER.ROT>
0

>  <SCORE.INTER.SOLV>
3.50679

>  <SCORE.INTER.VDW>
-20.6431

>  <SCORE.INTER.norm>
-2.38112

>  <SCORE.INTRA>
0

>  <SCORE.INTRA.DIHEDRAL>
0

>  <SCORE.INTRA.DIHEDRAL.0>
0

>  <SCORE.INTRA.POLAR>
0

>  <SCORE.INTRA.POLAR.0>
0

>  <SCORE.INTRA.REPUL>
0

>  <SCORE.INTRA.REPUL.0>
0

>  <SCORE.INTRA.SOLV>
0

>  <SCORE.INTRA.SOLV.lig_0>
-4.1818

>  <SCORE.INTRA.VDW>
0

>  <SCORE.INTRA.VDW.0>
0

>  <SCORE.INTRA.norm>
0

>  <SCORE.RESTR>
0

>  <SCORE.RESTR.CAVITY>
0

>  <SCORE.RESTR.norm>
0

>  <SCORE.SYSTEM>
0

>  <SCORE.SYSTEM.CONST>
0

>  <SCORE.SYSTEM.DIHEDRAL>
0

>  <SCORE.SYSTEM.SOLV>
0

>  <SCORE.SYSTEM.norm>
0

>  <SCORE.heavy>
10

>  <SCORE.norm>
-2.38112

>  <RMSD>
3.162

$$$$
ligand
 OpenBabel11021811503D
libRbt.so/2013.1/901 2013/11/27
 10 11  0  0  0  0  0  0  0  0999 V2000
   17.6304   -0.6780    2.8211 N   0  0  0  0  0  0  0  0  0  0  0  0
   16.5293   -0.8498    3.5285 C   0  0  0  0  0  0  0  0  0  0  0  0
   16.1766   -2.1388    3.9418 N   0  0  0  0  0  0  0  0  0  0  0  0
   16.9467   -3.1825    3.6045 C   0  0  0  0  0  0  0  0  0  0  0  0
   18.0526   -3.0037    2.8858 C   0  0  0  0  0  0  0  0  0  0  0  0
   18.4210   -1.7856    2.4962 C   0  0  0  0  0  0  0  0  0  0  0  0
   19.4579   -1.6190    1.8560 O   0  0  0  0  0  0  0  0  0  0  0  0
   18.5728   -4.2022    2.6363 N   0  0  0  0  0  0  0  0  0  0  0  0
   17.7957   -5.1201    3.2025 C   0  0  0  0  0  0  0  0  0  0  0  0
   16.7947   -4.4870    3.8076 N   0  0  0  0  0  0  0  0  0  0  0  0
  1  2  1  0  0  0  0
  1  6  1  0  0  0  0
  2  3  2  0  0  0  0
  3  4  1  0  0  0  0
  4  5  2  0  0  0  0
  4 10  1  0  0  0  0
  5  6  1  0  0  0  0
  5  8  1  0  0  0  0
  6  7  2  0  0  0  0
  8  9  1  0  0  0  0
  9 10  2  0  0  0  0
M  END
>  <CHROM.1>
17.67194285,-2.68410536,3.05464219,1.43140274,0.55234091,-0.10956096

>  <Name>
ligand

>  <RI>
0

>  <Rbt.Current_Directory>
/home/itssahil/PROJECTS/Mol_Feturizer/New_Systems/rnas/4NYD

>  <Rbt.Executable>
rbdock ($Id: //depot/dev/client3/rdock/2013.1/src/exe/rbdock.cxx#4 $)

>  <Rbt.Library>
libRbt.so (2013.1, Build901 2013/11/27)

>  <Rbt.Parameter_File>
/export/apps/rDock/src/rDock_2013.1_src/data/scripts/dock_solv.prm

>  <Rbt.Receptor>
prm/pocket_docking_6.prm

>  <SCORE>
-23.8133

>  <SCORE.INTER>
-23.8133

>  <SCORE.INTER.CONST>
1

>  <SCORE.INTER.POLAR>
0

>  <SCORE.INTER.ROT>
0

>  <SCORE.INTER.SOLV>
3.50944

>  <SCORE.INTER.VDW>
-20.6454

>  <SCORE.INTER.norm>
-2.38133

>  <SCORE.INTRA>
0

>  <SCORE.INTRA.DIHEDRAL>
0

>  <SCORE.INTRA.DIHEDRAL.0>
0

>  <SCORE.INTRA.POLAR>
0

>  <SCORE.INTRA.POLAR.0>
0

>  <SCORE.INTRA.REPUL>
0

>  <SCORE.INTRA.REPUL.0>
0

>  <SCORE.INTRA.SOLV>
0

>  <SCORE.INTRA.SOLV.lig_0>
-4.1818

>  <SCORE.INTRA.VDW>
0

>  <SCORE.INTRA.VDW.0>
0

>  <SCORE.INTRA.norm>
0

>  <SCORE.RESTR>
0

>  <SCORE.RESTR.CAVITY>
0

>  <SCORE.RESTR.norm>
0

>  <SCORE.SYSTEM>
0

>  <SCORE.SYSTEM.CONST>
0

>  <SCORE.SYSTEM.DIHEDRAL>
0

>  <SCORE.SYSTEM.SOLV>
0

>  <SCORE.SYSTEM.norm>
0

>  <SCORE.heavy>
10

>  <SCORE.norm>
-2.38133

>  <RMSD>
3.162

$$$$
ligand
 OpenBabel11021811503D
libRbt.so/2013.1/901 2013/11/27
 10 11  0  0  0  0  0  0  0  0999 V2000
   17.6313   -0.6775    2.8210 N   0  0  0  0  0  0  0  0  0  0  0  0
   16.5336   -0.8478    3.5340 C   0  0  0  0  0  0  0  0  0  0  0  0
   16.1802   -2.1366    3.9475 N   0  0  0  0  0  0  0  0  0  0  0  0
   16.9463   -3.1815    3.6048 C   0  0  0  0  0  0  0  0  0  0  0  0
   18.0488   -3.0042    2.8805 C   0  0  0  0  0  0  0  0  0  0  0  0
   18.4177   -1.7864    2.4905 C   0  0  0  0  0  0  0  0  0  0  0  0
   19.4516   -1.6213    1.8451 O   0  0  0  0  0  0  0  0  0  0  0  0
   18.5650   -4.2035    2.6267 N   0  0  0  0  0  0  0  0  0  0  0  0
   17.7889   -5.1205    3.1959 C   0  0  0  0  0  0  0  0  0  0  0  0
   16.7925   -4.4860    3.8071 N   0  0  0  0  0  0  0  0  0  0  0  0
  1  2  1  0  0  0  0
  1  6  1  0  0  0  0
  2  3  2  0  0  0  0
  3  4  1  0  0  0  0
  4  5  2  0  0  0  0
  4 10  1  0  0  0  0
  5  6  1  0  0  0  0
  5  8  1  0  0  0  0
  6  7  2  0  0  0  0
  8  9  1  0  0  0  0
  9 10  2  0  0  0  0
M  END
>  <CHROM.1>
17.66968877,-2.68397175,3.05177110,1.42953415,0.55781354,-0.10731167

>  <Name>
ligand

>  <RI>
0

>  <Rbt.Current_Directory>
/home/itssahil/PROJECTS/Mol_Feturizer/New_Systems/rnas/4NYD

>  <Rbt.Executable>
rbdock ($Id: //depot/dev/client3/rdock/2013.1/src/exe/rbdock.cxx#4 $)

>  <Rbt.Library>
libRbt.so (2013.1, Build901 2013/11/27)

>  <Rbt.Parameter_File>
/export/apps/rDock/src/rDock_2013.1_src/data/scripts/dock_solv.prm

>  <Rbt.Receptor>
prm/blind_docking_100.prm

>  <SCORE>
-23.8139

>  <SCORE.INTER>
-23.8139

>  <SCORE.INTER.CONST>
1

>  <SCORE.INTER.POLAR>
0

>  <SCORE.INTER.ROT>
0

>  <SCORE.INTER.SOLV>
3.5114

>  <SCORE.INTER.VDW>
-20.6464

>  <SCORE.INTER.norm>
-2.38139

>  <SCORE.INTRA>
0

>  <SCORE.INTRA.DIHEDRAL>
0

>  <SCORE.INTRA.DIHEDRAL.0>
0

>  <SCORE.INTRA.POLAR>
0

>  <SCORE.INTRA.POLAR.0>
0

>  <SCORE.INTRA.REPUL>
0

>  <SCORE.INTRA.REPUL.0>
0

>  <SCORE.INTRA.SOLV>
0

>  <SCORE.INTRA.SOLV.lig_0>
-4.1818

>  <SCORE.INTRA.VDW>
0

>  <SCORE.INTRA.VDW.0>
0

>  <SCORE.INTRA.norm>
0

>  <SCORE.RESTR>
0

>  <SCORE.RESTR.CAVITY>
0

>  <SCORE.RESTR.norm>
0

>  <SCORE.SYSTEM>
0

>  <SCORE.SYSTEM.CONST>
0

>  <SCORE.SYSTEM.DIHEDRAL>
0

>  <SCORE.SYSTEM.SOLV>
0

>  <SCORE.SYSTEM.norm>
0

>  <SCORE.heavy>
10

>  <SCORE.norm>
-2.38139

>  <RMSD>
3.163

$$$$
ligand
 OpenBabel11021811503D
libRbt.so/2013.1/901 2013/11/27
 10 11  0  0  0  0  0  0  0  0999 V2000
   17.5504   -0.7028    2.7985 N   0  0  0  0  0  0  0  0  0  0  0  0
   16.4650   -0.9210    3.5174 C   0  0  0  0  0  0  0  0  0  0  0  0
   16.1641   -2.2258    3.9221 N   0  0  0  0  0  0  0  0  0  0  0  0
   16.9672   -3.2376    3.5652 C   0  0  0  0  0  0  0  0  0  0  0  0
   18.0569   -3.0122    2.8351 C   0  0  0  0  0  0  0  0  0  0  0  0
   18.3763   -1.7779    2.4531 C   0  0  0  0  0  0  0  0  0  0  0  0
   19.3985   -1.5678    1.8022 O   0  0  0  0  0  0  0  0  0  0  0  0
   18.6169   -4.1887    2.5674 N   0  0  0  0  0  0  0  0  0  0  0  0
   17.8805   -5.1394    3.1338 C   0  0  0  0  0  0  0  0  0  0  0  0
   16.8649   -4.5487    3.7572 N   0  0  0  0  0  0  0  0  0  0  0  0
  1  2  1  0  0  0  0
  1  6  1  0  0  0  0
  2  3  2  0  0  0  0
  3  4  1  0  0  0  0
  4  5  2  0  0  0  0
  4 10  1  0  0  0  0
  5  6  1  0  0  0  0
  5  8  1  0  0  0  0
  6  7  2  0  0  0  0
  8  9  1  0  0  0  0
  9 10  2  0  0  0  0
M  END
>  <CHROM.1>
17.66711506,-2.70815969,3.01163611,1.47533531,0.56025806,-0.12305710

>  <Name>
ligand

>  <RI>
0

>  <Rbt.Current_Directory>
/home/itssahil/PROJECTS/Mol_Feturizer/New_Systems/rnas/4NYD

>  <Rbt.Executable>
rbdock ($Id: //depot/dev/client3/rdock/2013.1/src/exe/rbdock.cxx#4 $)

>  <Rbt.Library>
libRbt.so (2013.1, Build901 2013/11/27)

>  <Rbt.Parameter_File>
/export/apps/rDock/src/rDock_2013.1_src/data/scripts/dock_solv.prm

>  <Rbt.Receptor>
prm/blind_docking_40.prm

>  <SCORE>
-23.8454

>  <SCORE.INTER>
-23.8454

>  <SCORE.INTER.CONST>
1

>  <SCORE.INTER.POLAR>
0

>  <SCORE.INTER.ROT>
0

>  <SCORE.INTER.SOLV>
3.46091

>  <SCORE.INTER.VDW>
-20.6506

>  <SCORE.INTER.norm>
-2.38454

>  <SCORE.INTRA>
0

>  <SCORE.INTRA.DIHEDRAL>
0

>  <SCORE.INTRA.DIHEDRAL.0>
0

>  <SCORE.INTRA.POLAR>
0

>  <SCORE.INTRA.POLAR.0>
0

>  <SCORE.INTRA.REPUL>
0

>  <SCORE.INTRA.REPUL.0>
0

>  <SCORE.INTRA.SOLV>
0

>  <SCORE.INTRA.SOLV.lig_0>
-4.1818

>  <SCORE.INTRA.VDW>
0

>  <SCORE.INTRA.VDW.0>
0

>  <SCORE.INTRA.norm>
0

>  <SCORE.RESTR>
0

>  <SCORE.RESTR.CAVITY>
0

>  <SCORE.RESTR.norm>
0

>  <SCORE.SYSTEM>
0

>  <SCORE.SYSTEM.CONST>
0

>  <SCORE.SYSTEM.DIHEDRAL>
0

>  <SCORE.SYSTEM.SOLV>
0

>  <SCORE.SYSTEM.norm>
0

>  <SCORE.heavy>
10

>  <SCORE.norm>
-2.38454

>  <RMSD>
3.163

$$$$
ligand
 OpenBabel11021811503D
libRbt.so/2013.1/901 2013/11/27
 10 11  0  0  0  0  0  0  0  0999 V2000
   17.5558   -0.7052    2.8090 N   0  0  0  0  0  0  0  0  0  0  0  0
   16.4699   -0.9237    3.5269 C   0  0  0  0  0  0  0  0  0  0  0  0
   16.1663   -2.2293    3.9270 N   0  0  0  0  0  0  0  0  0  0  0  0
   16.9674   -3.2415    3.5667 C   0  0  0  0  0  0  0  0  0  0  0  0
   18.0577   -3.0157    2.8377 C   0  0  0  0  0  0  0  0  0  0  0  0
   18.3797   -1.7808    2.4601 C   0  0  0  0  0  0  0  0  0  0  0  0
   19.4025   -1.5706    1.8102 O   0  0  0  0  0  0  0  0  0  0  0  0
   18.6153   -4.1924    2.5660 N   0  0  0  0  0  0  0  0  0  0  0  0
   17.8769   -5.1436    3.1290 C   0  0  0  0  0  0  0  0  0  0  0  0
   16.8623   -4.5531    3.7541 N   0  0  0  0  0  0  0  0  0  0  0  0
  1  2  1  0  0  0  0
  1  6  1  0  0  0  0
  2  3  2  0  0  0  0
  3  4  1  0  0  0  0
  4  5  2  0  0  0  0
  4 10  1  0  0  0  0
  5  6  1  0  0  0  0
  5  8  1  0  0  0  0
  6  7  2  0  0  0  0
  8  9  1  0  0  0  0
  9 10  2  0  0  0  0
M  END
>  <CHROM.1>
17.66846253,-2.71154889,3.01518700,1.47291546,0.56027200,-0.11828979

>  <Name>
ligand

>  <RI>
0

>  <Rbt.Current_Directory>
/home/itssahil/PROJECTS/Mol_Feturizer/New_Systems/rnas/4NYD

>  <Rbt.Executable>
rbdock ($Id: //depot/dev/client3/rdock/2013.1/src/exe/rbdock.cxx#4 $)

>  <Rbt.Library>
libRbt.so (2013.1, Build901 2013/11/27)

>  <Rbt.Parameter_File>
/export/apps/rDock/src/rDock_2013.1_src/data/scripts/dock_solv.prm

>  <Rbt.Receptor>
prm/blind_docking_80.prm

>  <SCORE>
-23.8461

>  <SCORE.INTER>
-23.8461

>  <SCORE.INTER.CONST>
1

>  <SCORE.INTER.POLAR>
0

>  <SCORE.INTER.ROT>
0

>  <SCORE.INTER.SOLV>
3.4688

>  <SCORE.INTER.VDW>
-20.6537

>  <SCORE.INTER.norm>
-2.38461

>  <SCORE.INTRA>
0

>  <SCORE.INTRA.DIHEDRAL>
0

>  <SCORE.INTRA.DIHEDRAL.0>
0

>  <SCORE.INTRA.POLAR>
0

>  <SCORE.INTRA.POLAR.0>
0

>  <SCORE.INTRA.REPUL>
0

>  <SCORE.INTRA.REPUL.0>
0

>  <SCORE.INTRA.SOLV>
0

>  <SCORE.INTRA.SOLV.lig_0>
-4.1818

>  <SCORE.INTRA.VDW>
0

>  <SCORE.INTRA.VDW.0>
0

>  <SCORE.INTRA.norm>
0

>  <SCORE.RESTR>
0

>  <SCORE.RESTR.CAVITY>
0

>  <SCORE.RESTR.norm>
0

>  <SCORE.SYSTEM>
0

>  <SCORE.SYSTEM.CONST>
0

>  <SCORE.SYSTEM.DIHEDRAL>
0

>  <SCORE.SYSTEM.SOLV>
0

>  <SCORE.SYSTEM.norm>
0

>  <SCORE.heavy>
10

>  <SCORE.norm>
-2.38461

>  <RMSD>
3.163

$$$$
ligand
 OpenBabel11021811503D
libRbt.so/2013.1/901 2013/11/27
 10 11  0  0  0  0  0  0  0  0999 V2000
   17.6270   -0.6778    2.8168 N   0  0  0  0  0  0  0  0  0  0  0  0
   16.5306   -0.8491    3.5314 C   0  0  0  0  0  0  0  0  0  0  0  0
   16.1794   -2.1381    3.9460 N   0  0  0  0  0  0  0  0  0  0  0  0
   16.9463   -3.1822    3.6027 C   0  0  0  0  0  0  0  0  0  0  0  0
   18.0475   -3.0039    2.8768 C   0  0  0  0  0  0  0  0  0  0  0  0
   18.4144   -1.7858    2.4857 C   0  0  0  0  0  0  0  0  0  0  0  0
   19.4472   -1.6197    1.8388 O   0  0  0  0  0  0  0  0  0  0  0  0
   18.5649   -4.2027    2.6229 N   0  0  0  0  0  0  0  0  0  0  0  0
   17.7908   -5.1204    3.1935 C   0  0  0  0  0  0  0  0  0  0  0  0
   16.7944   -4.4868    3.8058 N   0  0  0  0  0  0  0  0  0  0  0  0
  1  2  1  0  0  0  0
  1  6  1  0  0  0  0
  2  3  2  0  0  0  0
  3  4  1  0  0  0  0
  4  5  2  0  0  0  0
  4 10  1  0  0  0  0
  5  6  1  0  0  0  0
  5  8  1  0  0  0  0
  6  7  2  0  0  0  0
  8  9  1  0  0  0  0
  9 10  2  0  0  0  0
M  END
>  <CHROM.1>
17.66829054,-2.68407823,3.04843835,1.43118111,0.55907352,-0.10864280

>  <Name>
ligand

>  <RI>
0

>  <Rbt.Current_Directory>
/home/itssahil/PROJECTS/Mol_Feturizer/New_Systems/rnas/4NYD

>  <Rbt.Executable>
rbdock ($Id: //depot/dev/client3/rdock/2013.1/src/exe/rbdock.cxx#4 $)

>  <Rbt.Library>
libRbt.so (2013.1, Build901 2013/11/27)

>  <Rbt.Parameter_File>
/export/apps/rDock/src/rDock_2013.1_src/data/scripts/dock_solv.prm

>  <Rbt.Receptor>
prm/pocket_docking_4.prm

>  <SCORE>
-23.8145

>  <SCORE.INTER>
-23.8145

>  <SCORE.INTER.CONST>
1

>  <SCORE.INTER.POLAR>
0

>  <SCORE.INTER.ROT>
0

>  <SCORE.INTER.SOLV>
3.50771

>  <SCORE.INTER.VDW>
-20.6456

>  <SCORE.INTER.norm>
-2.38145

>  <SCORE.INTRA>
0

>  <SCORE.INTRA.DIHEDRAL>
0

>  <SCORE.INTRA.DIHEDRAL.0>
0

>  <SCORE.INTRA.POLAR>
0

>  <SCORE.INTRA.POLAR.0>
0

>  <SCORE.INTRA.REPUL>
0

>  <SCORE.INTRA.REPUL.0>
0

>  <SCORE.INTRA.SOLV>
0

>  <SCORE.INTRA.SOLV.lig_0>
-4.1818

>  <SCORE.INTRA.VDW>
0

>  <SCORE.INTRA.VDW.0>
0

>  <SCORE.INTRA.norm>
0

>  <SCORE.RESTR>
0

>  <SCORE.RESTR.CAVITY>
0

>  <SCORE.RESTR.norm>
0

>  <SCORE.SYSTEM>
0

>  <SCORE.SYSTEM.CONST>
0

>  <SCORE.SYSTEM.DIHEDRAL>
0

>  <SCORE.SYSTEM.SOLV>
0

>  <SCORE.SYSTEM.norm>
0

>  <SCORE.heavy>
10

>  <SCORE.norm>
-2.38145

>  <RMSD>
3.163

$$$$
ligand
 OpenBabel11021811503D
libRbt.so/2013.1/901 2013/11/27
 10 11  0  0  0  0  0  0  0  0999 V2000
   17.5624   -0.6953    2.8269 N   0  0  0  0  0  0  0  0  0  0  0  0
   16.4709   -0.9167    3.5353 C   0  0  0  0  0  0  0  0  0  0  0  0
   16.1633   -2.2241    3.9263 N   0  0  0  0  0  0  0  0  0  0  0  0
   16.9664   -3.2351    3.5671 C   0  0  0  0  0  0  0  0  0  0  0  0
   18.0625   -3.0064    2.8475 C   0  0  0  0  0  0  0  0  0  0  0  0
   18.3882   -1.7697    2.4788 C   0  0  0  0  0  0  0  0  0  0  0  0
   19.4160   -1.5569    1.8378 O   0  0  0  0  0  0  0  0  0  0  0  0
   18.6214   -4.1820    2.5742 N   0  0  0  0  0  0  0  0  0  0  0  0
   17.8779   -5.1356    3.1265 C   0  0  0  0  0  0  0  0  0  0  0  0
   16.8590   -4.5475    3.7469 N   0  0  0  0  0  0  0  0  0  0  0  0
  1  2  1  0  0  0  0
  1  6  1  0  0  0  0
  2  3  2  0  0  0  0
  3  4  1  0  0  0  0
  4  5  2  0  0  0  0
  4 10  1  0  0  0  0
  5  6  1  0  0  0  0
  5  8  1  0  0  0  0
  6  7  2  0  0  0  0
  8  9  1  0  0  0  0
  9 10  2  0  0  0  0
M  END
>  <CHROM.1>
17.67207657,-2.70279540,3.02364568,1.47104872,0.55274018,-0.11216346

>  <Name>
ligand

>  <RI>
0

>  <Rbt.Current_Directory>
/home/itssahil/PROJECTS/Mol_Feturizer/New_Systems/rnas/4NYD

>  <Rbt.Executable>
rbdock ($Id: //depot/dev/client3/rdock/2013.1/src/exe/rbdock.cxx#4 $)

>  <Rbt.Library>
libRbt.so (2013.1, Build901 2013/11/27)

>  <Rbt.Parameter_File>
/export/apps/rDock/src/rDock_2013.1_src/data/scripts/dock_solv.prm

>  <Rbt.Receptor>
prm/pocket_docking_7.prm

>  <SCORE>
-23.809

>  <SCORE.INTER>
-23.809

>  <SCORE.INTER.CONST>
1

>  <SCORE.INTER.POLAR>
0

>  <SCORE.INTER.ROT>
0

>  <SCORE.INTER.SOLV>
3.48004

>  <SCORE.INTER.VDW>
-20.6327

>  <SCORE.INTER.norm>
-2.3809

>  <SCORE.INTRA>
0

>  <SCORE.INTRA.DIHEDRAL>
0

>  <SCORE.INTRA.DIHEDRAL.0>
0

>  <SCORE.INTRA.POLAR>
0

>  <SCORE.INTRA.POLAR.0>
0

>  <SCORE.INTRA.REPUL>
0

>  <SCORE.INTRA.REPUL.0>
0

>  <SCORE.INTRA.SOLV>
0

>  <SCORE.INTRA.SOLV.lig_0>
-4.1818

>  <SCORE.INTRA.VDW>
0

>  <SCORE.INTRA.VDW.0>
0

>  <SCORE.INTRA.norm>
0

>  <SCORE.RESTR>
0

>  <SCORE.RESTR.CAVITY>
0

>  <SCORE.RESTR.norm>
0

>  <SCORE.SYSTEM>
0

>  <SCORE.SYSTEM.CONST>
0

>  <SCORE.SYSTEM.DIHEDRAL>
0

>  <SCORE.SYSTEM.SOLV>
0

>  <SCORE.SYSTEM.norm>
0

>  <SCORE.heavy>
10

>  <SCORE.norm>
-2.3809

>  <RMSD>
3.163

$$$$
ligand
 OpenBabel11021811503D
libRbt.so/2013.1/901 2013/11/27
 10 11  0  0  0  0  0  0  0  0999 V2000
   17.5758   -0.7177    2.8370 N   0  0  0  0  0  0  0  0  0  0  0  0
   16.4717   -0.9252    3.5299 C   0  0  0  0  0  0  0  0  0  0  0  0
   16.1503   -2.2265    3.9301 N   0  0  0  0  0  0  0  0  0  0  0  0
   16.9533   -3.2458    3.5950 C   0  0  0  0  0  0  0  0  0  0  0  0
   18.0622   -3.0311    2.8909 C   0  0  0  0  0  0  0  0  0  0  0  0
   18.4009   -1.8004    2.5141 C   0  0  0  0  0  0  0  0  0  0  0  0
   19.4402   -1.6004    1.8876 O   0  0  0  0  0  0  0  0  0  0  0  0
   18.6187   -4.2128    2.6395 N   0  0  0  0  0  0  0  0  0  0  0  0
   17.8609   -5.1561    3.1900 C   0  0  0  0  0  0  0  0  0  0  0  0
   16.8355   -4.5556    3.7873 N   0  0  0  0  0  0  0  0  0  0  0  0
  1  2  1  0  0  0  0
  1  6  1  0  0  0  0
  2  3  2  0  0  0  0
  3  4  1  0  0  0  0
  4  5  2  0  0  0  0
  4 10  1  0  0  0  0
  5  6  1  0  0  0  0
  5  8  1  0  0  0  0
  6  7  2  0  0  0  0
  8  9  1  0  0  0  0
  9 10  2  0  0  0  0
M  END
>  <CHROM.1>
17.67074856,-2.72348130,3.05731193,1.46230764,0.53727516,-0.11857174

>  <Name>
ligand

>  <RI>
0

>  <Rbt.Current_Directory>
/home/itssahil/PROJECTS/Mol_Feturizer/New_Systems/rnas/4NYD

>  <Rbt.Executable>
rbdock ($Id: //depot/dev/client3/rdock/2013.1/src/exe/rbdock.cxx#4 $)

>  <Rbt.Library>
libRbt.so (2013.1, Build901 2013/11/27)

>  <Rbt.Parameter_File>
/export/apps/rDock/src/rDock_2013.1_src/data/scripts/dock_solv.prm

>  <Rbt.Receptor>
prm/blind_docking_80.prm

>  <SCORE>
-23.8029

>  <SCORE.INTER>
-23.8029

>  <SCORE.INTER.CONST>
1

>  <SCORE.INTER.POLAR>
0

>  <SCORE.INTER.ROT>
0

>  <SCORE.INTER.SOLV>
3.50027

>  <SCORE.INTER.VDW>
-20.6353

>  <SCORE.INTER.norm>
-2.38029

>  <SCORE.INTRA>
0

>  <SCORE.INTRA.DIHEDRAL>
0

>  <SCORE.INTRA.DIHEDRAL.0>
0

>  <SCORE.INTRA.POLAR>
0

>  <SCORE.INTRA.POLAR.0>
0

>  <SCORE.INTRA.REPUL>
0

>  <SCORE.INTRA.REPUL.0>
0

>  <SCORE.INTRA.SOLV>
0

>  <SCORE.INTRA.SOLV.lig_0>
-4.1818

>  <SCORE.INTRA.VDW>
0

>  <SCORE.INTRA.VDW.0>
0

>  <SCORE.INTRA.norm>
0

>  <SCORE.RESTR>
0

>  <SCORE.RESTR.CAVITY>
0

>  <SCORE.RESTR.norm>
0

>  <SCORE.SYSTEM>
0

>  <SCORE.SYSTEM.CONST>
0

>  <SCORE.SYSTEM.DIHEDRAL>
0

>  <SCORE.SYSTEM.SOLV>
0

>  <SCORE.SYSTEM.norm>
0

>  <SCORE.heavy>
10

>  <SCORE.norm>
-2.38029

>  <RMSD>
3.164

$$$$
ligand
 OpenBabel11021811503D
libRbt.so/2013.1/901 2013/11/27
 10 11  0  0  0  0  0  0  0  0999 V2000
   17.5967   -0.7009    2.8638 N   0  0  0  0  0  0  0  0  0  0  0  0
   16.4980   -0.9071    3.5656 C   0  0  0  0  0  0  0  0  0  0  0  0
   16.1674   -2.2107    3.9506 N   0  0  0  0  0  0  0  0  0  0  0  0
   16.9561   -3.2332    3.5922 C   0  0  0  0  0  0  0  0  0  0  0  0
   18.0596   -3.0198    2.8793 C   0  0  0  0  0  0  0  0  0  0  0  0
   18.4070   -1.7873    2.5164 C   0  0  0  0  0  0  0  0  0  0  0  0
   19.4416   -1.5889    1.8816 O   0  0  0  0  0  0  0  0  0  0  0  0
   18.6010   -4.2034    2.6049 N   0  0  0  0  0  0  0  0  0  0  0  0
   17.8394   -5.1467    3.1501 C   0  0  0  0  0  0  0  0  0  0  0  0
   16.8267   -4.5443    3.7670 N   0  0  0  0  0  0  0  0  0  0  0  0
  1  2  1  0  0  0  0
  1  6  1  0  0  0  0
  2  3  2  0  0  0  0
  3  4  1  0  0  0  0
  4  5  2  0  0  0  0
  4 10  1  0  0  0  0
  5  6  1  0  0  0  0
  5  8  1  0  0  0  0
  6  7  2  0  0  0  0
  8  9  1  0  0  0  0
  9 10  2  0  0  0  0
M  END
>  <CHROM.1>
17.67315079,-2.71055828,3.05430766,1.45168525,0.54910918,-0.09871454

>  <Name>
ligand

>  <RI>
0

>  <Rbt.Current_Directory>
/home/itssahil/PROJECTS/Mol_Feturizer/New_Systems/rnas/4NYD

>  <Rbt.Executable>
rbdock ($Id: //depot/dev/client3/rdock/2013.1/src/exe/rbdock.cxx#4 $)

>  <Rbt.Library>
libRbt.so (2013.1, Build901 2013/11/27)

>  <Rbt.Parameter_File>
/export/apps/rDock/src/rDock_2013.1_src/data/scripts/dock_solv.prm

>  <Rbt.Receptor>
prm/pocket_docking_4.prm

>  <SCORE>
-23.8021

>  <SCORE.INTER>
-23.8021

>  <SCORE.INTER.CONST>
1

>  <SCORE.INTER.POLAR>
0

>  <SCORE.INTER.ROT>
0

>  <SCORE.INTER.SOLV>
3.52107

>  <SCORE.INTER.VDW>
-20.6418

>  <SCORE.INTER.norm>
-2.38021

>  <SCORE.INTRA>
0

>  <SCORE.INTRA.DIHEDRAL>
0

>  <SCORE.INTRA.DIHEDRAL.0>
0

>  <SCORE.INTRA.POLAR>
0

>  <SCORE.INTRA.POLAR.0>
0

>  <SCORE.INTRA.REPUL>
0

>  <SCORE.INTRA.REPUL.0>
0

>  <SCORE.INTRA.SOLV>
0

>  <SCORE.INTRA.SOLV.lig_0>
-4.1818

>  <SCORE.INTRA.VDW>
0

>  <SCORE.INTRA.VDW.0>
0

>  <SCORE.INTRA.norm>
0

>  <SCORE.RESTR>
0

>  <SCORE.RESTR.CAVITY>
0

>  <SCORE.RESTR.norm>
0

>  <SCORE.SYSTEM>
0

>  <SCORE.SYSTEM.CONST>
0

>  <SCORE.SYSTEM.DIHEDRAL>
0

>  <SCORE.SYSTEM.SOLV>
0

>  <SCORE.SYSTEM.norm>
0

>  <SCORE.heavy>
10

>  <SCORE.norm>
-2.38021

>  <RMSD>
3.164

$$$$
ligand
 OpenBabel11021811503D
libRbt.so/2013.1/901 2013/11/27
 10 11  0  0  0  0  0  0  0  0999 V2000
   17.5411   -0.7065    2.7875 N   0  0  0  0  0  0  0  0  0  0  0  0
   16.4580   -0.9252    3.5097 C   0  0  0  0  0  0  0  0  0  0  0  0
   16.1621   -2.2293    3.9204 N   0  0  0  0  0  0  0  0  0  0  0  0
   16.9676   -3.2401    3.5658 C   0  0  0  0  0  0  0  0  0  0  0  0
   18.0550   -3.0142    2.8324 C   0  0  0  0  0  0  0  0  0  0  0  0
   18.3696   -1.7805    2.4448 C   0  0  0  0  0  0  0  0  0  0  0  0
   19.3898   -1.5698    1.7908 O   0  0  0  0  0  0  0  0  0  0  0  0
   18.6181   -4.1900    2.5684 N   0  0  0  0  0  0  0  0  0  0  0  0
   17.8860   -5.1407    3.1403 C   0  0  0  0  0  0  0  0  0  0  0  0
   16.8698   -4.5507    3.7634 N   0  0  0  0  0  0  0  0  0  0  0  0
  1  2  1  0  0  0  0
  1  6  1  0  0  0  0
  2  3  2  0  0  0  0
  3  4  1  0  0  0  0
  4  5  2  0  0  0  0
  4 10  1  0  0  0  0
  5  6  1  0  0  0  0
  5  8  1  0  0  0  0
  6  7  2  0  0  0  0
  8  9  1  0  0  0  0
  9 10  2  0  0  0  0
M  END
>  <CHROM.1>
17.66462399,-2.71066210,3.00861089,1.47937153,0.56202246,-0.12930345

>  <Name>
ligand

>  <RI>
0

>  <Rbt.Current_Directory>
/home/itssahil/PROJECTS/Mol_Feturizer/New_Systems/rnas/4NYD

>  <Rbt.Executable>
rbdock ($Id: //depot/dev/client3/rdock/2013.1/src/exe/rbdock.cxx#4 $)

>  <Rbt.Library>
libRbt.so (2013.1, Build901 2013/11/27)

>  <Rbt.Parameter_File>
/export/apps/rDock/src/rDock_2013.1_src/data/scripts/dock_solv.prm

>  <Rbt.Receptor>
prm/pocket_docking_5.prm

>  <SCORE>
-23.8371

>  <SCORE.INTER>
-23.8371

>  <SCORE.INTER.CONST>
1

>  <SCORE.INTER.POLAR>
0

>  <SCORE.INTER.ROT>
0

>  <SCORE.INTER.SOLV>
3.45332

>  <SCORE.INTER.VDW>
-20.6425

>  <SCORE.INTER.norm>
-2.38371

>  <SCORE.INTRA>
0

>  <SCORE.INTRA.DIHEDRAL>
0

>  <SCORE.INTRA.DIHEDRAL.0>
0

>  <SCORE.INTRA.POLAR>
0

>  <SCORE.INTRA.POLAR.0>
0

>  <SCORE.INTRA.REPUL>
0

>  <SCORE.INTRA.REPUL.0>
0

>  <SCORE.INTRA.SOLV>
0

>  <SCORE.INTRA.SOLV.lig_0>
-4.1818

>  <SCORE.INTRA.VDW>
0

>  <SCORE.INTRA.VDW.0>
0

>  <SCORE.INTRA.norm>
0

>  <SCORE.RESTR>
0

>  <SCORE.RESTR.CAVITY>
0

>  <SCORE.RESTR.norm>
0

>  <SCORE.SYSTEM>
0

>  <SCORE.SYSTEM.CONST>
0

>  <SCORE.SYSTEM.DIHEDRAL>
0

>  <SCORE.SYSTEM.SOLV>
0

>  <SCORE.SYSTEM.norm>
0

>  <SCORE.heavy>
10

>  <SCORE.norm>
-2.38371

>  <RMSD>
3.164

$$$$
ligand
 OpenBabel11021811503D
libRbt.so/2013.1/901 2013/11/27
 10 11  0  0  0  0  0  0  0  0999 V2000
   17.6225   -0.6779    2.8101 N   0  0  0  0  0  0  0  0  0  0  0  0
   16.5274   -0.8484    3.5270 C   0  0  0  0  0  0  0  0  0  0  0  0
   16.1784   -2.1367    3.9460 N   0  0  0  0  0  0  0  0  0  0  0  0
   16.9460   -3.1808    3.6046 C   0  0  0  0  0  0  0  0  0  0  0  0
   18.0458   -3.0034    2.8764 C   0  0  0  0  0  0  0  0  0  0  0  0
   18.4107   -1.7860    2.4810 C   0  0  0  0  0  0  0  0  0  0  0  0
   19.4422   -1.6206    1.8320 O   0  0  0  0  0  0  0  0  0  0  0  0
   18.5643   -4.2023    2.6251 N   0  0  0  0  0  0  0  0  0  0  0  0
   17.7922   -5.1192    3.1998 C   0  0  0  0  0  0  0  0  0  0  0  0
   16.7960   -4.4850    3.8118 N   0  0  0  0  0  0  0  0  0  0  0  0
  1  2  1  0  0  0  0
  1  6  1  0  0  0  0
  2  3  2  0  0  0  0
  3  4  1  0  0  0  0
  4  5  2  0  0  0  0
  4 10  1  0  0  0  0
  5  6  1  0  0  0  0
  5  8  1  0  0  0  0
  6  7  2  0  0  0  0
  8  9  1  0  0  0  0
  9 10  2  0  0  0  0
M  END
>  <CHROM.1>
17.66650811,-2.68349575,3.04765545,1.43279753,0.56053620,-0.11247545

>  <Name>
ligand

>  <RI>
0

>  <Rbt.Current_Directory>
/home/itssahil/PROJECTS/Mol_Feturizer/New_Systems/rnas/4NYD

>  <Rbt.Executable>
rbdock ($Id: //depot/dev/client3/rdock/2013.1/src/exe/rbdock.cxx#4 $)

>  <Rbt.Library>
libRbt.so (2013.1, Build901 2013/11/27)

>  <Rbt.Parameter_File>
/export/apps/rDock/src/rDock_2013.1_src/data/scripts/dock_solv.prm

>  <Rbt.Receptor>
prm/pocket_docking_5.prm

>  <SCORE>
-23.815

>  <SCORE.INTER>
-23.815

>  <SCORE.INTER.CONST>
1

>  <SCORE.INTER.POLAR>
0

>  <SCORE.INTER.ROT>
0

>  <SCORE.INTER.SOLV>
3.5043

>  <SCORE.INTER.VDW>
-20.6448

>  <SCORE.INTER.norm>
-2.3815

>  <SCORE.INTRA>
0

>  <SCORE.INTRA.DIHEDRAL>
0

>  <SCORE.INTRA.DIHEDRAL.0>
0

>  <SCORE.INTRA.POLAR>
0

>  <SCORE.INTRA.POLAR.0>
0

>  <SCORE.INTRA.REPUL>
0

>  <SCORE.INTRA.REPUL.0>
0

>  <SCORE.INTRA.SOLV>
0

>  <SCORE.INTRA.SOLV.lig_0>
-4.1818

>  <SCORE.INTRA.VDW>
0

>  <SCORE.INTRA.VDW.0>
0

>  <SCORE.INTRA.norm>
0

>  <SCORE.RESTR>
0

>  <SCORE.RESTR.CAVITY>
0

>  <SCORE.RESTR.norm>
0

>  <SCORE.SYSTEM>
0

>  <SCORE.SYSTEM.CONST>
0

>  <SCORE.SYSTEM.DIHEDRAL>
0

>  <SCORE.SYSTEM.SOLV>
0

>  <SCORE.SYSTEM.norm>
0

>  <SCORE.heavy>
10

>  <SCORE.norm>
-2.3815

>  <RMSD>
3.164

$$$$
ligand
 OpenBabel11021811503D
libRbt.so/2013.1/901 2013/11/27
 10 11  0  0  0  0  0  0  0  0999 V2000
   17.5465   -0.7033    2.7990 N   0  0  0  0  0  0  0  0  0  0  0  0
   16.4622   -0.9232    3.5189 C   0  0  0  0  0  0  0  0  0  0  0  0
   16.1635   -2.2286    3.9235 N   0  0  0  0  0  0  0  0  0  0  0  0
   16.9677   -3.2392    3.5655 C   0  0  0  0  0  0  0  0  0  0  0  0
   18.0563   -3.0120    2.8344 C   0  0  0  0  0  0  0  0  0  0  0  0
   18.3736   -1.7772    2.4525 C   0  0  0  0  0  0  0  0  0  0  0  0
   19.3949   -1.5655    1.8006 O   0  0  0  0  0  0  0  0  0  0  0  0
   18.6177   -4.1877    2.5658 N   0  0  0  0  0  0  0  0  0  0  0  0
   17.8832   -5.1396    3.1327 C   0  0  0  0  0  0  0  0  0  0  0  0
   16.8673   -4.5505    3.7572 N   0  0  0  0  0  0  0  0  0  0  0  0
  1  2  1  0  0  0  0
  1  6  1  0  0  0  0
  2  3  2  0  0  0  0
  3  4  1  0  0  0  0
  4  5  2  0  0  0  0
  4 10  1  0  0  0  0
  5  6  1  0  0  0  0
  5  8  1  0  0  0  0
  6  7  2  0  0  0  0
  8  9  1  0  0  0  0
  9 10  2  0  0  0  0
M  END
>  <CHROM.1>
17.66626769,-2.70862332,3.01139882,1.47711404,0.56107462,-0.12370263

>  <Name>
ligand

>  <RI>
0

>  <Rbt.Current_Directory>
/home/itssahil/PROJECTS/Mol_Feturizer/New_Systems/rnas/4NYD

>  <Rbt.Executable>
rbdock ($Id: //depot/dev/client3/rdock/2013.1/src/exe/rbdock.cxx#4 $)

>  <Rbt.Library>
libRbt.so (2013.1, Build901 2013/11/27)

>  <Rbt.Parameter_File>
/export/apps/rDock/src/rDock_2013.1_src/data/scripts/dock_solv.prm

>  <Rbt.Receptor>
prm/pocket_docking_5.prm

>  <SCORE>
-23.8431

>  <SCORE.INTER>
-23.8431

>  <SCORE.INTER.CONST>
1

>  <SCORE.INTER.POLAR>
0

>  <SCORE.INTER.ROT>
0

>  <SCORE.INTER.SOLV>
3.46034

>  <SCORE.INTER.VDW>
-20.6489

>  <SCORE.INTER.norm>
-2.38431

>  <SCORE.INTRA>
0

>  <SCORE.INTRA.DIHEDRAL>
0

>  <SCORE.INTRA.DIHEDRAL.0>
0

>  <SCORE.INTRA.POLAR>
0

>  <SCORE.INTRA.POLAR.0>
0

>  <SCORE.INTRA.REPUL>
0

>  <SCORE.INTRA.REPUL.0>
0

>  <SCORE.INTRA.SOLV>
0

>  <SCORE.INTRA.SOLV.lig_0>
-4.1818

>  <SCORE.INTRA.VDW>
0

>  <SCORE.INTRA.VDW.0>
0

>  <SCORE.INTRA.norm>
0

>  <SCORE.RESTR>
0

>  <SCORE.RESTR.CAVITY>
0

>  <SCORE.RESTR.norm>
0

>  <SCORE.SYSTEM>
0

>  <SCORE.SYSTEM.CONST>
0

>  <SCORE.SYSTEM.DIHEDRAL>
0

>  <SCORE.SYSTEM.SOLV>
0

>  <SCORE.SYSTEM.norm>
0

>  <SCORE.heavy>
10

>  <SCORE.norm>
-2.38431

>  <RMSD>
3.164

$$$$
ligand
 OpenBabel11021811503D
libRbt.so/2013.1/901 2013/11/27
 10 11  0  0  0  0  0  0  0  0999 V2000
   17.5745   -0.6885    2.8360 N   0  0  0  0  0  0  0  0  0  0  0  0
   16.4809   -0.9036    3.5430 C   0  0  0  0  0  0  0  0  0  0  0  0
   16.1650   -2.2093    3.9332 N   0  0  0  0  0  0  0  0  0  0  0  0
   16.9626   -3.2249    3.5746 C   0  0  0  0  0  0  0  0  0  0  0  0
   18.0608   -3.0024    2.8564 C   0  0  0  0  0  0  0  0  0  0  0  0
   18.3943   -1.7676    2.4885 C   0  0  0  0  0  0  0  0  0  0  0  0
   19.4242   -1.5607    1.8488 O   0  0  0  0  0  0  0  0  0  0  0  0
   18.6131   -4.1813    2.5833 N   0  0  0  0  0  0  0  0  0  0  0  0
   17.8633   -5.1307    3.1344 C   0  0  0  0  0  0  0  0  0  0  0  0
   16.8472   -4.5367    3.7538 N   0  0  0  0  0  0  0  0  0  0  0  0
  1  2  1  0  0  0  0
  1  6  1  0  0  0  0
  2  3  2  0  0  0  0
  3  4  1  0  0  0  0
  4  5  2  0  0  0  0
  4 10  1  0  0  0  0
  5  6  1  0  0  0  0
  5  8  1  0  0  0  0
  6  7  2  0  0  0  0
  8  9  1  0  0  0  0
  9 10  2  0  0  0  0
M  END
>  <CHROM.1>
17.67204170,-2.69663496,3.03214918,1.46396561,0.55222063,-0.10811457

>  <Name>
ligand

>  <RI>
0

>  <Rbt.Current_Directory>
/home/itssahil/PROJECTS/Mol_Feturizer/New_Systems/rnas/4NYD

>  <Rbt.Executable>
rbdock ($Id: //depot/dev/client3/rdock/2013.1/src/exe/rbdock.cxx#4 $)

>  <Rbt.Library>
libRbt.so (2013.1, Build901 2013/11/27)

>  <Rbt.Parameter_File>
/export/apps/rDock/src/rDock_2013.1_src/data/scripts/dock_solv.prm

>  <Rbt.Receptor>
prm/pocket_docking_6.prm

>  <SCORE>
-23.7847

>  <SCORE.INTER>
-23.7847

>  <SCORE.INTER.CONST>
1

>  <SCORE.INTER.POLAR>
0

>  <SCORE.INTER.ROT>
0

>  <SCORE.INTER.SOLV>
3.4917

>  <SCORE.INTER.VDW>
-20.6204

>  <SCORE.INTER.norm>
-2.37847

>  <SCORE.INTRA>
0

>  <SCORE.INTRA.DIHEDRAL>
0

>  <SCORE.INTRA.DIHEDRAL.0>
0

>  <SCORE.INTRA.POLAR>
0

>  <SCORE.INTRA.POLAR.0>
0

>  <SCORE.INTRA.REPUL>
0

>  <SCORE.INTRA.REPUL.0>
0

>  <SCORE.INTRA.SOLV>
0

>  <SCORE.INTRA.SOLV.lig_0>
-4.1818

>  <SCORE.INTRA.VDW>
0

>  <SCORE.INTRA.VDW.0>
0

>  <SCORE.INTRA.norm>
0

>  <SCORE.RESTR>
0

>  <SCORE.RESTR.CAVITY>
0

>  <SCORE.RESTR.norm>
0

>  <SCORE.SYSTEM>
0

>  <SCORE.SYSTEM.CONST>
0

>  <SCORE.SYSTEM.DIHEDRAL>
0

>  <SCORE.SYSTEM.SOLV>
0

>  <SCORE.SYSTEM.norm>
0

>  <SCORE.heavy>
10

>  <SCORE.norm>
-2.37847

>  <RMSD>
3.164

$$$$
ligand
 OpenBabel11021811503D
libRbt.so/2013.1/901 2013/11/27
 10 11  0  0  0  0  0  0  0  0999 V2000
   17.5723   -0.7198    2.8352 N   0  0  0  0  0  0  0  0  0  0  0  0
   16.4725   -0.9292    3.5344 C   0  0  0  0  0  0  0  0  0  0  0  0
   16.1544   -2.2314    3.9344 N   0  0  0  0  0  0  0  0  0  0  0  0
   16.9560   -3.2496    3.5927 C   0  0  0  0  0  0  0  0  0  0  0  0
   18.0605   -3.0330    2.8824 C   0  0  0  0  0  0  0  0  0  0  0  0
   18.3962   -1.8015    2.5055 C   0  0  0  0  0  0  0  0  0  0  0  0
   19.4316   -1.5998    1.8731 O   0  0  0  0  0  0  0  0  0  0  0  0
   18.6162   -4.2140    2.6257 N   0  0  0  0  0  0  0  0  0  0  0  0
   17.8624   -5.1586    3.1792 C   0  0  0  0  0  0  0  0  0  0  0  0
   16.8402   -4.5597    3.7837 N   0  0  0  0  0  0  0  0  0  0  0  0
  1  2  1  0  0  0  0
  1  6  1  0  0  0  0
  2  3  2  0  0  0  0
  3  4  1  0  0  0  0
  4  5  2  0  0  0  0
  4 10  1  0  0  0  0
  5  6  1  0  0  0  0
  5  8  1  0  0  0  0
  6  7  2  0  0  0  0
  8  9  1  0  0  0  0
  9 10  2  0  0  0  0
M  END
>  <CHROM.1>
17.66986299,-2.72590707,3.05163261,1.46388298,0.54317451,-0.11775455

>  <Name>
ligand

>  <RI>
0

>  <Rbt.Current_Directory>
/home/itssahil/PROJECTS/Mol_Feturizer/New_Systems/rnas/4NYD

>  <Rbt.Executable>
rbdock ($Id: //depot/dev/client3/rdock/2013.1/src/exe/rbdock.cxx#4 $)

>  <Rbt.Library>
libRbt.so (2013.1, Build901 2013/11/27)

>  <Rbt.Parameter_File>
/export/apps/rDock/src/rDock_2013.1_src/data/scripts/dock_solv.prm

>  <Rbt.Receptor>
prm/pocket_docking_8.prm

>  <SCORE>
-23.8103

>  <SCORE.INTER>
-23.8103

>  <SCORE.INTER.CONST>
1

>  <SCORE.INTER.POLAR>
0

>  <SCORE.INTER.ROT>
0

>  <SCORE.INTER.SOLV>
3.49655

>  <SCORE.INTER.VDW>
-20.639

>  <SCORE.INTER.norm>
-2.38103

>  <SCORE.INTRA>
0

>  <SCORE.INTRA.DIHEDRAL>
0

>  <SCORE.INTRA.DIHEDRAL.0>
0

>  <SCORE.INTRA.POLAR>
0

>  <SCORE.INTRA.POLAR.0>
0

>  <SCORE.INTRA.REPUL>
0

>  <SCORE.INTRA.REPUL.0>
0

>  <SCORE.INTRA.SOLV>
0

>  <SCORE.INTRA.SOLV.lig_0>
-4.1818

>  <SCORE.INTRA.VDW>
0

>  <SCORE.INTRA.VDW.0>
0

>  <SCORE.INTRA.norm>
0

>  <SCORE.RESTR>
0

>  <SCORE.RESTR.CAVITY>
0

>  <SCORE.RESTR.norm>
0

>  <SCORE.SYSTEM>
0

>  <SCORE.SYSTEM.CONST>
0

>  <SCORE.SYSTEM.DIHEDRAL>
0

>  <SCORE.SYSTEM.SOLV>
0

>  <SCORE.SYSTEM.norm>
0

>  <SCORE.heavy>
10

>  <SCORE.norm>
-2.38103

>  <RMSD>
3.164

$$$$
ligand
 OpenBabel11021811503D
libRbt.so/2013.1/901 2013/11/27
 10 11  0  0  0  0  0  0  0  0999 V2000
   17.6221   -0.6719    2.8208 N   0  0  0  0  0  0  0  0  0  0  0  0
   16.5246   -0.8477    3.5329 C   0  0  0  0  0  0  0  0  0  0  0  0
   16.1752   -2.1387    3.9427 N   0  0  0  0  0  0  0  0  0  0  0  0
   16.9448   -3.1802    3.5975 C   0  0  0  0  0  0  0  0  0  0  0  0
   18.0469   -2.9974    2.8741 C   0  0  0  0  0  0  0  0  0  0  0  0
   18.4122   -1.7774    2.4876 C   0  0  0  0  0  0  0  0  0  0  0  0
   19.4457   -1.6072    1.8431 O   0  0  0  0  0  0  0  0  0  0  0  0
   18.5671   -4.1944    2.6173 N   0  0  0  0  0  0  0  0  0  0  0  0
   17.7937   -5.1154    3.1836 C   0  0  0  0  0  0  0  0  0  0  0  0
   16.7950   -4.4857    3.7961 N   0  0  0  0  0  0  0  0  0  0  0  0
  1  2  1  0  0  0  0
  1  6  1  0  0  0  0
  2  3  2  0  0  0  0
  3  4  1  0  0  0  0
  4  5  2  0  0  0  0
  4 10  1  0  0  0  0
  5  6  1  0  0  0  0
  5  8  1  0  0  0  0
  6  7  2  0  0  0  0
  8  9  1  0  0  0  0
  9 10  2  0  0  0  0
M  END
>  <CHROM.1>
17.66675780,-2.67889463,3.04611086,1.43321649,0.55707470,-0.10650409

>  <Name>
ligand

>  <RI>
0

>  <Rbt.Current_Directory>
/home/itssahil/PROJECTS/Mol_Feturizer/New_Systems/rnas/4NYD

>  <Rbt.Executable>
rbdock ($Id: //depot/dev/client3/rdock/2013.1/src/exe/rbdock.cxx#4 $)

>  <Rbt.Library>
libRbt.so (2013.1, Build901 2013/11/27)

>  <Rbt.Parameter_File>
/export/apps/rDock/src/rDock_2013.1_src/data/scripts/dock_solv.prm

>  <Rbt.Receptor>
prm/pocket_docking_8.prm

>  <SCORE>
-23.813

>  <SCORE.INTER>
-23.813

>  <SCORE.INTER.CONST>
1

>  <SCORE.INTER.POLAR>
0

>  <SCORE.INTER.ROT>
0

>  <SCORE.INTER.SOLV>
3.50728

>  <SCORE.INTER.VDW>
-20.6444

>  <SCORE.INTER.norm>
-2.3813

>  <SCORE.INTRA>
0

>  <SCORE.INTRA.DIHEDRAL>
0

>  <SCORE.INTRA.DIHEDRAL.0>
0

>  <SCORE.INTRA.POLAR>
0

>  <SCORE.INTRA.POLAR.0>
0

>  <SCORE.INTRA.REPUL>
0

>  <SCORE.INTRA.REPUL.0>
0

>  <SCORE.INTRA.SOLV>
0

>  <SCORE.INTRA.SOLV.lig_0>
-4.1818

>  <SCORE.INTRA.VDW>
0

>  <SCORE.INTRA.VDW.0>
0

>  <SCORE.INTRA.norm>
0

>  <SCORE.RESTR>
0

>  <SCORE.RESTR.CAVITY>
0

>  <SCORE.RESTR.norm>
0

>  <SCORE.SYSTEM>
0

>  <SCORE.SYSTEM.CONST>
0

>  <SCORE.SYSTEM.DIHEDRAL>
0

>  <SCORE.SYSTEM.SOLV>
0

>  <SCORE.SYSTEM.norm>
0

>  <SCORE.heavy>
10

>  <SCORE.norm>
-2.3813

>  <RMSD>
3.164

$$$$
ligand
 OpenBabel11021811503D
libRbt.so/2013.1/901 2013/11/27
 10 11  0  0  0  0  0  0  0  0999 V2000
   17.5532   -0.7132    2.8213 N   0  0  0  0  0  0  0  0  0  0  0  0
   16.4443   -0.9289    3.5041 C   0  0  0  0  0  0  0  0  0  0  0  0
   16.1356   -2.2306    3.9129 N   0  0  0  0  0  0  0  0  0  0  0  0
   16.9556   -3.2422    3.5961 C   0  0  0  0  0  0  0  0  0  0  0  0
   18.0692   -3.0194    2.9021 C   0  0  0  0  0  0  0  0  0  0  0  0
   18.3959   -1.7879    2.5175 C   0  0  0  0  0  0  0  0  0  0  0  0
   19.4393   -1.5799    1.9005 O   0  0  0  0  0  0  0  0  0  0  0  0
   18.6438   -4.1959    2.6678 N   0  0  0  0  0  0  0  0  0  0  0  0
   17.8925   -5.1440    3.2189 C   0  0  0  0  0  0  0  0  0  0  0  0
   16.8528   -4.5516    3.7994 N   0  0  0  0  0  0  0  0  0  0  0  0
  1  2  1  0  0  0  0
  1  6  1  0  0  0  0
  2  3  2  0  0  0  0
  3  4  1  0  0  0  0
  4  5  2  0  0  0  0
  4 10  1  0  0  0  0
  5  6  1  0  0  0  0
  5  8  1  0  0  0  0
  6  7  2  0  0  0  0
  8  9  1  0  0  0  0
  9 10  2  0  0  0  0
M  END
>  <CHROM.1>
17.67193928,-2.71542258,3.06137442,1.47583300,0.52477561,-0.13470706

>  <Name>
ligand

>  <RI>
0

>  <Rbt.Current_Directory>
/home/itssahil/PROJECTS/Mol_Feturizer/New_Systems/rnas/4NYD

>  <Rbt.Executable>
rbdock ($Id: //depot/dev/client3/rdock/2013.1/src/exe/rbdock.cxx#4 $)

>  <Rbt.Library>
libRbt.so (2013.1, Build901 2013/11/27)

>  <Rbt.Parameter_File>
/export/apps/rDock/src/rDock_2013.1_src/data/scripts/dock_solv.prm

>  <Rbt.Receptor>
prm/blind_docking_40.prm

>  <SCORE>
-23.7702

>  <SCORE.INTER>
-23.7702

>  <SCORE.INTER.CONST>
1

>  <SCORE.INTER.POLAR>
0

>  <SCORE.INTER.ROT>
0

>  <SCORE.INTER.SOLV>
3.48683

>  <SCORE.INTER.VDW>
-20.6091

>  <SCORE.INTER.norm>
-2.37702

>  <SCORE.INTRA>
0

>  <SCORE.INTRA.DIHEDRAL>
0

>  <SCORE.INTRA.DIHEDRAL.0>
0

>  <SCORE.INTRA.POLAR>
0

>  <SCORE.INTRA.POLAR.0>
0

>  <SCORE.INTRA.REPUL>
0

>  <SCORE.INTRA.REPUL.0>
0

>  <SCORE.INTRA.SOLV>
0

>  <SCORE.INTRA.SOLV.lig_0>
-4.1818

>  <SCORE.INTRA.VDW>
0

>  <SCORE.INTRA.VDW.0>
0

>  <SCORE.INTRA.norm>
0

>  <SCORE.RESTR>
0

>  <SCORE.RESTR.CAVITY>
0

>  <SCORE.RESTR.norm>
0

>  <SCORE.SYSTEM>
0

>  <SCORE.SYSTEM.CONST>
0

>  <SCORE.SYSTEM.DIHEDRAL>
0

>  <SCORE.SYSTEM.SOLV>
0

>  <SCORE.SYSTEM.norm>
0

>  <SCORE.heavy>
10

>  <SCORE.norm>
-2.37702

>  <RMSD>
3.165

$$$$
ligand
 OpenBabel11021811503D
libRbt.so/2013.1/901 2013/11/27
 10 11  0  0  0  0  0  0  0  0999 V2000
   17.6082   -0.6750    2.8040 N   0  0  0  0  0  0  0  0  0  0  0  0
   16.5136   -0.8533    3.5198 C   0  0  0  0  0  0  0  0  0  0  0  0
   16.1719   -2.1444    3.9360 N   0  0  0  0  0  0  0  0  0  0  0  0
   16.9459   -3.1834    3.5931 C   0  0  0  0  0  0  0  0  0  0  0  0
   18.0451   -2.9980    2.8660 C   0  0  0  0  0  0  0  0  0  0  0  0
   18.4031   -1.7778    2.4733 C   0  0  0  0  0  0  0  0  0  0  0  0
   19.4340   -1.6050    1.8253 O   0  0  0  0  0  0  0  0  0  0  0  0
   18.5708   -4.1934    2.6128 N   0  0  0  0  0  0  0  0  0  0  0  0
   17.8037   -5.1159    3.1851 C   0  0  0  0  0  0  0  0  0  0  0  0
   16.8034   -4.4888    3.7976 N   0  0  0  0  0  0  0  0  0  0  0  0
  1  2  1  0  0  0  0
  1  6  1  0  0  0  0
  2  3  2  0  0  0  0
  3  4  1  0  0  0  0
  4  5  2  0  0  0  0
  4 10  1  0  0  0  0
  5  6  1  0  0  0  0
  5  8  1  0  0  0  0
  6  7  2  0  0  0  0
  8  9  1  0  0  0  0
  9 10  2  0  0  0  0
M  END
>  <CHROM.1>
17.66381684,-2.68069977,3.03766792,1.43958718,0.55917979,-0.11410975

>  <Name>
ligand

>  <RI>
0

>  <Rbt.Current_Directory>
/home/itssahil/PROJECTS/Mol_Feturizer/New_Systems/rnas/4NYD

>  <Rbt.Executable>
rbdock ($Id: //depot/dev/client3/rdock/2013.1/src/exe/rbdock.cxx#4 $)

>  <Rbt.Library>
libRbt.so (2013.1, Build901 2013/11/27)

>  <Rbt.Parameter_File>
/export/apps/rDock/src/rDock_2013.1_src/data/scripts/dock_solv.prm

>  <Rbt.Receptor>
prm/blind_docking_60.prm

>  <SCORE>
-23.7742

>  <SCORE.INTER>
-23.7742

>  <SCORE.INTER.CONST>
1

>  <SCORE.INTER.POLAR>
0

>  <SCORE.INTER.ROT>
0

>  <SCORE.INTER.SOLV>
3.49357

>  <SCORE.INTER.VDW>
-20.614

>  <SCORE.INTER.norm>
-2.37742

>  <SCORE.INTRA>
0

>  <SCORE.INTRA.DIHEDRAL>
0

>  <SCORE.INTRA.DIHEDRAL.0>
0

>  <SCORE.INTRA.POLAR>
0

>  <SCORE.INTRA.POLAR.0>
0

>  <SCORE.INTRA.REPUL>
0

>  <SCORE.INTRA.REPUL.0>
0

>  <SCORE.INTRA.SOLV>
0

>  <SCORE.INTRA.SOLV.lig_0>
-4.1818

>  <SCORE.INTRA.VDW>
0

>  <SCORE.INTRA.VDW.0>
0

>  <SCORE.INTRA.norm>
0

>  <SCORE.RESTR>
0

>  <SCORE.RESTR.CAVITY>
0

>  <SCORE.RESTR.norm>
0

>  <SCORE.SYSTEM>
0

>  <SCORE.SYSTEM.CONST>
0

>  <SCORE.SYSTEM.DIHEDRAL>
0

>  <SCORE.SYSTEM.SOLV>
0

>  <SCORE.SYSTEM.norm>
0

>  <SCORE.heavy>
10

>  <SCORE.norm>
-2.37742

>  <RMSD>
3.165

$$$$
ligand
 OpenBabel11021811503D
libRbt.so/2013.1/901 2013/11/27
 10 11  0  0  0  0  0  0  0  0999 V2000
   17.6181   -0.6729    2.8190 N   0  0  0  0  0  0  0  0  0  0  0  0
   16.5236   -0.8488    3.5355 C   0  0  0  0  0  0  0  0  0  0  0  0
   16.1766   -2.1398    3.9475 N   0  0  0  0  0  0  0  0  0  0  0  0
   16.9455   -3.1810    3.6000 C   0  0  0  0  0  0  0  0  0  0  0  0
   18.0447   -2.9981    2.8722 C   0  0  0  0  0  0  0  0  0  0  0  0
   18.4077   -1.7781    2.4834 C   0  0  0  0  0  0  0  0  0  0  0  0
   19.4386   -1.6076    1.8348 O   0  0  0  0  0  0  0  0  0  0  0  0
   18.5646   -4.1949    2.6142 N   0  0  0  0  0  0  0  0  0  0  0  0
   17.7940   -5.1160    3.1841 C   0  0  0  0  0  0  0  0  0  0  0  0
   16.7973   -4.4865    3.8001 N   0  0  0  0  0  0  0  0  0  0  0  0
  1  2  1  0  0  0  0
  1  6  1  0  0  0  0
  2  3  2  0  0  0  0
  3  4  1  0  0  0  0
  4  5  2  0  0  0  0
  4 10  1  0  0  0  0
  5  6  1  0  0  0  0
  5  8  1  0  0  0  0
  6  7  2  0  0  0  0
  8  9  1  0  0  0  0
  9 10  2  0  0  0  0
M  END
>  <CHROM.1>
17.66499423,-2.67965484,3.04547458,1.43444996,0.56088074,-0.10784516

>  <Name>
ligand

>  <RI>
0

>  <Rbt.Current_Directory>
/home/itssahil/PROJECTS/Mol_Feturizer/New_Systems/rnas/4NYD

>  <Rbt.Executable>
rbdock ($Id: //depot/dev/client3/rdock/2013.1/src/exe/rbdock.cxx#4 $)

>  <Rbt.Library>
libRbt.so (2013.1, Build901 2013/11/27)

>  <Rbt.Parameter_File>
/export/apps/rDock/src/rDock_2013.1_src/data/scripts/dock_solv.prm

>  <Rbt.Receptor>
prm/pocket_docking_4.prm

>  <SCORE>
-23.8143

>  <SCORE.INTER>
-23.8143

>  <SCORE.INTER.CONST>
1

>  <SCORE.INTER.POLAR>
0

>  <SCORE.INTER.ROT>
0

>  <SCORE.INTER.SOLV>
3.50686

>  <SCORE.INTER.VDW>
-20.6452

>  <SCORE.INTER.norm>
-2.38143

>  <SCORE.INTRA>
0

>  <SCORE.INTRA.DIHEDRAL>
0

>  <SCORE.INTRA.DIHEDRAL.0>
0

>  <SCORE.INTRA.POLAR>
0

>  <SCORE.INTRA.POLAR.0>
0

>  <SCORE.INTRA.REPUL>
0

>  <SCORE.INTRA.REPUL.0>
0

>  <SCORE.INTRA.SOLV>
0

>  <SCORE.INTRA.SOLV.lig_0>
-4.1818

>  <SCORE.INTRA.VDW>
0

>  <SCORE.INTRA.VDW.0>
0

>  <SCORE.INTRA.norm>
0

>  <SCORE.RESTR>
0

>  <SCORE.RESTR.CAVITY>
0

>  <SCORE.RESTR.norm>
0

>  <SCORE.SYSTEM>
0

>  <SCORE.SYSTEM.CONST>
0

>  <SCORE.SYSTEM.DIHEDRAL>
0

>  <SCORE.SYSTEM.SOLV>
0

>  <SCORE.SYSTEM.norm>
0

>  <SCORE.heavy>
10

>  <SCORE.norm>
-2.38143

>  <RMSD>
3.165

$$$$
ligand
 OpenBabel11021811503D
libRbt.so/2013.1/901 2013/11/27
 10 11  0  0  0  0  0  0  0  0999 V2000
   17.5422   -0.6995    2.7841 N   0  0  0  0  0  0  0  0  0  0  0  0
   16.4542   -0.9138    3.5001 C   0  0  0  0  0  0  0  0  0  0  0  0
   16.1556   -2.2155    3.9166 N   0  0  0  0  0  0  0  0  0  0  0  0
   16.9635   -3.2283    3.5737 C   0  0  0  0  0  0  0  0  0  0  0  0
   18.0559   -3.0068    2.8464 C   0  0  0  0  0  0  0  0  0  0  0  0
   18.3732   -1.7754    2.4535 C   0  0  0  0  0  0  0  0  0  0  0  0
   19.3977   -1.5687    1.8053 O   0  0  0  0  0  0  0  0  0  0  0  0
   18.6208   -4.1841    2.5933 N   0  0  0  0  0  0  0  0  0  0  0  0
   17.8848   -5.1314    3.1659 C   0  0  0  0  0  0  0  0  0  0  0  0
   16.8644   -4.5377    3.7785 N   0  0  0  0  0  0  0  0  0  0  0  0
  1  2  1  0  0  0  0
  1  6  1  0  0  0  0
  2  3  2  0  0  0  0
  3  4  1  0  0  0  0
  4  5  2  0  0  0  0
  4 10  1  0  0  0  0
  5  6  1  0  0  0  0
  5  8  1  0  0  0  0
  6  7  2  0  0  0  0
  8  9  1  0  0  0  0
  9 10  2  0  0  0  0
M  END
>  <CHROM.1>
17.66430116,-2.70221715,3.01809137,1.47834497,0.55522182,-0.13478751

>  <Name>
ligand

>  <RI>
0

>  <Rbt.Current_Directory>
/home/itssahil/PROJECTS/Mol_Feturizer/New_Systems/rnas/4NYD

>  <Rbt.Executable>
rbdock ($Id: //depot/dev/client3/rdock/2013.1/src/exe/rbdock.cxx#4 $)

>  <Rbt.Library>
libRbt.so (2013.1, Build901 2013/11/27)

>  <Rbt.Parameter_File>
/export/apps/rDock/src/rDock_2013.1_src/data/scripts/dock_solv.prm

>  <Rbt.Receptor>
prm/pocket_docking_5.prm

>  <SCORE>
-23.7991

>  <SCORE.INTER>
-23.7991

>  <SCORE.INTER.CONST>
1

>  <SCORE.INTER.POLAR>
0

>  <SCORE.INTER.ROT>
0

>  <SCORE.INTER.SOLV>
3.4535

>  <SCORE.INTER.VDW>
-20.6172

>  <SCORE.INTER.norm>
-2.37991

>  <SCORE.INTRA>
0

>  <SCORE.INTRA.DIHEDRAL>
0

>  <SCORE.INTRA.DIHEDRAL.0>
0

>  <SCORE.INTRA.POLAR>
0

>  <SCORE.INTRA.POLAR.0>
0

>  <SCORE.INTRA.REPUL>
0

>  <SCORE.INTRA.REPUL.0>
0

>  <SCORE.INTRA.SOLV>
0

>  <SCORE.INTRA.SOLV.lig_0>
-4.1818

>  <SCORE.INTRA.VDW>
0

>  <SCORE.INTRA.VDW.0>
0

>  <SCORE.INTRA.norm>
0

>  <SCORE.RESTR>
0

>  <SCORE.RESTR.CAVITY>
0

>  <SCORE.RESTR.norm>
0

>  <SCORE.SYSTEM>
0

>  <SCORE.SYSTEM.CONST>
0

>  <SCORE.SYSTEM.DIHEDRAL>
0

>  <SCORE.SYSTEM.SOLV>
0

>  <SCORE.SYSTEM.norm>
0

>  <SCORE.heavy>
10

>  <SCORE.norm>
-2.37991

>  <RMSD>
3.165

$$$$
ligand
 OpenBabel11021811503D
libRbt.so/2013.1/901 2013/11/27
 10 11  0  0  0  0  0  0  0  0999 V2000
   17.5816   -0.7048    2.8405 N   0  0  0  0  0  0  0  0  0  0  0  0
   16.4880   -0.9086    3.5510 C   0  0  0  0  0  0  0  0  0  0  0  0
   16.1645   -2.2099    3.9495 N   0  0  0  0  0  0  0  0  0  0  0  0
   16.9547   -3.2328    3.5952 C   0  0  0  0  0  0  0  0  0  0  0  0
   18.0529   -3.0217    2.8736 C   0  0  0  0  0  0  0  0  0  0  0  0
   18.3937   -1.7913    2.4978 C   0  0  0  0  0  0  0  0  0  0  0  0
   19.4236   -1.5948    1.8548 O   0  0  0  0  0  0  0  0  0  0  0  0
   18.5969   -4.2057    2.6064 N   0  0  0  0  0  0  0  0  0  0  0  0
   17.8422   -5.1469    3.1646 C   0  0  0  0  0  0  0  0  0  0  0  0
   16.8311   -4.5427    3.7825 N   0  0  0  0  0  0  0  0  0  0  0  0
  1  2  1  0  0  0  0
  1  6  1  0  0  0  0
  2  3  2  0  0  0  0
  3  4  1  0  0  0  0
  4  5  2  0  0  0  0
  4 10  1  0  0  0  0
  5  6  1  0  0  0  0
  5  8  1  0  0  0  0
  6  7  2  0  0  0  0
  8  9  1  0  0  0  0
  9 10  2  0  0  0  0
M  END
>  <CHROM.1>
17.66648961,-2.71234297,3.04832946,1.45662954,0.55491149,-0.11013949

>  <Name>
ligand

>  <RI>
0

>  <Rbt.Current_Directory>
/home/itssahil/PROJECTS/Mol_Feturizer/New_Systems/rnas/4NYD

>  <Rbt.Executable>
rbdock ($Id: //depot/dev/client3/rdock/2013.1/src/exe/rbdock.cxx#4 $)

>  <Rbt.Library>
libRbt.so (2013.1, Build901 2013/11/27)

>  <Rbt.Parameter_File>
/export/apps/rDock/src/rDock_2013.1_src/data/scripts/dock_solv.prm

>  <Rbt.Receptor>
prm/blind_docking_80.prm

>  <SCORE>
-23.808

>  <SCORE.INTER>
-23.808

>  <SCORE.INTER.CONST>
1

>  <SCORE.INTER.POLAR>
0

>  <SCORE.INTER.ROT>
0

>  <SCORE.INTER.SOLV>
3.50501

>  <SCORE.INTER.VDW>
-20.6403

>  <SCORE.INTER.norm>
-2.3808

>  <SCORE.INTRA>
0

>  <SCORE.INTRA.DIHEDRAL>
0

>  <SCORE.INTRA.DIHEDRAL.0>
0

>  <SCORE.INTRA.POLAR>
0

>  <SCORE.INTRA.POLAR.0>
0

>  <SCORE.INTRA.REPUL>
0

>  <SCORE.INTRA.REPUL.0>
0

>  <SCORE.INTRA.SOLV>
0

>  <SCORE.INTRA.SOLV.lig_0>
-4.1818

>  <SCORE.INTRA.VDW>
0

>  <SCORE.INTRA.VDW.0>
0

>  <SCORE.INTRA.norm>
0

>  <SCORE.RESTR>
0

>  <SCORE.RESTR.CAVITY>
0

>  <SCORE.RESTR.norm>
0

>  <SCORE.SYSTEM>
0

>  <SCORE.SYSTEM.CONST>
0

>  <SCORE.SYSTEM.DIHEDRAL>
0

>  <SCORE.SYSTEM.SOLV>
0

>  <SCORE.SYSTEM.norm>
0

>  <SCORE.heavy>
10

>  <SCORE.norm>
-2.3808

>  <RMSD>
3.166

$$$$
ligand
 OpenBabel11021811503D
libRbt.so/2013.1/901 2013/11/27
 10 11  0  0  0  0  0  0  0  0999 V2000
   17.5504   -0.7333    2.8029 N   0  0  0  0  0  0  0  0  0  0  0  0
   16.4677   -0.9392    3.5294 C   0  0  0  0  0  0  0  0  0  0  0  0
   16.1666   -2.2375    3.9545 N   0  0  0  0  0  0  0  0  0  0  0  0
   16.9668   -3.2557    3.6094 C   0  0  0  0  0  0  0  0  0  0  0  0
   18.0539   -3.0426    2.8716 C   0  0  0  0  0  0  0  0  0  0  0  0
   18.3734   -1.8146    2.4702 C   0  0  0  0  0  0  0  0  0  0  0  0
   19.3933   -1.6157    1.8121 O   0  0  0  0  0  0  0  0  0  0  0  0
   18.6111   -4.2238    2.6192 N   0  0  0  0  0  0  0  0  0  0  0  0
   17.8756   -5.1650    3.2026 C   0  0  0  0  0  0  0  0  0  0  0  0
   16.8634   -4.5636    3.8212 N   0  0  0  0  0  0  0  0  0  0  0  0
  1  2  1  0  0  0  0
  1  6  1  0  0  0  0
  2  3  2  0  0  0  0
  3  4  1  0  0  0  0
  4  5  2  0  0  0  0
  4 10  1  0  0  0  0
  5  6  1  0  0  0  0
  5  8  1  0  0  0  0
  6  7  2  0  0  0  0
  8  9  1  0  0  0  0
  9 10  2  0  0  0  0
M  END
>  <CHROM.1>
17.66521031,-2.73547634,3.04526384,1.47426758,0.56447097,-0.13729517

>  <Name>
ligand

>  <RI>
0

>  <Rbt.Current_Directory>
/home/itssahil/PROJECTS/Mol_Feturizer/New_Systems/rnas/4NYD

>  <Rbt.Executable>
rbdock ($Id: //depot/dev/client3/rdock/2013.1/src/exe/rbdock.cxx#4 $)

>  <Rbt.Library>
libRbt.so (2013.1, Build901 2013/11/27)

>  <Rbt.Parameter_File>
/export/apps/rDock/src/rDock_2013.1_src/data/scripts/dock_solv.prm

>  <Rbt.Receptor>
prm/pocket_docking_4.prm

>  <SCORE>
-23.7605

>  <SCORE.INTER>
-23.7605

>  <SCORE.INTER.CONST>
1

>  <SCORE.INTER.POLAR>
0

>  <SCORE.INTER.ROT>
0

>  <SCORE.INTER.SOLV>
3.47844

>  <SCORE.INTER.VDW>
-20.5998

>  <SCORE.INTER.norm>
-2.37605

>  <SCORE.INTRA>
0

>  <SCORE.INTRA.DIHEDRAL>
0

>  <SCORE.INTRA.DIHEDRAL.0>
0

>  <SCORE.INTRA.POLAR>
0

>  <SCORE.INTRA.POLAR.0>
0

>  <SCORE.INTRA.REPUL>
0

>  <SCORE.INTRA.REPUL.0>
0

>  <SCORE.INTRA.SOLV>
0

>  <SCORE.INTRA.SOLV.lig_0>
-4.1818

>  <SCORE.INTRA.VDW>
0

>  <SCORE.INTRA.VDW.0>
0

>  <SCORE.INTRA.norm>
0

>  <SCORE.RESTR>
0

>  <SCORE.RESTR.CAVITY>
0

>  <SCORE.RESTR.norm>
0

>  <SCORE.SYSTEM>
0

>  <SCORE.SYSTEM.CONST>
0

>  <SCORE.SYSTEM.DIHEDRAL>
0

>  <SCORE.SYSTEM.SOLV>
0

>  <SCORE.SYSTEM.norm>
0

>  <SCORE.heavy>
10

>  <SCORE.norm>
-2.37605

>  <RMSD>
3.166

$$$$
ligand
 OpenBabel11021811503D
libRbt.so/2013.1/901 2013/11/27
 10 11  0  0  0  0  0  0  0  0999 V2000
   17.6075   -0.6799    2.7912 N   0  0  0  0  0  0  0  0  0  0  0  0
   16.5205   -0.8515    3.5202 C   0  0  0  0  0  0  0  0  0  0  0  0
   16.1794   -2.1396    3.9459 N   0  0  0  0  0  0  0  0  0  0  0  0
   16.9460   -3.1826    3.5989 C   0  0  0  0  0  0  0  0  0  0  0  0
   18.0376   -3.0041    2.8586 C   0  0  0  0  0  0  0  0  0  0  0  0
   18.3950   -1.7868    2.4564 C   0  0  0  0  0  0  0  0  0  0  0  0
   19.4191   -1.6202    1.7960 O   0  0  0  0  0  0  0  0  0  0  0  0
   18.5564   -4.2023    2.6047 N   0  0  0  0  0  0  0  0  0  0  0  0
   17.7929   -5.1197    3.1898 C   0  0  0  0  0  0  0  0  0  0  0  0
   16.8017   -4.4867    3.8108 N   0  0  0  0  0  0  0  0  0  0  0  0
  1  2  1  0  0  0  0
  1  6  1  0  0  0  0
  2  3  2  0  0  0  0
  3  4  1  0  0  0  0
  4  5  2  0  0  0  0
  4 10  1  0  0  0  0
  5  6  1  0  0  0  0
  5  8  1  0  0  0  0
  6  7  2  0  0  0  0
  8  9  1  0  0  0  0
  9 10  2  0  0  0  0
M  END
>  <CHROM.1>
17.65924934,-2.68476782,3.03311891,1.43729482,0.57082489,-0.11730438

>  <Name>
ligand

>  <RI>
0

>  <Rbt.Current_Directory>
/home/itssahil/PROJECTS/Mol_Feturizer/New_Systems/rnas/4NYD

>  <Rbt.Executable>
rbdock ($Id: //depot/dev/client3/rdock/2013.1/src/exe/rbdock.cxx#4 $)

>  <Rbt.Library>
libRbt.so (2013.1, Build901 2013/11/27)

>  <Rbt.Parameter_File>
/export/apps/rDock/src/rDock_2013.1_src/data/scripts/dock_solv.prm

>  <Rbt.Receptor>
prm/pocket_docking_4.prm

>  <SCORE>
-23.8095

>  <SCORE.INTER>
-23.8095

>  <SCORE.INTER.CONST>
1

>  <SCORE.INTER.POLAR>
0

>  <SCORE.INTER.ROT>
0

>  <SCORE.INTER.SOLV>
3.49466

>  <SCORE.INTER.VDW>
-20.6379

>  <SCORE.INTER.norm>
-2.38095

>  <SCORE.INTRA>
0

>  <SCORE.INTRA.DIHEDRAL>
0

>  <SCORE.INTRA.DIHEDRAL.0>
0

>  <SCORE.INTRA.POLAR>
0

>  <SCORE.INTRA.POLAR.0>
0

>  <SCORE.INTRA.REPUL>
0

>  <SCORE.INTRA.REPUL.0>
0

>  <SCORE.INTRA.SOLV>
0

>  <SCORE.INTRA.SOLV.lig_0>
-4.1818

>  <SCORE.INTRA.VDW>
0

>  <SCORE.INTRA.VDW.0>
0

>  <SCORE.INTRA.norm>
0

>  <SCORE.RESTR>
0

>  <SCORE.RESTR.CAVITY>
0

>  <SCORE.RESTR.norm>
0

>  <SCORE.SYSTEM>
0

>  <SCORE.SYSTEM.CONST>
0

>  <SCORE.SYSTEM.DIHEDRAL>
0

>  <SCORE.SYSTEM.SOLV>
0

>  <SCORE.SYSTEM.norm>
0

>  <SCORE.heavy>
10

>  <SCORE.norm>
-2.38095

>  <RMSD>
3.166

$$$$
ligand
 OpenBabel11021811503D
libRbt.so/2013.1/901 2013/11/27
 10 11  0  0  0  0  0  0  0  0999 V2000
   17.5934   -0.6692    2.8416 N   0  0  0  0  0  0  0  0  0  0  0  0
   16.4923   -0.8688    3.5415 C   0  0  0  0  0  0  0  0  0  0  0  0
   16.1606   -2.1686    3.9380 N   0  0  0  0  0  0  0  0  0  0  0  0
   16.9509   -3.1944    3.5925 C   0  0  0  0  0  0  0  0  0  0  0  0
   18.0568   -2.9876    2.8814 C   0  0  0  0  0  0  0  0  0  0  0  0
   18.4052   -1.7587    2.5077 C   0  0  0  0  0  0  0  0  0  0  0  0
   19.4420   -1.5662    1.8747 O   0  0  0  0  0  0  0  0  0  0  0  0
   18.5995   -4.1737    2.6206 N   0  0  0  0  0  0  0  0  0  0  0  0
   17.8362   -5.1118    3.1723 C   0  0  0  0  0  0  0  0  0  0  0  0
   16.8212   -4.5037    3.7797 N   0  0  0  0  0  0  0  0  0  0  0  0
  1  2  1  0  0  0  0
  1  6  1  0  0  0  0
  2  3  2  0  0  0  0
  3  4  1  0  0  0  0
  4  5  2  0  0  0  0
  4 10  1  0  0  0  0
  5  6  1  0  0  0  0
  5  8  1  0  0  0  0
  6  7  2  0  0  0  0
  8  9  1  0  0  0  0
  9 10  2  0  0  0  0
M  END
>  <CHROM.1>
17.66965337,-2.67680722,3.05204716,1.45154981,0.54557017,-0.10843876

>  <Name>
ligand

>  <RI>
0

>  <Rbt.Current_Directory>
/home/itssahil/PROJECTS/Mol_Feturizer/New_Systems/rnas/4NYD

>  <Rbt.Executable>
rbdock ($Id: //depot/dev/client3/rdock/2013.1/src/exe/rbdock.cxx#4 $)

>  <Rbt.Library>
libRbt.so (2013.1, Build901 2013/11/27)

>  <Rbt.Parameter_File>
/export/apps/rDock/src/rDock_2013.1_src/data/scripts/dock_solv.prm

>  <Rbt.Receptor>
prm/blind_docking_100.prm

>  <SCORE>
-23.7639

>  <SCORE.INTER>
-23.7639

>  <SCORE.INTER.CONST>
1

>  <SCORE.INTER.POLAR>
0

>  <SCORE.INTER.ROT>
0

>  <SCORE.INTER.SOLV>
3.5074

>  <SCORE.INTER.VDW>
-20.6118

>  <SCORE.INTER.norm>
-2.37639

>  <SCORE.INTRA>
0

>  <SCORE.INTRA.DIHEDRAL>
0

>  <SCORE.INTRA.DIHEDRAL.0>
0

>  <SCORE.INTRA.POLAR>
0

>  <SCORE.INTRA.POLAR.0>
0

>  <SCORE.INTRA.REPUL>
0

>  <SCORE.INTRA.REPUL.0>
0

>  <SCORE.INTRA.SOLV>
0

>  <SCORE.INTRA.SOLV.lig_0>
-4.1818

>  <SCORE.INTRA.VDW>
0

>  <SCORE.INTRA.VDW.0>
0

>  <SCORE.INTRA.norm>
0

>  <SCORE.RESTR>
0

>  <SCORE.RESTR.CAVITY>
0

>  <SCORE.RESTR.norm>
0

>  <SCORE.SYSTEM>
0

>  <SCORE.SYSTEM.CONST>
0

>  <SCORE.SYSTEM.DIHEDRAL>
0

>  <SCORE.SYSTEM.SOLV>
0

>  <SCORE.SYSTEM.norm>
0

>  <SCORE.heavy>
10

>  <SCORE.norm>
-2.37639

>  <RMSD>
3.167

$$$$
ligand
 OpenBabel11021811503D
libRbt.so/2013.1/901 2013/11/27
 10 11  0  0  0  0  0  0  0  0999 V2000
   17.5485   -0.7281    2.7923 N   0  0  0  0  0  0  0  0  0  0  0  0
   16.4508   -0.9283    3.4975 C   0  0  0  0  0  0  0  0  0  0  0  0
   16.1414   -2.2229    3.9278 N   0  0  0  0  0  0  0  0  0  0  0  0
   16.9493   -3.2436    3.6089 C   0  0  0  0  0  0  0  0  0  0  0  0
   18.0517   -3.0364    2.8924 C   0  0  0  0  0  0  0  0  0  0  0  0
   18.3790   -1.8118    2.4868 C   0  0  0  0  0  0  0  0  0  0  0  0
   19.4124   -1.6181    1.8488 O   0  0  0  0  0  0  0  0  0  0  0  0
   18.6148   -4.2194    2.6625 N   0  0  0  0  0  0  0  0  0  0  0  0
   17.8676   -5.1558    3.2386 C   0  0  0  0  0  0  0  0  0  0  0  0
   16.8421   -4.5497    3.8302 N   0  0  0  0  0  0  0  0  0  0  0  0
  1  2  1  0  0  0  0
  1  6  1  0  0  0  0
  2  3  2  0  0  0  0
  3  4  1  0  0  0  0
  4  5  2  0  0  0  0
  4 10  1  0  0  0  0
  5  6  1  0  0  0  0
  5  8  1  0  0  0  0
  6  7  2  0  0  0  0
  8  9  1  0  0  0  0
  9 10  2  0  0  0  0
M  END
>  <CHROM.1>
17.65923407,-2.72796855,3.05502205,1.47150879,0.54339405,-0.14482762

>  <Name>
ligand

>  <RI>
0

>  <Rbt.Current_Directory>
/home/itssahil/PROJECTS/Mol_Feturizer/New_Systems/rnas/4NYD

>  <Rbt.Executable>
rbdock ($Id: //depot/dev/client3/rdock/2013.1/src/exe/rbdock.cxx#4 $)

>  <Rbt.Library>
libRbt.so (2013.1, Build901 2013/11/27)

>  <Rbt.Parameter_File>
/export/apps/rDock/src/rDock_2013.1_src/data/scripts/dock_solv.prm

>  <Rbt.Receptor>
prm/pocket_docking_4.prm

>  <SCORE>
-23.8053

>  <SCORE.INTER>
-23.8053

>  <SCORE.INTER.CONST>
1

>  <SCORE.INTER.POLAR>
0

>  <SCORE.INTER.ROT>
0

>  <SCORE.INTER.SOLV>
3.47511

>  <SCORE.INTER.VDW>
-20.6285

>  <SCORE.INTER.norm>
-2.38053

>  <SCORE.INTRA>
0

>  <SCORE.INTRA.DIHEDRAL>
0

>  <SCORE.INTRA.DIHEDRAL.0>
0

>  <SCORE.INTRA.POLAR>
0

>  <SCORE.INTRA.POLAR.0>
0

>  <SCORE.INTRA.REPUL>
0

>  <SCORE.INTRA.REPUL.0>
0

>  <SCORE.INTRA.SOLV>
0

>  <SCORE.INTRA.SOLV.lig_0>
-4.1818

>  <SCORE.INTRA.VDW>
0

>  <SCORE.INTRA.VDW.0>
0

>  <SCORE.INTRA.norm>
0

>  <SCORE.RESTR>
0

>  <SCORE.RESTR.CAVITY>
0

>  <SCORE.RESTR.norm>
0

>  <SCORE.SYSTEM>
0

>  <SCORE.SYSTEM.CONST>
0

>  <SCORE.SYSTEM.DIHEDRAL>
0

>  <SCORE.SYSTEM.SOLV>
0

>  <SCORE.SYSTEM.norm>
0

>  <SCORE.heavy>
10

>  <SCORE.norm>
-2.38053

>  <RMSD>
3.167

$$$$
ligand
 OpenBabel11021811503D
libRbt.so/2013.1/901 2013/11/27
 10 11  0  0  0  0  0  0  0  0999 V2000
   17.5386   -0.7068    2.7923 N   0  0  0  0  0  0  0  0  0  0  0  0
   16.4337   -0.9195    3.4823 C   0  0  0  0  0  0  0  0  0  0  0  0
   16.1318   -2.2180    3.9062 N   0  0  0  0  0  0  0  0  0  0  0  0
   16.9543   -3.2298    3.5964 C   0  0  0  0  0  0  0  0  0  0  0  0
   18.0640   -3.0100    2.8952 C   0  0  0  0  0  0  0  0  0  0  0  0
   18.3842   -1.7813    2.4961 C   0  0  0  0  0  0  0  0  0  0  0  0
   19.4240   -1.5759    1.8723 O   0  0  0  0  0  0  0  0  0  0  0  0
   18.6422   -4.1867    2.6707 N   0  0  0  0  0  0  0  0  0  0  0  0
   17.8970   -5.1318    3.2351 C   0  0  0  0  0  0  0  0  0  0  0  0
   16.8576   -4.5373    3.8140 N   0  0  0  0  0  0  0  0  0  0  0  0
  1  2  1  0  0  0  0
  1  6  1  0  0  0  0
  2  3  2  0  0  0  0
  3  4  1  0  0  0  0
  4  5  2  0  0  0  0
  4 10  1  0  0  0  0
  5  6  1  0  0  0  0
  5  8  1  0  0  0  0
  6  7  2  0  0  0  0
  8  9  1  0  0  0  0
  9 10  2  0  0  0  0
M  END
>  <CHROM.1>
17.66627970,-2.70589158,3.05301096,1.48100108,0.52863854,-0.14786134

>  <Name>
ligand

>  <RI>
0

>  <Rbt.Current_Directory>
/home/itssahil/PROJECTS/Mol_Feturizer/New_Systems/rnas/4NYD

>  <Rbt.Executable>
rbdock ($Id: //depot/dev/client3/rdock/2013.1/src/exe/rbdock.cxx#4 $)

>  <Rbt.Library>
libRbt.so (2013.1, Build901 2013/11/27)

>  <Rbt.Parameter_File>
/export/apps/rDock/src/rDock_2013.1_src/data/scripts/dock_solv.prm

>  <Rbt.Receptor>
prm/pocket_docking_5.prm

>  <SCORE>
-23.7607

>  <SCORE.INTER>
-23.7607

>  <SCORE.INTER.CONST>
1

>  <SCORE.INTER.POLAR>
0

>  <SCORE.INTER.ROT>
0

>  <SCORE.INTER.SOLV>
3.46763

>  <SCORE.INTER.VDW>
-20.5963

>  <SCORE.INTER.norm>
-2.37607

>  <SCORE.INTRA>
0

>  <SCORE.INTRA.DIHEDRAL>
0

>  <SCORE.INTRA.DIHEDRAL.0>
0

>  <SCORE.INTRA.POLAR>
0

>  <SCORE.INTRA.POLAR.0>
0

>  <SCORE.INTRA.REPUL>
0

>  <SCORE.INTRA.REPUL.0>
0

>  <SCORE.INTRA.SOLV>
0

>  <SCORE.INTRA.SOLV.lig_0>
-4.1818

>  <SCORE.INTRA.VDW>
0

>  <SCORE.INTRA.VDW.0>
0

>  <SCORE.INTRA.norm>
0

>  <SCORE.RESTR>
0

>  <SCORE.RESTR.CAVITY>
0

>  <SCORE.RESTR.norm>
0

>  <SCORE.SYSTEM>
0

>  <SCORE.SYSTEM.CONST>
0

>  <SCORE.SYSTEM.DIHEDRAL>
0

>  <SCORE.SYSTEM.SOLV>
0

>  <SCORE.SYSTEM.norm>
0

>  <SCORE.heavy>
10

>  <SCORE.norm>
-2.37607

>  <RMSD>
3.167

$$$$
ligand
 OpenBabel11021811503D
libRbt.so/2013.1/901 2013/11/27
 10 11  0  0  0  0  0  0  0  0999 V2000
   17.5718   -0.7075    2.8236 N   0  0  0  0  0  0  0  0  0  0  0  0
   16.4787   -0.9092    3.5354 C   0  0  0  0  0  0  0  0  0  0  0  0
   16.1584   -2.2086    3.9428 N   0  0  0  0  0  0  0  0  0  0  0  0
   16.9511   -3.2318    3.5955 C   0  0  0  0  0  0  0  0  0  0  0  0
   18.0488   -3.0229    2.8724 C   0  0  0  0  0  0  0  0  0  0  0  0
   18.3865   -1.7942    2.4882 C   0  0  0  0  0  0  0  0  0  0  0  0
   19.4160   -1.5996    1.8440 O   0  0  0  0  0  0  0  0  0  0  0  0
   18.5958   -4.2074    2.6132 N   0  0  0  0  0  0  0  0  0  0  0  0
   17.8433   -5.1466    3.1778 C   0  0  0  0  0  0  0  0  0  0  0  0
   16.8308   -4.5408    3.7916 N   0  0  0  0  0  0  0  0  0  0  0  0
  1  2  1  0  0  0  0
  1  6  1  0  0  0  0
  2  3  2  0  0  0  0
  3  4  1  0  0  0  0
  4  5  2  0  0  0  0
  4 10  1  0  0  0  0
  5  6  1  0  0  0  0
  5  8  1  0  0  0  0
  6  7  2  0  0  0  0
  8  9  1  0  0  0  0
  9 10  2  0  0  0  0
M  END
>  <CHROM.1>
17.66162056,-2.71333800,3.04503181,1.45952846,0.55461888,-0.11847093

>  <Name>
ligand

>  <RI>
0

>  <Rbt.Current_Directory>
/home/itssahil/PROJECTS/Mol_Feturizer/New_Systems/rnas/4NYD

>  <Rbt.Executable>
rbdock ($Id: //depot/dev/client3/rdock/2013.1/src/exe/rbdock.cxx#4 $)

>  <Rbt.Library>
libRbt.so (2013.1, Build901 2013/11/27)

>  <Rbt.Parameter_File>
/export/apps/rDock/src/rDock_2013.1_src/data/scripts/dock_solv.prm

>  <Rbt.Receptor>
prm/pocket_docking_7.prm

>  <SCORE>
-23.8

>  <SCORE.INTER>
-23.8

>  <SCORE.INTER.CONST>
1

>  <SCORE.INTER.POLAR>
0

>  <SCORE.INTER.ROT>
0

>  <SCORE.INTER.SOLV>
3.4926

>  <SCORE.INTER.VDW>
-20.6308

>  <SCORE.INTER.norm>
-2.38

>  <SCORE.INTRA>
0

>  <SCORE.INTRA.DIHEDRAL>
0

>  <SCORE.INTRA.DIHEDRAL.0>
0

>  <SCORE.INTRA.POLAR>
0

>  <SCORE.INTRA.POLAR.0>
0

>  <SCORE.INTRA.REPUL>
0

>  <SCORE.INTRA.REPUL.0>
0

>  <SCORE.INTRA.SOLV>
0

>  <SCORE.INTRA.SOLV.lig_0>
-4.1818

>  <SCORE.INTRA.VDW>
0

>  <SCORE.INTRA.VDW.0>
0

>  <SCORE.INTRA.norm>
0

>  <SCORE.RESTR>
0

>  <SCORE.RESTR.CAVITY>
0

>  <SCORE.RESTR.norm>
0

>  <SCORE.SYSTEM>
0

>  <SCORE.SYSTEM.CONST>
0

>  <SCORE.SYSTEM.DIHEDRAL>
0

>  <SCORE.SYSTEM.SOLV>
0

>  <SCORE.SYSTEM.norm>
0

>  <SCORE.heavy>
10

>  <SCORE.norm>
-2.38

>  <RMSD>
3.167

$$$$
ligand
 OpenBabel11021811503D
libRbt.so/2013.1/901 2013/11/27
 10 11  0  0  0  0  0  0  0  0999 V2000
   17.5683   -0.7069    2.8247 N   0  0  0  0  0  0  0  0  0  0  0  0
   16.4813   -0.9104    3.5454 C   0  0  0  0  0  0  0  0  0  0  0  0
   16.1647   -2.2108    3.9524 N   0  0  0  0  0  0  0  0  0  0  0  0
   16.9545   -3.2331    3.5960 C   0  0  0  0  0  0  0  0  0  0  0  0
   18.0460   -3.0224    2.8641 C   0  0  0  0  0  0  0  0  0  0  0  0
   18.3803   -1.7928    2.4799 C   0  0  0  0  0  0  0  0  0  0  0  0
   19.4042   -1.5965    1.8273 O   0  0  0  0  0  0  0  0  0  0  0  0
   18.5909   -4.2062    2.5975 N   0  0  0  0  0  0  0  0  0  0  0  0
   17.8434   -5.1468    3.1663 C   0  0  0  0  0  0  0  0  0  0  0  0
   16.8361   -4.5425    3.7901 N   0  0  0  0  0  0  0  0  0  0  0  0
  1  2  1  0  0  0  0
  1  6  1  0  0  0  0
  2  3  2  0  0  0  0
  3  4  1  0  0  0  0
  4  5  2  0  0  0  0
  4 10  1  0  0  0  0
  5  6  1  0  0  0  0
  5  8  1  0  0  0  0
  6  7  2  0  0  0  0
  8  9  1  0  0  0  0
  9 10  2  0  0  0  0
M  END
>  <CHROM.1>
17.66026023,-2.71327142,3.04070103,1.46085277,0.56307994,-0.11684364

>  <Name>
ligand

>  <RI>
0

>  <Rbt.Current_Directory>
/home/itssahil/PROJECTS/Mol_Feturizer/New_Systems/rnas/4NYD

>  <Rbt.Executable>
rbdock ($Id: //depot/dev/client3/rdock/2013.1/src/exe/rbdock.cxx#4 $)

>  <Rbt.Library>
libRbt.so (2013.1, Build901 2013/11/27)

>  <Rbt.Parameter_File>
/export/apps/rDock/src/rDock_2013.1_src/data/scripts/dock_solv.prm

>  <Rbt.Receptor>
prm/pocket_docking_3.prm

>  <SCORE>
-23.8094

>  <SCORE.INTER>
-23.8094

>  <SCORE.INTER.CONST>
1

>  <SCORE.INTER.POLAR>
0

>  <SCORE.INTER.ROT>
0

>  <SCORE.INTER.SOLV>
3.49333

>  <SCORE.INTER.VDW>
-20.6374

>  <SCORE.INTER.norm>
-2.38094

>  <SCORE.INTRA>
0

>  <SCORE.INTRA.DIHEDRAL>
0

>  <SCORE.INTRA.DIHEDRAL.0>
0

>  <SCORE.INTRA.POLAR>
0

>  <SCORE.INTRA.POLAR.0>
0

>  <SCORE.INTRA.REPUL>
0

>  <SCORE.INTRA.REPUL.0>
0

>  <SCORE.INTRA.SOLV>
0

>  <SCORE.INTRA.SOLV.lig_0>
-4.1818

>  <SCORE.INTRA.VDW>
0

>  <SCORE.INTRA.VDW.0>
0

>  <SCORE.INTRA.norm>
0

>  <SCORE.RESTR>
0

>  <SCORE.RESTR.CAVITY>
0

>  <SCORE.RESTR.norm>
0

>  <SCORE.SYSTEM>
0

>  <SCORE.SYSTEM.CONST>
0

>  <SCORE.SYSTEM.DIHEDRAL>
0

>  <SCORE.SYSTEM.SOLV>
0

>  <SCORE.SYSTEM.norm>
0

>  <SCORE.heavy>
10

>  <SCORE.norm>
-2.38094

>  <RMSD>
3.168

$$$$
ligand
 OpenBabel11021811503D
libRbt.so/2013.1/901 2013/11/27
 10 11  0  0  0  0  0  0  0  0999 V2000
   17.5402   -0.6814    2.8266 N   0  0  0  0  0  0  0  0  0  0  0  0
   16.4483   -0.9111    3.5318 C   0  0  0  0  0  0  0  0  0  0  0  0
   16.1499   -2.2207    3.9227 N   0  0  0  0  0  0  0  0  0  0  0  0
   16.9622   -3.2254    3.5667 C   0  0  0  0  0  0  0  0  0  0  0  0
   18.0587   -2.9884    2.8504 C   0  0  0  0  0  0  0  0  0  0  0  0
   18.3756   -1.7494    2.4818 C   0  0  0  0  0  0  0  0  0  0  0  0
   19.4037   -1.5288    1.8439 O   0  0  0  0  0  0  0  0  0  0  0  0
   18.6278   -4.1597    2.5796 N   0  0  0  0  0  0  0  0  0  0  0  0
   17.8903   -5.1188    3.1303 C   0  0  0  0  0  0  0  0  0  0  0  0
   16.8648   -4.5385    3.7471 N   0  0  0  0  0  0  0  0  0  0  0  0
  1  2  1  0  0  0  0
  1  6  1  0  0  0  0
  2  3  2  0  0  0  0
  3  4  1  0  0  0  0
  4  5  2  0  0  0  0
  4 10  1  0  0  0  0
  5  6  1  0  0  0  0
  5  8  1  0  0  0  0
  6  7  2  0  0  0  0
  8  9  1  0  0  0  0
  9 10  2  0  0  0  0
M  END
>  <CHROM.1>
17.66532029,-2.68783667,3.02505841,1.47997783,0.54873154,-0.11753500

>  <Name>
ligand

>  <RI>
0

>  <Rbt.Current_Directory>
/home/itssahil/PROJECTS/Mol_Feturizer/New_Systems/rnas/4NYD

>  <Rbt.Executable>
rbdock ($Id: //depot/dev/client3/rdock/2013.1/src/exe/rbdock.cxx#4 $)

>  <Rbt.Library>
libRbt.so (2013.1, Build901 2013/11/27)

>  <Rbt.Parameter_File>
/export/apps/rDock/src/rDock_2013.1_src/data/scripts/dock_solv.prm

>  <Rbt.Receptor>
prm/blind_docking_40.prm

>  <SCORE>
-23.753

>  <SCORE.INTER>
-23.753

>  <SCORE.INTER.CONST>
1

>  <SCORE.INTER.POLAR>
0

>  <SCORE.INTER.ROT>
0

>  <SCORE.INTER.SOLV>
3.47523

>  <SCORE.INTER.VDW>
-20.5938

>  <SCORE.INTER.norm>
-2.3753

>  <SCORE.INTRA>
0

>  <SCORE.INTRA.DIHEDRAL>
0

>  <SCORE.INTRA.DIHEDRAL.0>
0

>  <SCORE.INTRA.POLAR>
0

>  <SCORE.INTRA.POLAR.0>
0

>  <SCORE.INTRA.REPUL>
0

>  <SCORE.INTRA.REPUL.0>
0

>  <SCORE.INTRA.SOLV>
0

>  <SCORE.INTRA.SOLV.lig_0>
-4.1818

>  <SCORE.INTRA.VDW>
0

>  <SCORE.INTRA.VDW.0>
0

>  <SCORE.INTRA.norm>
0

>  <SCORE.RESTR>
0

>  <SCORE.RESTR.CAVITY>
0

>  <SCORE.RESTR.norm>
0

>  <SCORE.SYSTEM>
0

>  <SCORE.SYSTEM.CONST>
0

>  <SCORE.SYSTEM.DIHEDRAL>
0

>  <SCORE.SYSTEM.SOLV>
0

>  <SCORE.SYSTEM.norm>
0

>  <SCORE.heavy>
10

>  <SCORE.norm>
-2.3753

>  <RMSD>
3.169

$$$$
ligand
 OpenBabel11021811503D
libRbt.so/2013.1/901 2013/11/27
 10 11  0  0  0  0  0  0  0  0999 V2000
   17.5774   -0.6730    2.8177 N   0  0  0  0  0  0  0  0  0  0  0  0
   16.4832   -0.8718    3.5286 C   0  0  0  0  0  0  0  0  0  0  0  0
   16.1601   -2.1701    3.9372 N   0  0  0  0  0  0  0  0  0  0  0  0
   16.9513   -3.1952    3.5920 C   0  0  0  0  0  0  0  0  0  0  0  0
   18.0502   -2.9893    2.8698 C   0  0  0  0  0  0  0  0  0  0  0  0
   18.3905   -1.7617    2.4844 C   0  0  0  0  0  0  0  0  0  0  0  0
   19.4209   -1.5697    1.8410 O   0  0  0  0  0  0  0  0  0  0  0  0
   18.5952   -4.1751    2.6126 N   0  0  0  0  0  0  0  0  0  0  0  0
   17.8405   -5.1122    3.1776 C   0  0  0  0  0  0  0  0  0  0  0  0
   16.8284   -4.5037    3.7896 N   0  0  0  0  0  0  0  0  0  0  0  0
  1  2  1  0  0  0  0
  1  6  1  0  0  0  0
  2  3  2  0  0  0  0
  3  4  1  0  0  0  0
  4  5  2  0  0  0  0
  4 10  1  0  0  0  0
  5  6  1  0  0  0  0
  5  8  1  0  0  0  0
  6  7  2  0  0  0  0
  8  9  1  0  0  0  0
  9 10  2  0  0  0  0
M  END
>  <CHROM.1>
17.66334047,-2.67875560,3.04164709,1.45724979,0.55381453,-0.11849984

>  <Name>
ligand

>  <RI>
0

>  <Rbt.Current_Directory>
/home/itssahil/PROJECTS/Mol_Feturizer/New_Systems/rnas/4NYD

>  <Rbt.Executable>
rbdock ($Id: //depot/dev/client3/rdock/2013.1/src/exe/rbdock.cxx#4 $)

>  <Rbt.Library>
libRbt.so (2013.1, Build901 2013/11/27)

>  <Rbt.Parameter_File>
/export/apps/rDock/src/rDock_2013.1_src/data/scripts/dock_solv.prm

>  <Rbt.Receptor>
prm/pocket_docking_3.prm

>  <SCORE>
-23.767

>  <SCORE.INTER>
-23.767

>  <SCORE.INTER.CONST>
1

>  <SCORE.INTER.POLAR>
0

>  <SCORE.INTER.ROT>
0

>  <SCORE.INTER.SOLV>
3.49061

>  <SCORE.INTER.VDW>
-20.6082

>  <SCORE.INTER.norm>
-2.3767

>  <SCORE.INTRA>
0

>  <SCORE.INTRA.DIHEDRAL>
0

>  <SCORE.INTRA.DIHEDRAL.0>
0

>  <SCORE.INTRA.POLAR>
0

>  <SCORE.INTRA.POLAR.0>
0

>  <SCORE.INTRA.REPUL>
0

>  <SCORE.INTRA.REPUL.0>
0

>  <SCORE.INTRA.SOLV>
0

>  <SCORE.INTRA.SOLV.lig_0>
-4.1818

>  <SCORE.INTRA.VDW>
0

>  <SCORE.INTRA.VDW.0>
0

>  <SCORE.INTRA.norm>
0

>  <SCORE.RESTR>
0

>  <SCORE.RESTR.CAVITY>
0

>  <SCORE.RESTR.norm>
0

>  <SCORE.SYSTEM>
0

>  <SCORE.SYSTEM.CONST>
0

>  <SCORE.SYSTEM.DIHEDRAL>
0

>  <SCORE.SYSTEM.SOLV>
0

>  <SCORE.SYSTEM.norm>
0

>  <SCORE.heavy>
10

>  <SCORE.norm>
-2.3767

>  <RMSD>
3.169

$$$$
ligand
 OpenBabel11021811503D
libRbt.so/2013.1/901 2013/11/27
 10 11  0  0  0  0  0  0  0  0999 V2000
   17.5790   -0.6615    2.8299 N   0  0  0  0  0  0  0  0  0  0  0  0
   16.4819   -0.8624    3.5357 C   0  0  0  0  0  0  0  0  0  0  0  0
   16.1556   -2.1622    3.9370 N   0  0  0  0  0  0  0  0  0  0  0  0
   16.9470   -3.1866    3.5900 C   0  0  0  0  0  0  0  0  0  0  0  0
   18.0488   -2.9786    2.8730 C   0  0  0  0  0  0  0  0  0  0  0  0
   18.3921   -1.7497    2.4947 C   0  0  0  0  0  0  0  0  0  0  0  0
   19.4252   -1.5559    1.8561 O   0  0  0  0  0  0  0  0  0  0  0  0
   18.5934   -4.1639    2.6124 N   0  0  0  0  0  0  0  0  0  0  0  0
   17.8354   -5.1027    3.1701 C   0  0  0  0  0  0  0  0  0  0  0  0
   16.8217   -4.4959    3.7810 N   0  0  0  0  0  0  0  0  0  0  0  0
  1  2  1  0  0  0  0
  1  6  1  0  0  0  0
  2  3  2  0  0  0  0
  3  4  1  0  0  0  0
  4  5  2  0  0  0  0
  4 10  1  0  0  0  0
  5  6  1  0  0  0  0
  5  8  1  0  0  0  0
  6  7  2  0  0  0  0
  8  9  1  0  0  0  0
  9 10  2  0  0  0  0
M  END
>  <CHROM.1>
17.66170753,-2.66844765,3.04480585,1.45531559,0.55015213,-0.11281084

>  <Name>
ligand

>  <RI>
0

>  <Rbt.Current_Directory>
/home/itssahil/PROJECTS/Mol_Feturizer/New_Systems/rnas/4NYD

>  <Rbt.Executable>
rbdock ($Id: //depot/dev/client3/rdock/2013.1/src/exe/rbdock.cxx#4 $)

>  <Rbt.Library>
libRbt.so (2013.1, Build901 2013/11/27)

>  <Rbt.Parameter_File>
/export/apps/rDock/src/rDock_2013.1_src/data/scripts/dock_solv.prm

>  <Rbt.Receptor>
prm/pocket_docking_7.prm

>  <SCORE>
-23.7598

>  <SCORE.INTER>
-23.7598

>  <SCORE.INTER.CONST>
1

>  <SCORE.INTER.POLAR>
0

>  <SCORE.INTER.ROT>
0

>  <SCORE.INTER.SOLV>
3.49847

>  <SCORE.INTER.VDW>
-20.606

>  <SCORE.INTER.norm>
-2.37598

>  <SCORE.INTRA>
0

>  <SCORE.INTRA.DIHEDRAL>
0

>  <SCORE.INTRA.DIHEDRAL.0>
0

>  <SCORE.INTRA.POLAR>
0

>  <SCORE.INTRA.POLAR.0>
0

>  <SCORE.INTRA.REPUL>
0

>  <SCORE.INTRA.REPUL.0>
0

>  <SCORE.INTRA.SOLV>
0

>  <SCORE.INTRA.SOLV.lig_0>
-4.1818

>  <SCORE.INTRA.VDW>
0

>  <SCORE.INTRA.VDW.0>
0

>  <SCORE.INTRA.norm>
0

>  <SCORE.RESTR>
0

>  <SCORE.RESTR.CAVITY>
0

>  <SCORE.RESTR.norm>
0

>  <SCORE.SYSTEM>
0

>  <SCORE.SYSTEM.CONST>
0

>  <SCORE.SYSTEM.DIHEDRAL>
0

>  <SCORE.SYSTEM.SOLV>
0

>  <SCORE.SYSTEM.norm>
0

>  <SCORE.heavy>
10

>  <SCORE.norm>
-2.37598

>  <RMSD>
3.171

$$$$
ligand
 OpenBabel11021811503D
libRbt.so/2013.1/901 2013/11/27
 10 11  0  0  0  0  0  0  0  0999 V2000
   17.5943   -0.6652    2.8355 N   0  0  0  0  0  0  0  0  0  0  0  0
   16.5019   -0.8524    3.5525 C   0  0  0  0  0  0  0  0  0  0  0  0
   16.1618   -2.1485    3.9542 N   0  0  0  0  0  0  0  0  0  0  0  0
   16.9349   -3.1831    3.5964 C   0  0  0  0  0  0  0  0  0  0  0  0
   18.0318   -2.9888    2.8681 C   0  0  0  0  0  0  0  0  0  0  0  0
   18.3883   -1.7638    2.4891 C   0  0  0  0  0  0  0  0  0  0  0  0
   19.4172   -1.5830    1.8399 O   0  0  0  0  0  0  0  0  0  0  0  0
   18.5569   -4.1809    2.5989 N   0  0  0  0  0  0  0  0  0  0  0  0
   17.7917   -5.1104    3.1624 C   0  0  0  0  0  0  0  0  0  0  0  0
   16.7932   -4.4909    3.7856 N   0  0  0  0  0  0  0  0  0  0  0  0
  1  2  1  0  0  0  0
  1  6  1  0  0  0  0
  2  3  2  0  0  0  0
  3  4  1  0  0  0  0
  4  5  2  0  0  0  0
  4 10  1  0  0  0  0
  5  6  1  0  0  0  0
  5  8  1  0  0  0  0
  6  7  2  0  0  0  0
  8  9  1  0  0  0  0
  9 10  2  0  0  0  0
M  END
>  <CHROM.1>
17.65096203,-2.67360830,3.04478898,1.44020585,0.56227149,-0.10239265

>  <Name>
ligand

>  <RI>
0

>  <Rbt.Current_Directory>
/home/itssahil/PROJECTS/Mol_Feturizer/New_Systems/rnas/4NYD

>  <Rbt.Executable>
rbdock ($Id: //depot/dev/client3/rdock/2013.1/src/exe/rbdock.cxx#4 $)

>  <Rbt.Library>
libRbt.so (2013.1, Build901 2013/11/27)

>  <Rbt.Parameter_File>
/export/apps/rDock/src/rDock_2013.1_src/data/scripts/dock_solv.prm

>  <Rbt.Receptor>
prm/blind_docking_60.prm

>  <SCORE>
-23.8232

>  <SCORE.INTER>
-23.8232

>  <SCORE.INTER.CONST>
1

>  <SCORE.INTER.POLAR>
0

>  <SCORE.INTER.ROT>
0

>  <SCORE.INTER.SOLV>
3.51344

>  <SCORE.INTER.VDW>
-20.6533

>  <SCORE.INTER.norm>
-2.38232

>  <SCORE.INTRA>
0

>  <SCORE.INTRA.DIHEDRAL>
0

>  <SCORE.INTRA.DIHEDRAL.0>
0

>  <SCORE.INTRA.POLAR>
0

>  <SCORE.INTRA.POLAR.0>
0

>  <SCORE.INTRA.REPUL>
0

>  <SCORE.INTRA.REPUL.0>
0

>  <SCORE.INTRA.SOLV>
0

>  <SCORE.INTRA.SOLV.lig_0>
-4.1818

>  <SCORE.INTRA.VDW>
0

>  <SCORE.INTRA.VDW.0>
0

>  <SCORE.INTRA.norm>
0

>  <SCORE.RESTR>
0

>  <SCORE.RESTR.CAVITY>
0

>  <SCORE.RESTR.norm>
0

>  <SCORE.SYSTEM>
0

>  <SCORE.SYSTEM.CONST>
0

>  <SCORE.SYSTEM.DIHEDRAL>
0

>  <SCORE.SYSTEM.SOLV>
0

>  <SCORE.SYSTEM.norm>
0

>  <SCORE.heavy>
10

>  <SCORE.norm>
-2.38232

>  <RMSD>
3.173

$$$$
ligand
 OpenBabel11021811503D
libRbt.so/2013.1/901 2013/11/27
 10 11  0  0  0  0  0  0  0  0999 V2000
   17.5983   -0.6756    2.8440 N   0  0  0  0  0  0  0  0  0  0  0  0
   16.5056   -0.8603    3.5611 C   0  0  0  0  0  0  0  0  0  0  0  0
   16.1642   -2.1553    3.9654 N   0  0  0  0  0  0  0  0  0  0  0  0
   16.9365   -3.1913    3.6099 C   0  0  0  0  0  0  0  0  0  0  0  0
   18.0338   -2.9995    2.8816 C   0  0  0  0  0  0  0  0  0  0  0  0
   18.3915   -1.7756    2.5001 C   0  0  0  0  0  0  0  0  0  0  0  0
   19.4207   -1.5971    1.8509 O   0  0  0  0  0  0  0  0  0  0  0  0
   18.5579   -4.1926    2.6150 N   0  0  0  0  0  0  0  0  0  0  0  0
   17.7917   -5.1203    3.1802 C   0  0  0  0  0  0  0  0  0  0  0  0
   16.7936   -4.4986    3.8019 N   0  0  0  0  0  0  0  0  0  0  0  0
  1  2  1  0  0  0  0
  1  6  1  0  0  0  0
  2  3  2  0  0  0  0
  3  4  1  0  0  0  0
  4  5  2  0  0  0  0
  4 10  1  0  0  0  0
  5  6  1  0  0  0  0
  5  8  1  0  0  0  0
  6  7  2  0  0  0  0
  8  9  1  0  0  0  0
  9 10  2  0  0  0  0
M  END
>  <CHROM.1>
17.65317284,-2.68363103,3.05749410,1.43913103,0.56209768,-0.10389574

>  <Name>
ligand

>  <RI>
0

>  <Rbt.Current_Directory>
/home/itssahil/PROJECTS/Mol_Feturizer/New_Systems/rnas/4NYD

>  <Rbt.Executable>
rbdock ($Id: //depot/dev/client3/rdock/2013.1/src/exe/rbdock.cxx#4 $)

>  <Rbt.Library>
libRbt.so (2013.1, Build901 2013/11/27)

>  <Rbt.Parameter_File>
/export/apps/rDock/src/rDock_2013.1_src/data/scripts/dock_solv.prm

>  <Rbt.Receptor>
prm/pocket_docking_3.prm

>  <SCORE>
-23.8209

>  <SCORE.INTER>
-23.8209

>  <SCORE.INTER.CONST>
1

>  <SCORE.INTER.POLAR>
0

>  <SCORE.INTER.ROT>
0

>  <SCORE.INTER.SOLV>
3.52343

>  <SCORE.INTER.VDW>
-20.6551

>  <SCORE.INTER.norm>
-2.38209

>  <SCORE.INTRA>
0

>  <SCORE.INTRA.DIHEDRAL>
0

>  <SCORE.INTRA.DIHEDRAL.0>
0

>  <SCORE.INTRA.POLAR>
0

>  <SCORE.INTRA.POLAR.0>
0

>  <SCORE.INTRA.REPUL>
0

>  <SCORE.INTRA.REPUL.0>
0

>  <SCORE.INTRA.SOLV>
0

>  <SCORE.INTRA.SOLV.lig_0>
-4.1818

>  <SCORE.INTRA.VDW>
0

>  <SCORE.INTRA.VDW.0>
0

>  <SCORE.INTRA.norm>
0

>  <SCORE.RESTR>
0

>  <SCORE.RESTR.CAVITY>
0

>  <SCORE.RESTR.norm>
0

>  <SCORE.SYSTEM>
0

>  <SCORE.SYSTEM.CONST>
0

>  <SCORE.SYSTEM.DIHEDRAL>
0

>  <SCORE.SYSTEM.SOLV>
0

>  <SCORE.SYSTEM.norm>
0

>  <SCORE.heavy>
10

>  <SCORE.norm>
-2.38209

>  <RMSD>
3.173

$$$$
ligand
 OpenBabel11021811503D
libRbt.so/2013.1/901 2013/11/27
 10 11  0  0  0  0  0  0  0  0999 V2000
   17.5986   -0.6681    2.8393 N   0  0  0  0  0  0  0  0  0  0  0  0
   16.4993   -0.8516    3.5465 C   0  0  0  0  0  0  0  0  0  0  0  0
   16.1566   -2.1453    3.9538 N   0  0  0  0  0  0  0  0  0  0  0  0
   16.9345   -3.1814    3.6110 C   0  0  0  0  0  0  0  0  0  0  0  0
   18.0386   -2.9908    2.8926 C   0  0  0  0  0  0  0  0  0  0  0  0
   18.3974   -1.7680    2.5086 C   0  0  0  0  0  0  0  0  0  0  0  0
   19.4326   -1.5905    1.8687 O   0  0  0  0  0  0  0  0  0  0  0  0
   18.5678   -4.1841    2.6370 N   0  0  0  0  0  0  0  0  0  0  0  0
   17.7980   -5.1106    3.1992 C   0  0  0  0  0  0  0  0  0  0  0  0
   16.7926   -4.4881    3.8079 N   0  0  0  0  0  0  0  0  0  0  0  0
  1  2  1  0  0  0  0
  1  6  1  0  0  0  0
  2  3  2  0  0  0  0
  3  4  1  0  0  0  0
  4  5  2  0  0  0  0
  4 10  1  0  0  0  0
  5  6  1  0  0  0  0
  5  8  1  0  0  0  0
  6  7  2  0  0  0  0
  8  9  1  0  0  0  0
  9 10  2  0  0  0  0
M  END
>  <CHROM.1>
17.65558534,-2.67489379,3.06315795,1.44037374,0.55207077,-0.10945370

>  <Name>
ligand

>  <RI>
0

>  <Rbt.Current_Directory>
/home/itssahil/PROJECTS/Mol_Feturizer/New_Systems/rnas/4NYD

>  <Rbt.Executable>
rbdock ($Id: //depot/dev/client3/rdock/2013.1/src/exe/rbdock.cxx#4 $)

>  <Rbt.Library>
libRbt.so (2013.1, Build901 2013/11/27)

>  <Rbt.Parameter_File>
/export/apps/rDock/src/rDock_2013.1_src/data/scripts/dock_solv.prm

>  <Rbt.Receptor>
prm/pocket_docking_3.prm

>  <SCORE>
-23.8242

>  <SCORE.INTER>
-23.8242

>  <SCORE.INTER.CONST>
1

>  <SCORE.INTER.POLAR>
0

>  <SCORE.INTER.ROT>
0

>  <SCORE.INTER.SOLV>
3.51897

>  <SCORE.INTER.VDW>
-20.6558

>  <SCORE.INTER.norm>
-2.38242

>  <SCORE.INTRA>
0

>  <SCORE.INTRA.DIHEDRAL>
0

>  <SCORE.INTRA.DIHEDRAL.0>
0

>  <SCORE.INTRA.POLAR>
0

>  <SCORE.INTRA.POLAR.0>
0

>  <SCORE.INTRA.REPUL>
0

>  <SCORE.INTRA.REPUL.0>
0

>  <SCORE.INTRA.SOLV>
0

>  <SCORE.INTRA.SOLV.lig_0>
-4.1818

>  <SCORE.INTRA.VDW>
0

>  <SCORE.INTRA.VDW.0>
0

>  <SCORE.INTRA.norm>
0

>  <SCORE.RESTR>
0

>  <SCORE.RESTR.CAVITY>
0

>  <SCORE.RESTR.norm>
0

>  <SCORE.SYSTEM>
0

>  <SCORE.SYSTEM.CONST>
0

>  <SCORE.SYSTEM.DIHEDRAL>
0

>  <SCORE.SYSTEM.SOLV>
0

>  <SCORE.SYSTEM.norm>
0

>  <SCORE.heavy>
10

>  <SCORE.norm>
-2.38242

>  <RMSD>
3.173

$$$$
ligand
 OpenBabel11021811503D
libRbt.so/2013.1/901 2013/11/27
 10 11  0  0  0  0  0  0  0  0999 V2000
   17.5986   -0.6662    2.8412 N   0  0  0  0  0  0  0  0  0  0  0  0
   16.5028   -0.8520    3.5532 C   0  0  0  0  0  0  0  0  0  0  0  0
   16.1609   -2.1472    3.9562 N   0  0  0  0  0  0  0  0  0  0  0  0
   16.9360   -3.1824    3.6046 C   0  0  0  0  0  0  0  0  0  0  0  0
   18.0365   -2.9895    2.8814 C   0  0  0  0  0  0  0  0  0  0  0  0
   18.3946   -1.7654    2.5013 C   0  0  0  0  0  0  0  0  0  0  0  0
   19.4267   -1.5858    1.8569 O   0  0  0  0  0  0  0  0  0  0  0  0
   18.5633   -4.1822    2.6176 N   0  0  0  0  0  0  0  0  0  0  0  0
   17.7955   -5.1105    3.1795 C   0  0  0  0  0  0  0  0  0  0  0  0
   16.7938   -4.4899    3.7962 N   0  0  0  0  0  0  0  0  0  0  0  0
  1  2  1  0  0  0  0
  1  6  1  0  0  0  0
  2  3  2  0  0  0  0
  3  4  1  0  0  0  0
  4  5  2  0  0  0  0
  4 10  1  0  0  0  0
  5  6  1  0  0  0  0
  5  8  1  0  0  0  0
  6  7  2  0  0  0  0
  8  9  1  0  0  0  0
  9 10  2  0  0  0  0
M  END
>  <CHROM.1>
17.65475677,-2.67408832,3.05545758,1.43989088,0.55727262,-0.10456550

>  <Name>
ligand

>  <RI>
0

>  <Rbt.Current_Directory>
/home/itssahil/PROJECTS/Mol_Feturizer/New_Systems/rnas/4NYD

>  <Rbt.Executable>
rbdock ($Id: //depot/dev/client3/rdock/2013.1/src/exe/rbdock.cxx#4 $)

>  <Rbt.Library>
libRbt.so (2013.1, Build901 2013/11/27)

>  <Rbt.Parameter_File>
/export/apps/rDock/src/rDock_2013.1_src/data/scripts/dock_solv.prm

>  <Rbt.Receptor>
prm/pocket_docking_5.prm

>  <SCORE>
-23.8277

>  <SCORE.INTER>
-23.8277

>  <SCORE.INTER.CONST>
1

>  <SCORE.INTER.POLAR>
0

>  <SCORE.INTER.ROT>
0

>  <SCORE.INTER.SOLV>
3.51935

>  <SCORE.INTER.VDW>
-20.6582

>  <SCORE.INTER.norm>
-2.38277

>  <SCORE.INTRA>
0

>  <SCORE.INTRA.DIHEDRAL>
0

>  <SCORE.INTRA.DIHEDRAL.0>
0

>  <SCORE.INTRA.POLAR>
0

>  <SCORE.INTRA.POLAR.0>
0

>  <SCORE.INTRA.REPUL>
0

>  <SCORE.INTRA.REPUL.0>
0

>  <SCORE.INTRA.SOLV>
0

>  <SCORE.INTRA.SOLV.lig_0>
-4.1818

>  <SCORE.INTRA.VDW>
0

>  <SCORE.INTRA.VDW.0>
0

>  <SCORE.INTRA.norm>
0

>  <SCORE.RESTR>
0

>  <SCORE.RESTR.CAVITY>
0

>  <SCORE.RESTR.norm>
0

>  <SCORE.SYSTEM>
0

>  <SCORE.SYSTEM.CONST>
0

>  <SCORE.SYSTEM.DIHEDRAL>
0

>  <SCORE.SYSTEM.SOLV>
0

>  <SCORE.SYSTEM.norm>
0

>  <SCORE.heavy>
10

>  <SCORE.norm>
-2.38277

>  <RMSD>
3.173

$$$$
ligand
 OpenBabel11021811503D
libRbt.so/2013.1/901 2013/11/27
 10 11  0  0  0  0  0  0  0  0999 V2000
   17.5662   -0.6895    2.7995 N   0  0  0  0  0  0  0  0  0  0  0  0
   16.4827   -0.8780    3.5294 C   0  0  0  0  0  0  0  0  0  0  0  0
   16.1620   -2.1712    3.9555 N   0  0  0  0  0  0  0  0  0  0  0  0
   16.9444   -3.2022    3.6076 C   0  0  0  0  0  0  0  0  0  0  0  0
   18.0323   -3.0068    2.8663 C   0  0  0  0  0  0  0  0  0  0  0  0
   18.3705   -1.7840    2.4639 C   0  0  0  0  0  0  0  0  0  0  0  0
   19.3912   -1.6016    1.8025 O   0  0  0  0  0  0  0  0  0  0  0  0
   18.5695   -4.1968    2.6119 N   0  0  0  0  0  0  0  0  0  0  0  0
   17.8208   -5.1260    3.1976 C   0  0  0  0  0  0  0  0  0  0  0  0
   16.8204   -4.5083    3.8196 N   0  0  0  0  0  0  0  0  0  0  0  0
  1  2  1  0  0  0  0
  1  6  1  0  0  0  0
  2  3  2  0  0  0  0
  3  4  1  0  0  0  0
  4  5  2  0  0  0  0
  4 10  1  0  0  0  0
  5  6  1  0  0  0  0
  5  8  1  0  0  0  0
  6  7  2  0  0  0  0
  8  9  1  0  0  0  0
  9 10  2  0  0  0  0
M  END
>  <CHROM.1>
17.64926725,-2.69334421,3.04121618,1.45570190,0.56986813,-0.12719430

>  <Name>
ligand

>  <RI>
0

>  <Rbt.Current_Directory>
/home/itssahil/PROJECTS/Mol_Feturizer/New_Systems/rnas/4NYD

>  <Rbt.Executable>
rbdock ($Id: //depot/dev/client3/rdock/2013.1/src/exe/rbdock.cxx#4 $)

>  <Rbt.Library>
libRbt.so (2013.1, Build901 2013/11/27)

>  <Rbt.Parameter_File>
/export/apps/rDock/src/rDock_2013.1_src/data/scripts/dock_solv.prm

>  <Rbt.Receptor>
prm/pocket_docking_6.prm

>  <SCORE>
-23.7864

>  <SCORE.INTER>
-23.7864

>  <SCORE.INTER.CONST>
1

>  <SCORE.INTER.POLAR>
0

>  <SCORE.INTER.ROT>
0

>  <SCORE.INTER.SOLV>
3.48873

>  <SCORE.INTER.VDW>
-20.6205

>  <SCORE.INTER.norm>
-2.37864

>  <SCORE.INTRA>
0

>  <SCORE.INTRA.DIHEDRAL>
0

>  <SCORE.INTRA.DIHEDRAL.0>
0

>  <SCORE.INTRA.POLAR>
0

>  <SCORE.INTRA.POLAR.0>
0

>  <SCORE.INTRA.REPUL>
0

>  <SCORE.INTRA.REPUL.0>
0

>  <SCORE.INTRA.SOLV>
0

>  <SCORE.INTRA.SOLV.lig_0>
-4.1818

>  <SCORE.INTRA.VDW>
0

>  <SCORE.INTRA.VDW.0>
0

>  <SCORE.INTRA.norm>
0

>  <SCORE.RESTR>
0

>  <SCORE.RESTR.CAVITY>
0

>  <SCORE.RESTR.norm>
0

>  <SCORE.SYSTEM>
0

>  <SCORE.SYSTEM.CONST>
0

>  <SCORE.SYSTEM.DIHEDRAL>
0

>  <SCORE.SYSTEM.SOLV>
0

>  <SCORE.SYSTEM.norm>
0

>  <SCORE.heavy>
10

>  <SCORE.norm>
-2.37864

>  <RMSD>
3.173

$$$$
ligand
 OpenBabel11021811503D
libRbt.so/2013.1/901 2013/11/27
 10 11  0  0  0  0  0  0  0  0999 V2000
   17.6117   -0.6611    2.8587 N   0  0  0  0  0  0  0  0  0  0  0  0
   16.5173   -0.8448    3.5734 C   0  0  0  0  0  0  0  0  0  0  0  0
   16.1696   -2.1403    3.9704 N   0  0  0  0  0  0  0  0  0  0  0  0
   16.9377   -3.1779    3.6105 C   0  0  0  0  0  0  0  0  0  0  0  0
   18.0369   -2.9871    2.8846 C   0  0  0  0  0  0  0  0  0  0  0  0
   18.4005   -1.7628    2.5100 C   0  0  0  0  0  0  0  0  0  0  0  0
   19.4313   -1.5854    1.8631 O   0  0  0  0  0  0  0  0  0  0  0  0
   18.5560   -4.1811    2.6123 N   0  0  0  0  0  0  0  0  0  0  0  0
   17.7850   -5.1083    3.1717 C   0  0  0  0  0  0  0  0  0  0  0  0
   16.7889   -4.4856    3.7953 N   0  0  0  0  0  0  0  0  0  0  0  0
  1  2  1  0  0  0  0
  1  6  1  0  0  0  0
  2  3  2  0  0  0  0
  3  4  1  0  0  0  0
  4  5  2  0  0  0  0
  4 10  1  0  0  0  0
  5  6  1  0  0  0  0
  5  8  1  0  0  0  0
  6  7  2  0  0  0  0
  8  9  1  0  0  0  0
  9 10  2  0  0  0  0
M  END
>  <CHROM.1>
17.65741060,-2.67047438,3.06164964,1.43377803,0.56121826,-0.09576073

>  <Name>
ligand

>  <RI>
0

>  <Rbt.Current_Directory>
/home/itssahil/PROJECTS/Mol_Feturizer/New_Systems/rnas/4NYD

>  <Rbt.Executable>
rbdock ($Id: //depot/dev/client3/rdock/2013.1/src/exe/rbdock.cxx#4 $)

>  <Rbt.Library>
libRbt.so (2013.1, Build901 2013/11/27)

>  <Rbt.Parameter_File>
/export/apps/rDock/src/rDock_2013.1_src/data/scripts/dock_solv.prm

>  <Rbt.Receptor>
prm/pocket_docking_7.prm

>  <SCORE>
-23.7893

>  <SCORE.INTER>
-23.7893

>  <SCORE.INTER.CONST>
1

>  <SCORE.INTER.POLAR>
0

>  <SCORE.INTER.ROT>
0

>  <SCORE.INTER.SOLV>
3.53643

>  <SCORE.INTER.VDW>
-20.6384

>  <SCORE.INTER.norm>
-2.37893

>  <SCORE.INTRA>
0

>  <SCORE.INTRA.DIHEDRAL>
0

>  <SCORE.INTRA.DIHEDRAL.0>
0

>  <SCORE.INTRA.POLAR>
0

>  <SCORE.INTRA.POLAR.0>
0

>  <SCORE.INTRA.REPUL>
0

>  <SCORE.INTRA.REPUL.0>
0

>  <SCORE.INTRA.SOLV>
0

>  <SCORE.INTRA.SOLV.lig_0>
-4.1818

>  <SCORE.INTRA.VDW>
0

>  <SCORE.INTRA.VDW.0>
0

>  <SCORE.INTRA.norm>
0

>  <SCORE.RESTR>
0

>  <SCORE.RESTR.CAVITY>
0

>  <SCORE.RESTR.norm>
0

>  <SCORE.SYSTEM>
0

>  <SCORE.SYSTEM.CONST>
0

>  <SCORE.SYSTEM.DIHEDRAL>
0

>  <SCORE.SYSTEM.SOLV>
0

>  <SCORE.SYSTEM.norm>
0

>  <SCORE.heavy>
10

>  <SCORE.norm>
-2.37893

>  <RMSD>
3.173

$$$$
ligand
 OpenBabel11021811503D
libRbt.so/2013.1/901 2013/11/27
 10 11  0  0  0  0  0  0  0  0999 V2000
   17.5897   -0.6625    2.8304 N   0  0  0  0  0  0  0  0  0  0  0  0
   16.4984   -0.8506    3.5487 C   0  0  0  0  0  0  0  0  0  0  0  0
   16.1655   -2.1457    3.9598 N   0  0  0  0  0  0  0  0  0  0  0  0
   16.9444   -3.1785    3.6094 C   0  0  0  0  0  0  0  0  0  0  0  0
   18.0403   -2.9832    2.8798 C   0  0  0  0  0  0  0  0  0  0  0  0
   18.3899   -1.7590    2.4919 C   0  0  0  0  0  0  0  0  0  0  0  0
   19.4178   -1.5772    1.8415 O   0  0  0  0  0  0  0  0  0  0  0  0
   18.5721   -4.1743    2.6192 N   0  0  0  0  0  0  0  0  0  0  0  0
   17.8122   -5.1040    3.1895 C   0  0  0  0  0  0  0  0  0  0  0  0
   16.8102   -4.4857    3.8081 N   0  0  0  0  0  0  0  0  0  0  0  0
  1  2  1  0  0  0  0
  1  6  1  0  0  0  0
  2  3  2  0  0  0  0
  3  4  1  0  0  0  0
  4  5  2  0  0  0  0
  4 10  1  0  0  0  0
  5  6  1  0  0  0  0
  5  8  1  0  0  0  0
  6  7  2  0  0  0  0
  8  9  1  0  0  0  0
  9 10  2  0  0  0  0
M  END
>  <CHROM.1>
17.65770493,-2.66897034,3.05418336,1.44682443,0.56163289,-0.11315266

>  <Name>
ligand

>  <RI>
0

>  <Rbt.Current_Directory>
/home/itssahil/PROJECTS/Mol_Feturizer/New_Systems/rnas/4NYD

>  <Rbt.Executable>
rbdock ($Id: //depot/dev/client3/rdock/2013.1/src/exe/rbdock.cxx#4 $)

>  <Rbt.Library>
libRbt.so (2013.1, Build901 2013/11/27)

>  <Rbt.Parameter_File>
/export/apps/rDock/src/rDock_2013.1_src/data/scripts/dock_solv.prm

>  <Rbt.Receptor>
prm/pocket_docking_8.prm

>  <SCORE>
-23.7721

>  <SCORE.INTER>
-23.7721

>  <SCORE.INTER.CONST>
1

>  <SCORE.INTER.POLAR>
0

>  <SCORE.INTER.ROT>
0

>  <SCORE.INTER.SOLV>
3.51093

>  <SCORE.INTER.VDW>
-20.6184

>  <SCORE.INTER.norm>
-2.37721

>  <SCORE.INTRA>
0

>  <SCORE.INTRA.DIHEDRAL>
0

>  <SCORE.INTRA.DIHEDRAL.0>
0

>  <SCORE.INTRA.POLAR>
0

>  <SCORE.INTRA.POLAR.0>
0

>  <SCORE.INTRA.REPUL>
0

>  <SCORE.INTRA.REPUL.0>
0

>  <SCORE.INTRA.SOLV>
0

>  <SCORE.INTRA.SOLV.lig_0>
-4.1818

>  <SCORE.INTRA.VDW>
0

>  <SCORE.INTRA.VDW.0>
0

>  <SCORE.INTRA.norm>
0

>  <SCORE.RESTR>
0

>  <SCORE.RESTR.CAVITY>
0

>  <SCORE.RESTR.norm>
0

>  <SCORE.SYSTEM>
0

>  <SCORE.SYSTEM.CONST>
0

>  <SCORE.SYSTEM.DIHEDRAL>
0

>  <SCORE.SYSTEM.SOLV>
0

>  <SCORE.SYSTEM.norm>
0

>  <SCORE.heavy>
10

>  <SCORE.norm>
-2.37721

>  <RMSD>
3.173

$$$$
ligand
 OpenBabel11021811503D
libRbt.so/2013.1/901 2013/11/27
 10 11  0  0  0  0  0  0  0  0999 V2000
   17.5918   -0.6641    2.8294 N   0  0  0  0  0  0  0  0  0  0  0  0
   16.5056   -0.8493    3.5561 C   0  0  0  0  0  0  0  0  0  0  0  0
   16.1682   -2.1444    3.9632 N   0  0  0  0  0  0  0  0  0  0  0  0
   16.9376   -3.1802    3.6008 C   0  0  0  0  0  0  0  0  0  0  0  0
   18.0283   -2.9879    2.8628 C   0  0  0  0  0  0  0  0  0  0  0  0
   18.3823   -1.7638    2.4783 C   0  0  0  0  0  0  0  0  0  0  0  0
   19.4056   -1.5849    1.8200 O   0  0  0  0  0  0  0  0  0  0  0  0
   18.5504   -4.1808    2.5914 N   0  0  0  0  0  0  0  0  0  0  0  0
   17.7896   -5.1088    3.1633 C   0  0  0  0  0  0  0  0  0  0  0  0
   16.7969   -4.4876    3.7938 N   0  0  0  0  0  0  0  0  0  0  0  0
  1  2  1  0  0  0  0
  1  6  1  0  0  0  0
  2  3  2  0  0  0  0
  3  4  1  0  0  0  0
  4  5  2  0  0  0  0
  4 10  1  0  0  0  0
  5  6  1  0  0  0  0
  5  8  1  0  0  0  0
  6  7  2  0  0  0  0
  8  9  1  0  0  0  0
  9 10  2  0  0  0  0
M  END
>  <CHROM.1>
17.64921311,-2.67216889,3.04210337,1.44060431,0.57086481,-0.10454401

>  <Name>
ligand

>  <RI>
0

>  <Rbt.Current_Directory>
/home/itssahil/PROJECTS/Mol_Feturizer/New_Systems/rnas/4NYD

>  <Rbt.Executable>
rbdock ($Id: //depot/dev/client3/rdock/2013.1/src/exe/rbdock.cxx#4 $)

>  <Rbt.Library>
libRbt.so (2013.1, Build901 2013/11/27)

>  <Rbt.Parameter_File>
/export/apps/rDock/src/rDock_2013.1_src/data/scripts/dock_solv.prm

>  <Rbt.Receptor>
prm/blind_docking_40.prm

>  <SCORE>
-23.7948

>  <SCORE.INTER>
-23.7948

>  <SCORE.INTER.CONST>
1

>  <SCORE.INTER.POLAR>
0

>  <SCORE.INTER.ROT>
0

>  <SCORE.INTER.SOLV>
3.51198

>  <SCORE.INTER.VDW>
-20.6338

>  <SCORE.INTER.norm>
-2.37948

>  <SCORE.INTRA>
0

>  <SCORE.INTRA.DIHEDRAL>
0

>  <SCORE.INTRA.DIHEDRAL.0>
0

>  <SCORE.INTRA.POLAR>
0

>  <SCORE.INTRA.POLAR.0>
0

>  <SCORE.INTRA.REPUL>
0

>  <SCORE.INTRA.REPUL.0>
0

>  <SCORE.INTRA.SOLV>
0

>  <SCORE.INTRA.SOLV.lig_0>
-4.1818

>  <SCORE.INTRA.VDW>
0

>  <SCORE.INTRA.VDW.0>
0

>  <SCORE.INTRA.norm>
0

>  <SCORE.RESTR>
0

>  <SCORE.RESTR.CAVITY>
0

>  <SCORE.RESTR.norm>
0

>  <SCORE.SYSTEM>
0

>  <SCORE.SYSTEM.CONST>
0

>  <SCORE.SYSTEM.DIHEDRAL>
0

>  <SCORE.SYSTEM.SOLV>
0

>  <SCORE.SYSTEM.norm>
0

>  <SCORE.heavy>
10

>  <SCORE.norm>
-2.37948

>  <RMSD>
3.174

$$$$
ligand
 OpenBabel11021811503D
libRbt.so/2013.1/901 2013/11/27
 10 11  0  0  0  0  0  0  0  0999 V2000
   17.5906   -0.6711    2.8278 N   0  0  0  0  0  0  0  0  0  0  0  0
   16.5014   -0.8531    3.5510 C   0  0  0  0  0  0  0  0  0  0  0  0
   16.1658   -2.1455    3.9679 N   0  0  0  0  0  0  0  0  0  0  0  0
   16.9400   -3.1821    3.6184 C   0  0  0  0  0  0  0  0  0  0  0  0
   18.0337   -2.9932    2.8839 C   0  0  0  0  0  0  0  0  0  0  0  0
   18.3859   -1.7716    2.4902 C   0  0  0  0  0  0  0  0  0  0  0  0
   19.4119   -1.5954    1.8353 O   0  0  0  0  0  0  0  0  0  0  0  0
   18.5605   -4.1869    2.6255 N   0  0  0  0  0  0  0  0  0  0  0  0
   17.7997   -5.1120    3.2020 C   0  0  0  0  0  0  0  0  0  0  0  0
   16.8021   -4.4882    3.8223 N   0  0  0  0  0  0  0  0  0  0  0  0
  1  2  1  0  0  0  0
  1  6  1  0  0  0  0
  2  3  2  0  0  0  0
  3  4  1  0  0  0  0
  4  5  2  0  0  0  0
  4 10  1  0  0  0  0
  5  6  1  0  0  0  0
  5  8  1  0  0  0  0
  6  7  2  0  0  0  0
  8  9  1  0  0  0  0
  9 10  2  0  0  0  0
M  END
>  <CHROM.1>
17.65278174,-2.67701119,3.05857586,1.44342458,0.56580828,-0.11493253

>  <Name>
ligand

>  <RI>
0

>  <Rbt.Current_Directory>
/home/itssahil/PROJECTS/Mol_Feturizer/New_Systems/rnas/4NYD

>  <Rbt.Executable>
rbdock ($Id: //depot/dev/client3/rdock/2013.1/src/exe/rbdock.cxx#4 $)

>  <Rbt.Library>
libRbt.so (2013.1, Build901 2013/11/27)

>  <Rbt.Parameter_File>
/export/apps/rDock/src/rDock_2013.1_src/data/scripts/dock_solv.prm

>  <Rbt.Receptor>
prm/blind_docking_40.prm

>  <SCORE>
-23.8376

>  <SCORE.INTER>
-23.8376

>  <SCORE.INTER.CONST>
1

>  <SCORE.INTER.POLAR>
0

>  <SCORE.INTER.ROT>
0

>  <SCORE.INTER.SOLV>
3.51381

>  <SCORE.INTER.VDW>
-20.663

>  <SCORE.INTER.norm>
-2.38376

>  <SCORE.INTRA>
0

>  <SCORE.INTRA.DIHEDRAL>
0

>  <SCORE.INTRA.DIHEDRAL.0>
0

>  <SCORE.INTRA.POLAR>
0

>  <SCORE.INTRA.POLAR.0>
0

>  <SCORE.INTRA.REPUL>
0

>  <SCORE.INTRA.REPUL.0>
0

>  <SCORE.INTRA.SOLV>
0

>  <SCORE.INTRA.SOLV.lig_0>
-4.1818

>  <SCORE.INTRA.VDW>
0

>  <SCORE.INTRA.VDW.0>
0

>  <SCORE.INTRA.norm>
0

>  <SCORE.RESTR>
0

>  <SCORE.RESTR.CAVITY>
0

>  <SCORE.RESTR.norm>
0

>  <SCORE.SYSTEM>
0

>  <SCORE.SYSTEM.CONST>
0

>  <SCORE.SYSTEM.DIHEDRAL>
0

>  <SCORE.SYSTEM.SOLV>
0

>  <SCORE.SYSTEM.norm>
0

>  <SCORE.heavy>
10

>  <SCORE.norm>
-2.38376

>  <RMSD>
3.174

$$$$
ligand
 OpenBabel11021811503D
libRbt.so/2013.1/901 2013/11/27
 10 11  0  0  0  0  0  0  0  0999 V2000
   17.5968   -0.6714    2.8454 N   0  0  0  0  0  0  0  0  0  0  0  0
   16.5027   -0.8577    3.5599 C   0  0  0  0  0  0  0  0  0  0  0  0
   16.1617   -2.1532    3.9628 N   0  0  0  0  0  0  0  0  0  0  0  0
   16.9359   -3.1882    3.6086 C   0  0  0  0  0  0  0  0  0  0  0  0
   18.0347   -2.9948    2.8829 C   0  0  0  0  0  0  0  0  0  0  0  0
   18.3919   -1.7704    2.5028 C   0  0  0  0  0  0  0  0  0  0  0  0
   19.4225   -1.5905    1.8560 O   0  0  0  0  0  0  0  0  0  0  0  0
   18.5607   -4.1873    2.6169 N   0  0  0  0  0  0  0  0  0  0  0  0
   17.7943   -5.1160    3.1800 C   0  0  0  0  0  0  0  0  0  0  0  0
   16.7941   -4.4958    3.7996 N   0  0  0  0  0  0  0  0  0  0  0  0
  1  2  1  0  0  0  0
  1  6  1  0  0  0  0
  2  3  2  0  0  0  0
  3  4  1  0  0  0  0
  4  5  2  0  0  0  0
  4 10  1  0  0  0  0
  5  6  1  0  0  0  0
  5  8  1  0  0  0  0
  6  7  2  0  0  0  0
  8  9  1  0  0  0  0
  9 10  2  0  0  0  0
M  END
>  <CHROM.1>
17.65336174,-2.67949080,3.05803903,1.44013571,0.55969081,-0.10396537

>  <Name>
ligand

>  <RI>
0

>  <Rbt.Current_Directory>
/home/itssahil/PROJECTS/Mol_Feturizer/New_Systems/rnas/4NYD

>  <Rbt.Executable>
rbdock ($Id: //depot/dev/client3/rdock/2013.1/src/exe/rbdock.cxx#4 $)

>  <Rbt.Library>
libRbt.so (2013.1, Build901 2013/11/27)

>  <Rbt.Parameter_File>
/export/apps/rDock/src/rDock_2013.1_src/data/scripts/dock_solv.prm

>  <Rbt.Receptor>
prm/blind_docking_60.prm

>  <SCORE>
-23.8223

>  <SCORE.INTER>
-23.8223

>  <SCORE.INTER.CONST>
1

>  <SCORE.INTER.POLAR>
0

>  <SCORE.INTER.ROT>
0

>  <SCORE.INTER.SOLV>
3.52321

>  <SCORE.INTER.VDW>
-20.6559

>  <SCORE.INTER.norm>
-2.38223

>  <SCORE.INTRA>
0

>  <SCORE.INTRA.DIHEDRAL>
0

>  <SCORE.INTRA.DIHEDRAL.0>
0

>  <SCORE.INTRA.POLAR>
0

>  <SCORE.INTRA.POLAR.0>
0

>  <SCORE.INTRA.REPUL>
0

>  <SCORE.INTRA.REPUL.0>
0

>  <SCORE.INTRA.SOLV>
0

>  <SCORE.INTRA.SOLV.lig_0>
-4.1818

>  <SCORE.INTRA.VDW>
0

>  <SCORE.INTRA.VDW.0>
0

>  <SCORE.INTRA.norm>
0

>  <SCORE.RESTR>
0

>  <SCORE.RESTR.CAVITY>
0

>  <SCORE.RESTR.norm>
0

>  <SCORE.SYSTEM>
0

>  <SCORE.SYSTEM.CONST>
0

>  <SCORE.SYSTEM.DIHEDRAL>
0

>  <SCORE.SYSTEM.SOLV>
0

>  <SCORE.SYSTEM.norm>
0

>  <SCORE.heavy>
10

>  <SCORE.norm>
-2.38223

>  <RMSD>
3.174

$$$$
ligand
 OpenBabel11021811503D
libRbt.so/2013.1/901 2013/11/27
 10 11  0  0  0  0  0  0  0  0999 V2000
   17.5931   -0.6708    2.8336 N   0  0  0  0  0  0  0  0  0  0  0  0
   16.5027   -0.8559    3.5541 C   0  0  0  0  0  0  0  0  0  0  0  0
   16.1644   -2.1506    3.9616 N   0  0  0  0  0  0  0  0  0  0  0  0
   16.9373   -3.1861    3.6060 C   0  0  0  0  0  0  0  0  0  0  0  0
   18.0323   -2.9939    2.8743 C   0  0  0  0  0  0  0  0  0  0  0  0
   18.3870   -1.7702    2.4895 C   0  0  0  0  0  0  0  0  0  0  0  0
   19.4142   -1.5912    1.8372 O   0  0  0  0  0  0  0  0  0  0  0  0
   18.5575   -4.1867    2.6084 N   0  0  0  0  0  0  0  0  0  0  0  0
   17.7944   -5.1145    3.1775 C   0  0  0  0  0  0  0  0  0  0  0  0
   16.7971   -4.4933    3.8007 N   0  0  0  0  0  0  0  0  0  0  0  0
  1  2  1  0  0  0  0
  1  6  1  0  0  0  0
  2  3  2  0  0  0  0
  3  4  1  0  0  0  0
  4  5  2  0  0  0  0
  4 10  1  0  0  0  0
  5  6  1  0  0  0  0
  5  8  1  0  0  0  0
  6  7  2  0  0  0  0
  8  9  1  0  0  0  0
  9 10  2  0  0  0  0
M  END
>  <CHROM.1>
17.65169305,-2.67832972,3.05062952,1.44132139,0.56464801,-0.10690483

>  <Name>
ligand

>  <RI>
0

>  <Rbt.Current_Directory>
/home/itssahil/PROJECTS/Mol_Feturizer/New_Systems/rnas/4NYD

>  <Rbt.Executable>
rbdock ($Id: //depot/dev/client3/rdock/2013.1/src/exe/rbdock.cxx#4 $)

>  <Rbt.Library>
libRbt.so (2013.1, Build901 2013/11/27)

>  <Rbt.Parameter_File>
/export/apps/rDock/src/rDock_2013.1_src/data/scripts/dock_solv.prm

>  <Rbt.Receptor>
prm/pocket_docking_6.prm

>  <SCORE>
-23.8299

>  <SCORE.INTER>
-23.8299

>  <SCORE.INTER.CONST>
1

>  <SCORE.INTER.POLAR>
0

>  <SCORE.INTER.ROT>
0

>  <SCORE.INTER.SOLV>
3.51465

>  <SCORE.INTER.VDW>
-20.6581

>  <SCORE.INTER.norm>
-2.38299

>  <SCORE.INTRA>
0

>  <SCORE.INTRA.DIHEDRAL>
0

>  <SCORE.INTRA.DIHEDRAL.0>
0

>  <SCORE.INTRA.POLAR>
0

>  <SCORE.INTRA.POLAR.0>
0

>  <SCORE.INTRA.REPUL>
0

>  <SCORE.INTRA.REPUL.0>
0

>  <SCORE.INTRA.SOLV>
0

>  <SCORE.INTRA.SOLV.lig_0>
-4.1818

>  <SCORE.INTRA.VDW>
0

>  <SCORE.INTRA.VDW.0>
0

>  <SCORE.INTRA.norm>
0

>  <SCORE.RESTR>
0

>  <SCORE.RESTR.CAVITY>
0

>  <SCORE.RESTR.norm>
0

>  <SCORE.SYSTEM>
0

>  <SCORE.SYSTEM.CONST>
0

>  <SCORE.SYSTEM.DIHEDRAL>
0

>  <SCORE.SYSTEM.SOLV>
0

>  <SCORE.SYSTEM.norm>
0

>  <SCORE.heavy>
10

>  <SCORE.norm>
-2.38299

>  <RMSD>
3.174

$$$$
ligand
 OpenBabel11021811503D
libRbt.so/2013.1/901 2013/11/27
 10 11  0  0  0  0  0  0  0  0999 V2000
   17.5892   -0.6666    2.8274 N   0  0  0  0  0  0  0  0  0  0  0  0
   16.5004   -0.8529    3.5499 C   0  0  0  0  0  0  0  0  0  0  0  0
   16.1634   -2.1482    3.9569 N   0  0  0  0  0  0  0  0  0  0  0  0
   16.9360   -3.1830    3.5986 C   0  0  0  0  0  0  0  0  0  0  0  0
   18.0294   -2.9896    2.8648 C   0  0  0  0  0  0  0  0  0  0  0  0
   18.3829   -1.7653    2.4806 C   0  0  0  0  0  0  0  0  0  0  0  0
   19.4086   -1.5853    1.8263 O   0  0  0  0  0  0  0  0  0  0  0  0
   18.5546   -4.1819    2.5966 N   0  0  0  0  0  0  0  0  0  0  0  0
   17.7930   -5.1106    3.1664 C   0  0  0  0  0  0  0  0  0  0  0  0
   16.7967   -4.4904    3.7922 N   0  0  0  0  0  0  0  0  0  0  0  0
  1  2  1  0  0  0  0
  1  6  1  0  0  0  0
  2  3  2  0  0  0  0
  3  4  1  0  0  0  0
  4  5  2  0  0  0  0
  4 10  1  0  0  0  0
  5  6  1  0  0  0  0
  5  8  1  0  0  0  0
  6  7  2  0  0  0  0
  8  9  1  0  0  0  0
  9 10  2  0  0  0  0
M  END
>  <CHROM.1>
17.64906619,-2.67431787,3.04227681,1.44204875,0.56666940,-0.10627940

>  <Name>
ligand

>  <RI>
0

>  <Rbt.Current_Directory>
/home/itssahil/PROJECTS/Mol_Feturizer/New_Systems/rnas/4NYD

>  <Rbt.Executable>
rbdock ($Id: //depot/dev/client3/rdock/2013.1/src/exe/rbdock.cxx#4 $)

>  <Rbt.Library>
libRbt.so (2013.1, Build901 2013/11/27)

>  <Rbt.Parameter_File>
/export/apps/rDock/src/rDock_2013.1_src/data/scripts/dock_solv.prm

>  <Rbt.Receptor>
prm/pocket_docking_6.prm

>  <SCORE>
-23.8279

>  <SCORE.INTER>
-23.8279

>  <SCORE.INTER.CONST>
1

>  <SCORE.INTER.POLAR>
0

>  <SCORE.INTER.ROT>
0

>  <SCORE.INTER.SOLV>
3.50882

>  <SCORE.INTER.VDW>
-20.6549

>  <SCORE.INTER.norm>
-2.38279

>  <SCORE.INTRA>
0

>  <SCORE.INTRA.DIHEDRAL>
0

>  <SCORE.INTRA.DIHEDRAL.0>
0

>  <SCORE.INTRA.POLAR>
0

>  <SCORE.INTRA.POLAR.0>
0

>  <SCORE.INTRA.REPUL>
0

>  <SCORE.INTRA.REPUL.0>
0

>  <SCORE.INTRA.SOLV>
0

>  <SCORE.INTRA.SOLV.lig_0>
-4.1818

>  <SCORE.INTRA.VDW>
0

>  <SCORE.INTRA.VDW.0>
0

>  <SCORE.INTRA.norm>
0

>  <SCORE.RESTR>
0

>  <SCORE.RESTR.CAVITY>
0

>  <SCORE.RESTR.norm>
0

>  <SCORE.SYSTEM>
0

>  <SCORE.SYSTEM.CONST>
0

>  <SCORE.SYSTEM.DIHEDRAL>
0

>  <SCORE.SYSTEM.SOLV>
0

>  <SCORE.SYSTEM.norm>
0

>  <SCORE.heavy>
10

>  <SCORE.norm>
-2.38279

>  <RMSD>
3.174

$$$$
ligand
 OpenBabel11021811503D
libRbt.so/2013.1/901 2013/11/27
 10 11  0  0  0  0  0  0  0  0999 V2000
   17.5881   -0.6703    2.8235 N   0  0  0  0  0  0  0  0  0  0  0  0
   16.5013   -0.8512    3.5505 C   0  0  0  0  0  0  0  0  0  0  0  0
   16.1671   -2.1431    3.9705 N   0  0  0  0  0  0  0  0  0  0  0  0
   16.9402   -3.1802    3.6198 C   0  0  0  0  0  0  0  0  0  0  0  0
   18.0315   -2.9922    2.8815 C   0  0  0  0  0  0  0  0  0  0  0  0
   18.3823   -1.7711    2.4850 C   0  0  0  0  0  0  0  0  0  0  0  0
   19.4062   -1.5959    1.8264 O   0  0  0  0  0  0  0  0  0  0  0  0
   18.5576   -4.1863    2.6232 N   0  0  0  0  0  0  0  0  0  0  0  0
   17.7987   -5.1106    3.2035 C   0  0  0  0  0  0  0  0  0  0  0  0
   16.8032   -4.4859    3.8261 N   0  0  0  0  0  0  0  0  0  0  0  0
  1  2  1  0  0  0  0
  1  6  1  0  0  0  0
  2  3  2  0  0  0  0
  3  4  1  0  0  0  0
  4  5  2  0  0  0  0
  4 10  1  0  0  0  0
  5  6  1  0  0  0  0
  5  8  1  0  0  0  0
  6  7  2  0  0  0  0
  8  9  1  0  0  0  0
  9 10  2  0  0  0  0
M  END
>  <CHROM.1>
17.65116816,-2.67580049,3.05701042,1.44396656,0.56904802,-0.11666308

>  <Name>
ligand

>  <RI>
0

>  <Rbt.Current_Directory>
/home/itssahil/PROJECTS/Mol_Feturizer/New_Systems/rnas/4NYD

>  <Rbt.Executable>
rbdock ($Id: //depot/dev/client3/rdock/2013.1/src/exe/rbdock.cxx#4 $)

>  <Rbt.Library>
libRbt.so (2013.1, Build901 2013/11/27)

>  <Rbt.Parameter_File>
/export/apps/rDock/src/rDock_2013.1_src/data/scripts/dock_solv.prm

>  <Rbt.Receptor>
prm/blind_docking_40.prm

>  <SCORE>
-23.839

>  <SCORE.INTER>
-23.839

>  <SCORE.INTER.CONST>
1

>  <SCORE.INTER.POLAR>
0

>  <SCORE.INTER.ROT>
0

>  <SCORE.INTER.SOLV>
3.51218

>  <SCORE.INTER.VDW>
-20.6634

>  <SCORE.INTER.norm>
-2.3839

>  <SCORE.INTRA>
0

>  <SCORE.INTRA.DIHEDRAL>
0

>  <SCORE.INTRA.DIHEDRAL.0>
0

>  <SCORE.INTRA.POLAR>
0

>  <SCORE.INTRA.POLAR.0>
0

>  <SCORE.INTRA.REPUL>
0

>  <SCORE.INTRA.REPUL.0>
0

>  <SCORE.INTRA.SOLV>
0

>  <SCORE.INTRA.SOLV.lig_0>
-4.1818

>  <SCORE.INTRA.VDW>
0

>  <SCORE.INTRA.VDW.0>
0

>  <SCORE.INTRA.norm>
0

>  <SCORE.RESTR>
0

>  <SCORE.RESTR.CAVITY>
0

>  <SCORE.RESTR.norm>
0

>  <SCORE.SYSTEM>
0

>  <SCORE.SYSTEM.CONST>
0

>  <SCORE.SYSTEM.DIHEDRAL>
0

>  <SCORE.SYSTEM.SOLV>
0

>  <SCORE.SYSTEM.norm>
0

>  <SCORE.heavy>
10

>  <SCORE.norm>
-2.3839

>  <RMSD>
3.175

$$$$
ligand
 OpenBabel11021811503D
libRbt.so/2013.1/901 2013/11/27
 10 11  0  0  0  0  0  0  0  0999 V2000
   17.5847   -0.6739    2.8208 N   0  0  0  0  0  0  0  0  0  0  0  0
   16.4916   -0.8570    3.5377 C   0  0  0  0  0  0  0  0  0  0  0  0
   16.1553   -2.1496    3.9534 N   0  0  0  0  0  0  0  0  0  0  0  0
   16.9329   -3.1854    3.6088 C   0  0  0  0  0  0  0  0  0  0  0  0
   18.0306   -2.9954    2.8807 C   0  0  0  0  0  0  0  0  0  0  0  0
   18.3834   -1.7735    2.4884 C   0  0  0  0  0  0  0  0  0  0  0  0
   19.4130   -1.5963    1.8394 O   0  0  0  0  0  0  0  0  0  0  0  0
   18.5605   -4.1885    2.6260 N   0  0  0  0  0  0  0  0  0  0  0  0
   17.7976   -5.1144    3.1985 C   0  0  0  0  0  0  0  0  0  0  0  0
   16.7956   -4.4915    3.8126 N   0  0  0  0  0  0  0  0  0  0  0  0
  1  2  1  0  0  0  0
  1  6  1  0  0  0  0
  2  3  2  0  0  0  0
  3  4  1  0  0  0  0
  4  5  2  0  0  0  0
  4 10  1  0  0  0  0
  5  6  1  0  0  0  0
  5  8  1  0  0  0  0
  6  7  2  0  0  0  0
  8  9  1  0  0  0  0
  9 10  2  0  0  0  0
M  END
>  <CHROM.1>
17.64824230,-2.67962050,3.05295979,1.44422012,0.55986744,-0.11587039

>  <Name>
ligand

>  <RI>
0

>  <Rbt.Current_Directory>
/home/itssahil/PROJECTS/Mol_Feturizer/New_Systems/rnas/4NYD

>  <Rbt.Executable>
rbdock ($Id: //depot/dev/client3/rdock/2013.1/src/exe/rbdock.cxx#4 $)

>  <Rbt.Library>
libRbt.so (2013.1, Build901 2013/11/27)

>  <Rbt.Parameter_File>
/export/apps/rDock/src/rDock_2013.1_src/data/scripts/dock_solv.prm

>  <Rbt.Receptor>
prm/pocket_docking_3.prm

>  <SCORE>
-23.8208

>  <SCORE.INTER>
-23.8208

>  <SCORE.INTER.CONST>
1

>  <SCORE.INTER.POLAR>
0

>  <SCORE.INTER.ROT>
0

>  <SCORE.INTER.SOLV>
3.50566

>  <SCORE.INTER.VDW>
-20.6491

>  <SCORE.INTER.norm>
-2.38208

>  <SCORE.INTRA>
0

>  <SCORE.INTRA.DIHEDRAL>
0

>  <SCORE.INTRA.DIHEDRAL.0>
0

>  <SCORE.INTRA.POLAR>
0

>  <SCORE.INTRA.POLAR.0>
0

>  <SCORE.INTRA.REPUL>
0

>  <SCORE.INTRA.REPUL.0>
0

>  <SCORE.INTRA.SOLV>
0

>  <SCORE.INTRA.SOLV.lig_0>
-4.1818

>  <SCORE.INTRA.VDW>
0

>  <SCORE.INTRA.VDW.0>
0

>  <SCORE.INTRA.norm>
0

>  <SCORE.RESTR>
0

>  <SCORE.RESTR.CAVITY>
0

>  <SCORE.RESTR.norm>
0

>  <SCORE.SYSTEM>
0

>  <SCORE.SYSTEM.CONST>
0

>  <SCORE.SYSTEM.DIHEDRAL>
0

>  <SCORE.SYSTEM.SOLV>
0

>  <SCORE.SYSTEM.norm>
0

>  <SCORE.heavy>
10

>  <SCORE.norm>
-2.38208

>  <RMSD>
3.175

$$$$
ligand
 OpenBabel11021811503D
libRbt.so/2013.1/901 2013/11/27
 10 11  0  0  0  0  0  0  0  0999 V2000
   17.5507   -0.6827    2.8555 N   0  0  0  0  0  0  0  0  0  0  0  0
   16.4595   -0.9014    3.5651 C   0  0  0  0  0  0  0  0  0  0  0  0
   16.1504   -2.2078    3.9585 N   0  0  0  0  0  0  0  0  0  0  0  0
   16.9518   -3.2204    3.6001 C   0  0  0  0  0  0  0  0  0  0  0  0
   18.0475   -2.9944    2.8793 C   0  0  0  0  0  0  0  0  0  0  0  0
   18.3747   -1.7588    2.5083 C   0  0  0  0  0  0  0  0  0  0  0  0
   19.4023   -1.5484    1.8661 O   0  0  0  0  0  0  0  0  0  0  0  0
   18.6046   -4.1713    2.6073 N   0  0  0  0  0  0  0  0  0  0  0  0
   17.8603   -5.1229    3.1619 C   0  0  0  0  0  0  0  0  0  0  0  0
   16.8427   -4.5324    3.7822 N   0  0  0  0  0  0  0  0  0  0  0  0
  1  2  1  0  0  0  0
  1  6  1  0  0  0  0
  2  3  2  0  0  0  0
  3  4  1  0  0  0  0
  4  5  2  0  0  0  0
  4 10  1  0  0  0  0
  5  6  1  0  0  0  0
  5  8  1  0  0  0  0
  6  7  2  0  0  0  0
  8  9  1  0  0  0  0
  9 10  2  0  0  0  0
M  END
>  <CHROM.1>
17.65774218,-2.69002138,3.05526766,1.46953766,0.55375778,-0.11296789

>  <Name>
ligand

>  <RI>
0

>  <Rbt.Current_Directory>
/home/itssahil/PROJECTS/Mol_Feturizer/New_Systems/rnas/4NYD

>  <Rbt.Executable>
rbdock ($Id: //depot/dev/client3/rdock/2013.1/src/exe/rbdock.cxx#4 $)

>  <Rbt.Library>
libRbt.so (2013.1, Build901 2013/11/27)

>  <Rbt.Parameter_File>
/export/apps/rDock/src/rDock_2013.1_src/data/scripts/dock_solv.prm

>  <Rbt.Receptor>
prm/pocket_docking_5.prm

>  <SCORE>
-23.7658

>  <SCORE.INTER>
-23.7658

>  <SCORE.INTER.CONST>
1

>  <SCORE.INTER.POLAR>
0

>  <SCORE.INTER.ROT>
0

>  <SCORE.INTER.SOLV>
3.50856

>  <SCORE.INTER.VDW>
-20.6134

>  <SCORE.INTER.norm>
-2.37658

>  <SCORE.INTRA>
0

>  <SCORE.INTRA.DIHEDRAL>
0

>  <SCORE.INTRA.DIHEDRAL.0>
0

>  <SCORE.INTRA.POLAR>
0

>  <SCORE.INTRA.POLAR.0>
0

>  <SCORE.INTRA.REPUL>
0

>  <SCORE.INTRA.REPUL.0>
0

>  <SCORE.INTRA.SOLV>
0

>  <SCORE.INTRA.SOLV.lig_0>
-4.1818

>  <SCORE.INTRA.VDW>
0

>  <SCORE.INTRA.VDW.0>
0

>  <SCORE.INTRA.norm>
0

>  <SCORE.RESTR>
0

>  <SCORE.RESTR.CAVITY>
0

>  <SCORE.RESTR.norm>
0

>  <SCORE.SYSTEM>
0

>  <SCORE.SYSTEM.CONST>
0

>  <SCORE.SYSTEM.DIHEDRAL>
0

>  <SCORE.SYSTEM.SOLV>
0

>  <SCORE.SYSTEM.norm>
0

>  <SCORE.heavy>
10

>  <SCORE.norm>
-2.37658

>  <RMSD>
3.175

$$$$
ligand
 OpenBabel11021811503D
libRbt.so/2013.1/901 2013/11/27
 10 11  0  0  0  0  0  0  0  0999 V2000
   17.5880   -0.6694    2.8230 N   0  0  0  0  0  0  0  0  0  0  0  0
   16.5012   -0.8518    3.5495 C   0  0  0  0  0  0  0  0  0  0  0  0
   16.1667   -2.1445    3.9665 N   0  0  0  0  0  0  0  0  0  0  0  0
   16.9396   -3.1810    3.6136 C   0  0  0  0  0  0  0  0  0  0  0  0
   18.0310   -2.9916    2.8757 C   0  0  0  0  0  0  0  0  0  0  0  0
   18.3821   -1.7697    2.4819 C   0  0  0  0  0  0  0  0  0  0  0  0
   19.4059   -1.5932    1.8238 O   0  0  0  0  0  0  0  0  0  0  0  0
   18.5568   -4.1852    2.6147 N   0  0  0  0  0  0  0  0  0  0  0  0
   17.7977   -5.1106    3.1929 C   0  0  0  0  0  0  0  0  0  0  0  0
   16.8023   -4.4871    3.8169 N   0  0  0  0  0  0  0  0  0  0  0  0
  1  2  1  0  0  0  0
  1  6  1  0  0  0  0
  2  3  2  0  0  0  0
  3  4  1  0  0  0  0
  4  5  2  0  0  0  0
  4 10  1  0  0  0  0
  5  6  1  0  0  0  0
  5  8  1  0  0  0  0
  6  7  2  0  0  0  0
  8  9  1  0  0  0  0
  9 10  2  0  0  0  0
M  END
>  <CHROM.1>
17.65066960,-2.67548590,3.05191454,1.44370649,0.56902518,-0.11426745

>  <Name>
ligand

>  <RI>
0

>  <Rbt.Current_Directory>
/home/itssahil/PROJECTS/Mol_Feturizer/New_Systems/rnas/4NYD

>  <Rbt.Executable>
rbdock ($Id: //depot/dev/client3/rdock/2013.1/src/exe/rbdock.cxx#4 $)

>  <Rbt.Library>
libRbt.so (2013.1, Build901 2013/11/27)

>  <Rbt.Parameter_File>
/export/apps/rDock/src/rDock_2013.1_src/data/scripts/dock_solv.prm

>  <Rbt.Receptor>
prm/pocket_docking_6.prm

>  <SCORE>
-23.8391

>  <SCORE.INTER>
-23.8391

>  <SCORE.INTER.CONST>
1

>  <SCORE.INTER.POLAR>
0

>  <SCORE.INTER.ROT>
0

>  <SCORE.INTER.SOLV>
3.51019

>  <SCORE.INTER.VDW>
-20.6628

>  <SCORE.INTER.norm>
-2.38391

>  <SCORE.INTRA>
0

>  <SCORE.INTRA.DIHEDRAL>
0

>  <SCORE.INTRA.DIHEDRAL.0>
0

>  <SCORE.INTRA.POLAR>
0

>  <SCORE.INTRA.POLAR.0>
0

>  <SCORE.INTRA.REPUL>
0

>  <SCORE.INTRA.REPUL.0>
0

>  <SCORE.INTRA.SOLV>
0

>  <SCORE.INTRA.SOLV.lig_0>
-4.1818

>  <SCORE.INTRA.VDW>
0

>  <SCORE.INTRA.VDW.0>
0

>  <SCORE.INTRA.norm>
0

>  <SCORE.RESTR>
0

>  <SCORE.RESTR.CAVITY>
0

>  <SCORE.RESTR.norm>
0

>  <SCORE.SYSTEM>
0

>  <SCORE.SYSTEM.CONST>
0

>  <SCORE.SYSTEM.DIHEDRAL>
0

>  <SCORE.SYSTEM.SOLV>
0

>  <SCORE.SYSTEM.norm>
0

>  <SCORE.heavy>
10

>  <SCORE.norm>
-2.38391

>  <RMSD>
3.175

$$$$
ligand
 OpenBabel11021811503D
libRbt.so/2013.1/901 2013/11/27
 10 11  0  0  0  0  0  0  0  0999 V2000
   17.5764   -0.6735    2.8052 N   0  0  0  0  0  0  0  0  0  0  0  0
   16.4922   -0.8549    3.5359 C   0  0  0  0  0  0  0  0  0  0  0  0
   16.1606   -2.1467    3.9580 N   0  0  0  0  0  0  0  0  0  0  0  0
   16.9336   -3.1834    3.6058 C   0  0  0  0  0  0  0  0  0  0  0  0
   18.0223   -2.9950    2.8638 C   0  0  0  0  0  0  0  0  0  0  0  0
   18.3706   -1.7739    2.4650 C   0  0  0  0  0  0  0  0  0  0  0  0
   19.3922   -1.5982    1.8030 O   0  0  0  0  0  0  0  0  0  0  0  0
   18.5487   -4.1887    2.6048 N   0  0  0  0  0  0  0  0  0  0  0  0
   17.7926   -5.1133    3.1883 C   0  0  0  0  0  0  0  0  0  0  0  0
   16.7984   -4.4891    3.8136 N   0  0  0  0  0  0  0  0  0  0  0  0
  1  2  1  0  0  0  0
  1  6  1  0  0  0  0
  2  3  2  0  0  0  0
  3  4  1  0  0  0  0
  4  5  2  0  0  0  0
  4 10  1  0  0  0  0
  5  6  1  0  0  0  0
  5  8  1  0  0  0  0
  6  7  2  0  0  0  0
  8  9  1  0  0  0  0
  9 10  2  0  0  0  0
M  END
>  <CHROM.1>
17.64220145,-2.67878807,3.04021379,1.44555378,0.57214260,-0.11837309

>  <Name>
ligand

>  <RI>
0

>  <Rbt.Current_Directory>
/home/itssahil/PROJECTS/Mol_Feturizer/New_Systems/rnas/4NYD

>  <Rbt.Executable>
rbdock ($Id: //depot/dev/client3/rdock/2013.1/src/exe/rbdock.cxx#4 $)

>  <Rbt.Library>
libRbt.so (2013.1, Build901 2013/11/27)

>  <Rbt.Parameter_File>
/export/apps/rDock/src/rDock_2013.1_src/data/scripts/dock_solv.prm

>  <Rbt.Receptor>
prm/blind_docking_80.prm

>  <SCORE>
-23.8218

>  <SCORE.INTER>
-23.8218

>  <SCORE.INTER.CONST>
1

>  <SCORE.INTER.POLAR>
0

>  <SCORE.INTER.ROT>
0

>  <SCORE.INTER.SOLV>
3.49842

>  <SCORE.INTER.VDW>
-20.6474

>  <SCORE.INTER.norm>
-2.38218

>  <SCORE.INTRA>
0

>  <SCORE.INTRA.DIHEDRAL>
0

>  <SCORE.INTRA.DIHEDRAL.0>
0

>  <SCORE.INTRA.POLAR>
0

>  <SCORE.INTRA.POLAR.0>
0

>  <SCORE.INTRA.REPUL>
0

>  <SCORE.INTRA.REPUL.0>
0

>  <SCORE.INTRA.SOLV>
0

>  <SCORE.INTRA.SOLV.lig_0>
-4.1818

>  <SCORE.INTRA.VDW>
0

>  <SCORE.INTRA.VDW.0>
0

>  <SCORE.INTRA.norm>
0

>  <SCORE.RESTR>
0

>  <SCORE.RESTR.CAVITY>
0

>  <SCORE.RESTR.norm>
0

>  <SCORE.SYSTEM>
0

>  <SCORE.SYSTEM.CONST>
0

>  <SCORE.SYSTEM.DIHEDRAL>
0

>  <SCORE.SYSTEM.SOLV>
0

>  <SCORE.SYSTEM.norm>
0

>  <SCORE.heavy>
10

>  <SCORE.norm>
-2.38218

>  <RMSD>
3.176

$$$$
ligand
 OpenBabel11021811503D
libRbt.so/2013.1/901 2013/11/27
 10 11  0  0  0  0  0  0  0  0999 V2000
   17.5851   -0.6701    2.8165 N   0  0  0  0  0  0  0  0  0  0  0  0
   16.4975   -0.8494    3.5426 C   0  0  0  0  0  0  0  0  0  0  0  0
   16.1639   -2.1401    3.9666 N   0  0  0  0  0  0  0  0  0  0  0  0
   16.9382   -3.1778    3.6205 C   0  0  0  0  0  0  0  0  0  0  0  0
   18.0303   -2.9914    2.8830 C   0  0  0  0  0  0  0  0  0  0  0  0
   18.3807   -1.7715    2.4827 C   0  0  0  0  0  0  0  0  0  0  0  0
   19.4053   -1.5976    1.8249 O   0  0  0  0  0  0  0  0  0  0  0  0
   18.5577   -4.1860    2.6295 N   0  0  0  0  0  0  0  0  0  0  0  0
   17.7988   -5.1089    3.2119 C   0  0  0  0  0  0  0  0  0  0  0  0
   16.8019   -4.4829    3.8311 N   0  0  0  0  0  0  0  0  0  0  0  0
  1  2  1  0  0  0  0
  1  6  1  0  0  0  0
  2  3  2  0  0  0  0
  3  4  1  0  0  0  0
  4  5  2  0  0  0  0
  4 10  1  0  0  0  0
  5  6  1  0  0  0  0
  5  8  1  0  0  0  0
  6  7  2  0  0  0  0
  8  9  1  0  0  0  0
  9 10  2  0  0  0  0
M  END
>  <CHROM.1>
17.64950553,-2.67475660,3.05690324,1.44472142,0.56764445,-0.12050331

>  <Name>
ligand

>  <RI>
0

>  <Rbt.Current_Directory>
/home/itssahil/PROJECTS/Mol_Feturizer/New_Systems/rnas/4NYD

>  <Rbt.Executable>
rbdock ($Id: //depot/dev/client3/rdock/2013.1/src/exe/rbdock.cxx#4 $)

>  <Rbt.Library>
libRbt.so (2013.1, Build901 2013/11/27)

>  <Rbt.Parameter_File>
/export/apps/rDock/src/rDock_2013.1_src/data/scripts/dock_solv.prm

>  <Rbt.Receptor>
prm/pocket_docking_3.prm

>  <SCORE>
-23.8351

>  <SCORE.INTER>
-23.8351

>  <SCORE.INTER.CONST>
1

>  <SCORE.INTER.POLAR>
0

>  <SCORE.INTER.ROT>
0

>  <SCORE.INTER.SOLV>
3.50792

>  <SCORE.INTER.VDW>
-20.6593

>  <SCORE.INTER.norm>
-2.38351

>  <SCORE.INTRA>
0

>  <SCORE.INTRA.DIHEDRAL>
0

>  <SCORE.INTRA.DIHEDRAL.0>
0

>  <SCORE.INTRA.POLAR>
0

>  <SCORE.INTRA.POLAR.0>
0

>  <SCORE.INTRA.REPUL>
0

>  <SCORE.INTRA.REPUL.0>
0

>  <SCORE.INTRA.SOLV>
0

>  <SCORE.INTRA.SOLV.lig_0>
-4.1818

>  <SCORE.INTRA.VDW>
0

>  <SCORE.INTRA.VDW.0>
0

>  <SCORE.INTRA.norm>
0

>  <SCORE.RESTR>
0

>  <SCORE.RESTR.CAVITY>
0

>  <SCORE.RESTR.norm>
0

>  <SCORE.SYSTEM>
0

>  <SCORE.SYSTEM.CONST>
0

>  <SCORE.SYSTEM.DIHEDRAL>
0

>  <SCORE.SYSTEM.SOLV>
0

>  <SCORE.SYSTEM.norm>
0

>  <SCORE.heavy>
10

>  <SCORE.norm>
-2.38351

>  <RMSD>
3.176

$$$$
ligand
 OpenBabel11021811503D
libRbt.so/2013.1/901 2013/11/27
 10 11  0  0  0  0  0  0  0  0999 V2000
   17.5820   -0.6688    2.8161 N   0  0  0  0  0  0  0  0  0  0  0  0
   16.5028   -0.8530    3.5536 C   0  0  0  0  0  0  0  0  0  0  0  0
   16.1723   -2.1469    3.9701 N   0  0  0  0  0  0  0  0  0  0  0  0
   16.9409   -3.1825    3.6058 C   0  0  0  0  0  0  0  0  0  0  0  0
   18.0245   -2.9913    2.8571 C   0  0  0  0  0  0  0  0  0  0  0  0
   18.3719   -1.7683    2.4633 C   0  0  0  0  0  0  0  0  0  0  0  0
   19.3889   -1.5902    1.7950 O   0  0  0  0  0  0  0  0  0  0  0  0
   18.5470   -4.1843    2.5868 N   0  0  0  0  0  0  0  0  0  0  0  0
   17.7937   -5.1112    3.1702 C   0  0  0  0  0  0  0  0  0  0  0  0
   16.8052   -4.4893    3.8066 N   0  0  0  0  0  0  0  0  0  0  0  0
  1  2  1  0  0  0  0
  1  6  1  0  0  0  0
  2  3  2  0  0  0  0
  3  4  1  0  0  0  0
  4  5  2  0  0  0  0
  4 10  1  0  0  0  0
  5  6  1  0  0  0  0
  5  8  1  0  0  0  0
  6  7  2  0  0  0  0
  8  9  1  0  0  0  0
  9 10  2  0  0  0  0
M  END
>  <CHROM.1>
17.64622174,-2.67560741,3.03823514,1.44464189,0.57959287,-0.11170074

>  <Name>
ligand

>  <RI>
0

>  <Rbt.Current_Directory>
/home/itssahil/PROJECTS/Mol_Feturizer/New_Systems/rnas/4NYD

>  <Rbt.Executable>
rbdock ($Id: //depot/dev/client3/rdock/2013.1/src/exe/rbdock.cxx#4 $)

>  <Rbt.Library>
libRbt.so (2013.1, Build901 2013/11/27)

>  <Rbt.Parameter_File>
/export/apps/rDock/src/rDock_2013.1_src/data/scripts/dock_solv.prm

>  <Rbt.Receptor>
prm/pocket_docking_3.prm

>  <SCORE>
-23.8365

>  <SCORE.INTER>
-23.8365

>  <SCORE.INTER.CONST>
1

>  <SCORE.INTER.POLAR>
0

>  <SCORE.INTER.ROT>
0

>  <SCORE.INTER.SOLV>
3.50624

>  <SCORE.INTER.VDW>
-20.6597

>  <SCORE.INTER.norm>
-2.38365

>  <SCORE.INTRA>
0

>  <SCORE.INTRA.DIHEDRAL>
0

>  <SCORE.INTRA.DIHEDRAL.0>
0

>  <SCORE.INTRA.POLAR>
0

>  <SCORE.INTRA.POLAR.0>
0

>  <SCORE.INTRA.REPUL>
0

>  <SCORE.INTRA.REPUL.0>
0

>  <SCORE.INTRA.SOLV>
0

>  <SCORE.INTRA.SOLV.lig_0>
-4.1818

>  <SCORE.INTRA.VDW>
0

>  <SCORE.INTRA.VDW.0>
0

>  <SCORE.INTRA.norm>
0

>  <SCORE.RESTR>
0

>  <SCORE.RESTR.CAVITY>
0

>  <SCORE.RESTR.norm>
0

>  <SCORE.SYSTEM>
0

>  <SCORE.SYSTEM.CONST>
0

>  <SCORE.SYSTEM.DIHEDRAL>
0

>  <SCORE.SYSTEM.SOLV>
0

>  <SCORE.SYSTEM.norm>
0

>  <SCORE.heavy>
10

>  <SCORE.norm>
-2.38365

>  <RMSD>
3.176

$$$$
ligand
 OpenBabel11021811503D
libRbt.so/2013.1/901 2013/11/27
 10 11  0  0  0  0  0  0  0  0999 V2000
   17.5792   -0.6741    2.8110 N   0  0  0  0  0  0  0  0  0  0  0  0
   16.4991   -0.8559    3.5477 C   0  0  0  0  0  0  0  0  0  0  0  0
   16.1698   -2.1479    3.9707 N   0  0  0  0  0  0  0  0  0  0  0  0
   16.9405   -3.1844    3.6134 C   0  0  0  0  0  0  0  0  0  0  0  0
   18.0251   -2.9957    2.8654 C   0  0  0  0  0  0  0  0  0  0  0  0
   18.3714   -1.7744    2.4655 C   0  0  0  0  0  0  0  0  0  0  0  0
   19.3892   -1.5984    1.7979 O   0  0  0  0  0  0  0  0  0  0  0  0
   18.5498   -4.1894    2.6025 N   0  0  0  0  0  0  0  0  0  0  0  0
   17.7969   -5.1142    3.1897 C   0  0  0  0  0  0  0  0  0  0  0  0
   16.8064   -4.4903    3.8210 N   0  0  0  0  0  0  0  0  0  0  0  0
  1  2  1  0  0  0  0
  1  6  1  0  0  0  0
  2  3  2  0  0  0  0
  3  4  1  0  0  0  0
  4  5  2  0  0  0  0
  4 10  1  0  0  0  0
  5  6  1  0  0  0  0
  5  8  1  0  0  0  0
  6  7  2  0  0  0  0
  8  9  1  0  0  0  0
  9 10  2  0  0  0  0
M  END
>  <CHROM.1>
17.64604648,-2.67956621,3.04417159,1.44616102,0.57776970,-0.11798928

>  <Name>
ligand

>  <RI>
0

>  <Rbt.Current_Directory>
/home/itssahil/PROJECTS/Mol_Feturizer/New_Systems/rnas/4NYD

>  <Rbt.Executable>
rbdock ($Id: //depot/dev/client3/rdock/2013.1/src/exe/rbdock.cxx#4 $)

>  <Rbt.Library>
libRbt.so (2013.1, Build901 2013/11/27)

>  <Rbt.Parameter_File>
/export/apps/rDock/src/rDock_2013.1_src/data/scripts/dock_solv.prm

>  <Rbt.Receptor>
prm/pocket_docking_6.prm

>  <SCORE>
-23.8354

>  <SCORE.INTER>
-23.8354

>  <SCORE.INTER.CONST>
1

>  <SCORE.INTER.POLAR>
0

>  <SCORE.INTER.ROT>
0

>  <SCORE.INTER.SOLV>
3.50464

>  <SCORE.INTER.VDW>
-20.6585

>  <SCORE.INTER.norm>
-2.38354

>  <SCORE.INTRA>
0

>  <SCORE.INTRA.DIHEDRAL>
0

>  <SCORE.INTRA.DIHEDRAL.0>
0

>  <SCORE.INTRA.POLAR>
0

>  <SCORE.INTRA.POLAR.0>
0

>  <SCORE.INTRA.REPUL>
0

>  <SCORE.INTRA.REPUL.0>
0

>  <SCORE.INTRA.SOLV>
0

>  <SCORE.INTRA.SOLV.lig_0>
-4.1818

>  <SCORE.INTRA.VDW>
0

>  <SCORE.INTRA.VDW.0>
0

>  <SCORE.INTRA.norm>
0

>  <SCORE.RESTR>
0

>  <SCORE.RESTR.CAVITY>
0

>  <SCORE.RESTR.norm>
0

>  <SCORE.SYSTEM>
0

>  <SCORE.SYSTEM.CONST>
0

>  <SCORE.SYSTEM.DIHEDRAL>
0

>  <SCORE.SYSTEM.SOLV>
0

>  <SCORE.SYSTEM.norm>
0

>  <SCORE.heavy>
10

>  <SCORE.norm>
-2.38354

>  <RMSD>
3.176

$$$$
ligand
 OpenBabel11021811503D
libRbt.so/2013.1/901 2013/11/27
 10 11  0  0  0  0  0  0  0  0999 V2000
   17.5802   -0.6736    2.8105 N   0  0  0  0  0  0  0  0  0  0  0  0
   16.4970   -0.8532    3.5432 C   0  0  0  0  0  0  0  0  0  0  0  0
   16.1666   -2.1439    3.9697 N   0  0  0  0  0  0  0  0  0  0  0  0
   16.9395   -3.1813    3.6196 C   0  0  0  0  0  0  0  0  0  0  0  0
   18.0272   -2.9947    2.8756 C   0  0  0  0  0  0  0  0  0  0  0  0
   18.3744   -1.7747    2.4726 C   0  0  0  0  0  0  0  0  0  0  0  0
   19.3950   -1.6006    1.8087 O   0  0  0  0  0  0  0  0  0  0  0  0
   18.5537   -4.1890    2.6195 N   0  0  0  0  0  0  0  0  0  0  0  0
   17.7988   -5.1121    3.2069 C   0  0  0  0  0  0  0  0  0  0  0  0
   16.8052   -4.4864    3.8316 N   0  0  0  0  0  0  0  0  0  0  0  0
  1  2  1  0  0  0  0
  1  6  1  0  0  0  0
  2  3  2  0  0  0  0
  3  4  1  0  0  0  0
  4  5  2  0  0  0  0
  4 10  1  0  0  0  0
  5  6  1  0  0  0  0
  5  8  1  0  0  0  0
  6  7  2  0  0  0  0
  8  9  1  0  0  0  0
  9 10  2  0  0  0  0
M  END
>  <CHROM.1>
17.64717394,-2.67813739,3.05156473,1.44625167,0.57344416,-0.12182186

>  <Name>
ligand

>  <RI>
0

>  <Rbt.Current_Directory>
/home/itssahil/PROJECTS/Mol_Feturizer/New_Systems/rnas/4NYD

>  <Rbt.Executable>
rbdock ($Id: //depot/dev/client3/rdock/2013.1/src/exe/rbdock.cxx#4 $)

>  <Rbt.Library>
libRbt.so (2013.1, Build901 2013/11/27)

>  <Rbt.Parameter_File>
/export/apps/rDock/src/rDock_2013.1_src/data/scripts/dock_solv.prm

>  <Rbt.Receptor>
prm/pocket_docking_8.prm

>  <SCORE>
-23.8346

>  <SCORE.INTER>
-23.8346

>  <SCORE.INTER.CONST>
1

>  <SCORE.INTER.POLAR>
0

>  <SCORE.INTER.ROT>
0

>  <SCORE.INTER.SOLV>
3.50516

>  <SCORE.INTER.VDW>
-20.6581

>  <SCORE.INTER.norm>
-2.38346

>  <SCORE.INTRA>
0

>  <SCORE.INTRA.DIHEDRAL>
0

>  <SCORE.INTRA.DIHEDRAL.0>
0

>  <SCORE.INTRA.POLAR>
0

>  <SCORE.INTRA.POLAR.0>
0

>  <SCORE.INTRA.REPUL>
0

>  <SCORE.INTRA.REPUL.0>
0

>  <SCORE.INTRA.SOLV>
0

>  <SCORE.INTRA.SOLV.lig_0>
-4.1818

>  <SCORE.INTRA.VDW>
0

>  <SCORE.INTRA.VDW.0>
0

>  <SCORE.INTRA.norm>
0

>  <SCORE.RESTR>
0

>  <SCORE.RESTR.CAVITY>
0

>  <SCORE.RESTR.norm>
0

>  <SCORE.SYSTEM>
0

>  <SCORE.SYSTEM.CONST>
0

>  <SCORE.SYSTEM.DIHEDRAL>
0

>  <SCORE.SYSTEM.SOLV>
0

>  <SCORE.SYSTEM.norm>
0

>  <SCORE.heavy>
10

>  <SCORE.norm>
-2.38346

>  <RMSD>
3.176

$$$$
ligand
 OpenBabel11021811503D
libRbt.so/2013.1/901 2013/11/27
 10 11  0  0  0  0  0  0  0  0999 V2000
   17.5816   -0.6649    2.8081 N   0  0  0  0  0  0  0  0  0  0  0  0
   16.4979   -0.8422    3.5405 C   0  0  0  0  0  0  0  0  0  0  0  0
   16.1642   -2.1322    3.9664 N   0  0  0  0  0  0  0  0  0  0  0  0
   16.9346   -3.1713    3.6159 C   0  0  0  0  0  0  0  0  0  0  0  0
   18.0228   -2.9871    2.8721 C   0  0  0  0  0  0  0  0  0  0  0  0
   18.3732   -1.7678    2.4698 C   0  0  0  0  0  0  0  0  0  0  0  0
   19.3943   -1.5959    1.8061 O   0  0  0  0  0  0  0  0  0  0  0  0
   18.5464   -4.1826    2.6156 N   0  0  0  0  0  0  0  0  0  0  0  0
   17.7891   -5.1041    3.2024 C   0  0  0  0  0  0  0  0  0  0  0  0
   16.7970   -4.4762    3.8273 N   0  0  0  0  0  0  0  0  0  0  0  0
  1  2  1  0  0  0  0
  1  6  1  0  0  0  0
  2  3  2  0  0  0  0
  3  4  1  0  0  0  0
  4  5  2  0  0  0  0
  4 10  1  0  0  0  0
  5  6  1  0  0  0  0
  5  8  1  0  0  0  0
  6  7  2  0  0  0  0
  8  9  1  0  0  0  0
  9 10  2  0  0  0  0
M  END
>  <CHROM.1>
17.64357269,-2.66968463,3.04819477,1.44330120,0.57356744,-0.11975769

>  <Name>
ligand

>  <RI>
0

>  <Rbt.Current_Directory>
/home/itssahil/PROJECTS/Mol_Feturizer/New_Systems/rnas/4NYD

>  <Rbt.Executable>
rbdock ($Id: //depot/dev/client3/rdock/2013.1/src/exe/rbdock.cxx#4 $)

>  <Rbt.Library>
libRbt.so (2013.1, Build901 2013/11/27)

>  <Rbt.Parameter_File>
/export/apps/rDock/src/rDock_2013.1_src/data/scripts/dock_solv.prm

>  <Rbt.Receptor>
prm/pocket_docking_7.prm

>  <SCORE>
-23.8324

>  <SCORE.INTER>
-23.8324

>  <SCORE.INTER.CONST>
1

>  <SCORE.INTER.POLAR>
0

>  <SCORE.INTER.ROT>
0

>  <SCORE.INTER.SOLV>
3.5046

>  <SCORE.INTER.VDW>
-20.6565

>  <SCORE.INTER.norm>
-2.38324

>  <SCORE.INTRA>
0

>  <SCORE.INTRA.DIHEDRAL>
0

>  <SCORE.INTRA.DIHEDRAL.0>
0

>  <SCORE.INTRA.POLAR>
0

>  <SCORE.INTRA.POLAR.0>
0

>  <SCORE.INTRA.REPUL>
0

>  <SCORE.INTRA.REPUL.0>
0

>  <SCORE.INTRA.SOLV>
0

>  <SCORE.INTRA.SOLV.lig_0>
-4.1818

>  <SCORE.INTRA.VDW>
0

>  <SCORE.INTRA.VDW.0>
0

>  <SCORE.INTRA.norm>
0

>  <SCORE.RESTR>
0

>  <SCORE.RESTR.CAVITY>
0

>  <SCORE.RESTR.norm>
0

>  <SCORE.SYSTEM>
0

>  <SCORE.SYSTEM.CONST>
0

>  <SCORE.SYSTEM.DIHEDRAL>
0

>  <SCORE.SYSTEM.SOLV>
0

>  <SCORE.SYSTEM.norm>
0

>  <SCORE.heavy>
10

>  <SCORE.norm>
-2.38324

>  <RMSD>
3.177

$$$$
ligand
 OpenBabel11021811503D
libRbt.so/2013.1/901 2013/11/27
 10 11  0  0  0  0  0  0  0  0999 V2000
   17.5773   -0.6588    2.8263 N   0  0  0  0  0  0  0  0  0  0  0  0
   16.4896   -0.8467    3.5502 C   0  0  0  0  0  0  0  0  0  0  0  0
   16.1581   -2.1417    3.9624 N   0  0  0  0  0  0  0  0  0  0  0  0
   16.9346   -3.1748    3.6075 C   0  0  0  0  0  0  0  0  0  0  0  0
   18.0268   -2.9799    2.8723 C   0  0  0  0  0  0  0  0  0  0  0  0
   18.3751   -1.7557    2.4832 C   0  0  0  0  0  0  0  0  0  0  0  0
   19.3997   -1.5741    1.8276 O   0  0  0  0  0  0  0  0  0  0  0  0
   18.5566   -4.1711    2.6084 N   0  0  0  0  0  0  0  0  0  0  0  0
   17.7991   -5.1006    3.1822 C   0  0  0  0  0  0  0  0  0  0  0  0
   16.8007   -4.4820    3.8063 N   0  0  0  0  0  0  0  0  0  0  0  0
  1  2  1  0  0  0  0
  1  6  1  0  0  0  0
  2  3  2  0  0  0  0
  3  4  1  0  0  0  0
  4  5  2  0  0  0  0
  4 10  1  0  0  0  0
  5  6  1  0  0  0  0
  5  8  1  0  0  0  0
  6  7  2  0  0  0  0
  8  9  1  0  0  0  0
  9 10  2  0  0  0  0
M  END
>  <CHROM.1>
17.64530007,-2.66546008,3.04883776,1.44685235,0.56683693,-0.11270105

>  <Name>
ligand

>  <RI>
0

>  <Rbt.Current_Directory>
/home/itssahil/PROJECTS/Mol_Feturizer/New_Systems/rnas/4NYD

>  <Rbt.Executable>
rbdock ($Id: //depot/dev/client3/rdock/2013.1/src/exe/rbdock.cxx#4 $)

>  <Rbt.Library>
libRbt.so (2013.1, Build901 2013/11/27)

>  <Rbt.Parameter_File>
/export/apps/rDock/src/rDock_2013.1_src/data/scripts/dock_solv.prm

>  <Rbt.Receptor>
prm/pocket_docking_7.prm

>  <SCORE>
-23.7928

>  <SCORE.INTER>
-23.7928

>  <SCORE.INTER.CONST>
1

>  <SCORE.INTER.POLAR>
0

>  <SCORE.INTER.ROT>
0

>  <SCORE.INTER.SOLV>
3.50882

>  <SCORE.INTER.VDW>
-20.6315

>  <SCORE.INTER.norm>
-2.37928

>  <SCORE.INTRA>
0

>  <SCORE.INTRA.DIHEDRAL>
0

>  <SCORE.INTRA.DIHEDRAL.0>
0

>  <SCORE.INTRA.POLAR>
0

>  <SCORE.INTRA.POLAR.0>
0

>  <SCORE.INTRA.REPUL>
0

>  <SCORE.INTRA.REPUL.0>
0

>  <SCORE.INTRA.SOLV>
0

>  <SCORE.INTRA.SOLV.lig_0>
-4.1818

>  <SCORE.INTRA.VDW>
0

>  <SCORE.INTRA.VDW.0>
0

>  <SCORE.INTRA.norm>
0

>  <SCORE.RESTR>
0

>  <SCORE.RESTR.CAVITY>
0

>  <SCORE.RESTR.norm>
0

>  <SCORE.SYSTEM>
0

>  <SCORE.SYSTEM.CONST>
0

>  <SCORE.SYSTEM.DIHEDRAL>
0

>  <SCORE.SYSTEM.SOLV>
0

>  <SCORE.SYSTEM.norm>
0

>  <SCORE.heavy>
10

>  <SCORE.norm>
-2.37928

>  <RMSD>
3.178

$$$$
ligand
 OpenBabel11021811503D
libRbt.so/2013.1/901 2013/11/27
 10 11  0  0  0  0  0  0  0  0999 V2000
   17.5669   -0.6694    2.7893 N   0  0  0  0  0  0  0  0  0  0  0  0
   16.4919   -0.8474    3.5342 C   0  0  0  0  0  0  0  0  0  0  0  0
   16.1672   -2.1369    3.9686 N   0  0  0  0  0  0  0  0  0  0  0  0
   16.9371   -3.1749    3.6137 C   0  0  0  0  0  0  0  0  0  0  0  0
   18.0165   -2.9899    2.8573 C   0  0  0  0  0  0  0  0  0  0  0  0
   18.3584   -1.7710    2.4466 C   0  0  0  0  0  0  0  0  0  0  0  0
   19.3716   -1.5983    1.7711 O   0  0  0  0  0  0  0  0  0  0  0  0
   18.5413   -4.1847    2.5996 N   0  0  0  0  0  0  0  0  0  0  0  0
   17.7935   -5.1064    3.1982 C   0  0  0  0  0  0  0  0  0  0  0  0
   16.8062   -4.4794    3.8315 N   0  0  0  0  0  0  0  0  0  0  0  0
  1  2  1  0  0  0  0
  1  6  1  0  0  0  0
  2  3  2  0  0  0  0
  3  4  1  0  0  0  0
  4  5  2  0  0  0  0
  4 10  1  0  0  0  0
  5  6  1  0  0  0  0
  5  8  1  0  0  0  0
  6  7  2  0  0  0  0
  8  9  1  0  0  0  0
  9 10  2  0  0  0  0
M  END
>  <CHROM.1>
17.63820523,-2.67307655,3.03634759,1.44882363,0.58401843,-0.12658620

>  <Name>
ligand

>  <RI>
0

>  <Rbt.Current_Directory>
/home/itssahil/PROJECTS/Mol_Feturizer/New_Systems/rnas/4NYD

>  <Rbt.Executable>
rbdock ($Id: //depot/dev/client3/rdock/2013.1/src/exe/rbdock.cxx#4 $)

>  <Rbt.Library>
libRbt.so (2013.1, Build901 2013/11/27)

>  <Rbt.Parameter_File>
/export/apps/rDock/src/rDock_2013.1_src/data/scripts/dock_solv.prm

>  <Rbt.Receptor>
prm/blind_docking_40.prm

>  <SCORE>
-23.8256

>  <SCORE.INTER>
-23.8256

>  <SCORE.INTER.CONST>
1

>  <SCORE.INTER.POLAR>
0

>  <SCORE.INTER.ROT>
0

>  <SCORE.INTER.SOLV>
3.49368

>  <SCORE.INTER.VDW>
-20.6483

>  <SCORE.INTER.norm>
-2.38256

>  <SCORE.INTRA>
0

>  <SCORE.INTRA.DIHEDRAL>
0

>  <SCORE.INTRA.DIHEDRAL.0>
0

>  <SCORE.INTRA.POLAR>
0

>  <SCORE.INTRA.POLAR.0>
0

>  <SCORE.INTRA.REPUL>
0

>  <SCORE.INTRA.REPUL.0>
0

>  <SCORE.INTRA.SOLV>
0

>  <SCORE.INTRA.SOLV.lig_0>
-4.1818

>  <SCORE.INTRA.VDW>
0

>  <SCORE.INTRA.VDW.0>
0

>  <SCORE.INTRA.norm>
0

>  <SCORE.RESTR>
0

>  <SCORE.RESTR.CAVITY>
0

>  <SCORE.RESTR.norm>
0

>  <SCORE.SYSTEM>
0

>  <SCORE.SYSTEM.CONST>
0

>  <SCORE.SYSTEM.DIHEDRAL>
0

>  <SCORE.SYSTEM.SOLV>
0

>  <SCORE.SYSTEM.norm>
0

>  <SCORE.heavy>
10

>  <SCORE.norm>
-2.38256

>  <RMSD>
3.179

$$$$
ligand
 OpenBabel11021811503D
libRbt.so/2013.1/901 2013/11/27
 10 11  0  0  0  0  0  0  0  0999 V2000
   16.3074   -2.1923    3.8628 N   0  0  0  0  0  0  0  0  0  0  0  0
   16.7715   -1.0301    3.4429 C   0  0  0  0  0  0  0  0  0  0  0  0
   17.9637   -0.9941    2.7120 N   0  0  0  0  0  0  0  0  0  0  0  0
   18.6272   -2.1309    2.4599 C   0  0  0  0  0  0  0  0  0  0  0  0
   18.1573   -3.2991    2.8911 C   0  0  0  0  0  0  0  0  0  0  0  0
   17.0156   -3.3633    3.5722 C   0  0  0  0  0  0  0  0  0  0  0  0
   16.5686   -4.4465    3.9458 O   0  0  0  0  0  0  0  0  0  0  0  0
   19.0438   -4.2371    2.5693 N   0  0  0  0  0  0  0  0  0  0  0  0
   20.0568   -3.6537    1.9363 C   0  0  0  0  0  0  0  0  0  0  0  0
   19.7936   -2.3521    1.8626 N   0  0  0  0  0  0  0  0  0  0  0  0
  1  2  1  0  0  0  0
  1  6  1  0  0  0  0
  2  3  2  0  0  0  0
  3  4  1  0  0  0  0
  4  5  2  0  0  0  0
  4 10  1  0  0  0  0
  5  6  1  0  0  0  0
  5  8  1  0  0  0  0
  6  7  2  0  0  0  0
  8  9  1  0  0  0  0
  9 10  2  0  0  0  0
M  END
>  <CHROM.1>
18.00129305,-2.80084428,2.94578980,-3.05273202,-0.51134607,3.01194615

>  <Name>
ligand

>  <RI>
0

>  <Rbt.Current_Directory>
/home/itssahil/PROJECTS/Mol_Feturizer/New_Systems/rnas/4NYD

>  <Rbt.Executable>
rbdock ($Id: //depot/dev/client3/rdock/2013.1/src/exe/rbdock.cxx#4 $)

>  <Rbt.Library>
libRbt.so (2013.1, Build901 2013/11/27)

>  <Rbt.Parameter_File>
/export/apps/rDock/src/rDock_2013.1_src/data/scripts/dock_solv.prm

>  <Rbt.Receptor>
prm/blind_docking_60.prm

>  <SCORE>
-20.7921

>  <SCORE.INTER>
-20.7921

>  <SCORE.INTER.CONST>
1

>  <SCORE.INTER.POLAR>
0

>  <SCORE.INTER.ROT>
0

>  <SCORE.INTER.SOLV>
4.41624

>  <SCORE.INTER.VDW>
-18.9335

>  <SCORE.INTER.norm>
-2.07921

>  <SCORE.INTRA>
0

>  <SCORE.INTRA.DIHEDRAL>
0

>  <SCORE.INTRA.DIHEDRAL.0>
0

>  <SCORE.INTRA.POLAR>
0

>  <SCORE.INTRA.POLAR.0>
0

>  <SCORE.INTRA.REPUL>
0

>  <SCORE.INTRA.REPUL.0>
0

>  <SCORE.INTRA.SOLV>
0

>  <SCORE.INTRA.SOLV.lig_0>
-4.1818

>  <SCORE.INTRA.VDW>
0

>  <SCORE.INTRA.VDW.0>
0

>  <SCORE.INTRA.norm>
0

>  <SCORE.RESTR>
0

>  <SCORE.RESTR.CAVITY>
0

>  <SCORE.RESTR.norm>
0

>  <SCORE.SYSTEM>
0

>  <SCORE.SYSTEM.CONST>
0

>  <SCORE.SYSTEM.DIHEDRAL>
0

>  <SCORE.SYSTEM.SOLV>
0

>  <SCORE.SYSTEM.norm>
0

>  <SCORE.heavy>
10

>  <SCORE.norm>
-2.07921

>  <RMSD>
3.756

$$$$
ligand
 OpenBabel11021811503D
libRbt.so/2013.1/901 2013/11/27
 10 11  0  0  0  0  0  0  0  0999 V2000
   17.2061   -0.8732    3.1677 N   0  0  0  0  0  0  0  0  0  0  0  0
   18.3722   -0.8967    2.5497 C   0  0  0  0  0  0  0  0  0  0  0  0
   18.9789   -2.1284    2.2815 N   0  0  0  0  0  0  0  0  0  0  0  0
   18.3814   -3.2648    2.6658 C   0  0  0  0  0  0  0  0  0  0  0  0
   17.2085   -3.2344    3.2940 C   0  0  0  0  0  0  0  0  0  0  0  0
   16.6010   -2.0770    3.5444 C   0  0  0  0  0  0  0  0  0  0  0  0
   15.5040   -2.0522    4.1000 O   0  0  0  0  0  0  0  0  0  0  0  0
   16.8906   -4.4839    3.6211 N   0  0  0  0  0  0  0  0  0  0  0  0
   17.8598   -5.2865    3.1928 C   0  0  0  0  0  0  0  0  0  0  0  0
   18.7774   -4.5315    2.5952 N   0  0  0  0  0  0  0  0  0  0  0  0
  1  2  1  0  0  0  0
  1  6  1  0  0  0  0
  2  3  2  0  0  0  0
  3  4  1  0  0  0  0
  4  5  2  0  0  0  0
  4 10  1  0  0  0  0
  5  6  1  0  0  0  0
  5  8  1  0  0  0  0
  6  7  2  0  0  0  0
  8  9  1  0  0  0  0
  9 10  2  0  0  0  0
M  END
>  <CHROM.1>
17.53864288,-2.86512769,3.12020989,-1.92006049,-0.48345047,3.05908895

>  <Name>
ligand

>  <RI>
0

>  <Rbt.Current_Directory>
/home/itssahil/PROJECTS/Mol_Feturizer/New_Systems/rnas/4NYD

>  <Rbt.Executable>
rbdock ($Id: //depot/dev/client3/rdock/2013.1/src/exe/rbdock.cxx#4 $)

>  <Rbt.Library>
libRbt.so (2013.1, Build901 2013/11/27)

>  <Rbt.Parameter_File>
/export/apps/rDock/src/rDock_2013.1_src/data/scripts/dock_solv.prm

>  <Rbt.Receptor>
prm/pocket_docking_8.prm

>  <SCORE>
-23.0628

>  <SCORE.INTER>
-23.0628

>  <SCORE.INTER.CONST>
1

>  <SCORE.INTER.POLAR>
0

>  <SCORE.INTER.ROT>
0

>  <SCORE.INTER.SOLV>
4.04909

>  <SCORE.INTER.VDW>
-20.3249

>  <SCORE.INTER.norm>
-2.30628

>  <SCORE.INTRA>
0

>  <SCORE.INTRA.DIHEDRAL>
0

>  <SCORE.INTRA.DIHEDRAL.0>
0

>  <SCORE.INTRA.POLAR>
0

>  <SCORE.INTRA.POLAR.0>
0

>  <SCORE.INTRA.REPUL>
0

>  <SCORE.INTRA.REPUL.0>
0

>  <SCORE.INTRA.SOLV>
0

>  <SCORE.INTRA.SOLV.lig_0>
-4.1818

>  <SCORE.INTRA.VDW>
0

>  <SCORE.INTRA.VDW.0>
0

>  <SCORE.INTRA.norm>
0

>  <SCORE.RESTR>
0

>  <SCORE.RESTR.CAVITY>
0

>  <SCORE.RESTR.norm>
0

>  <SCORE.SYSTEM>
0

>  <SCORE.SYSTEM.CONST>
0

>  <SCORE.SYSTEM.DIHEDRAL>
0

>  <SCORE.SYSTEM.SOLV>
0

>  <SCORE.SYSTEM.norm>
0

>  <SCORE.heavy>
10

>  <SCORE.norm>
-2.30628

>  <RMSD>
3.831

$$$$
ligand
 OpenBabel11021811503D
libRbt.so/2013.1/901 2013/11/27
 10 11  0  0  0  0  0  0  0  0999 V2000
   17.2039   -0.8568    3.1638 N   0  0  0  0  0  0  0  0  0  0  0  0
   18.3708   -0.8845    2.5475 C   0  0  0  0  0  0  0  0  0  0  0  0
   18.9768   -2.1180    2.2864 N   0  0  0  0  0  0  0  0  0  0  0  0
   18.3780   -3.2520    2.6759 C   0  0  0  0  0  0  0  0  0  0  0  0
   17.2042   -3.2174    3.3023 C   0  0  0  0  0  0  0  0  0  0  0  0
   16.5973   -2.0583    3.5459 C   0  0  0  0  0  0  0  0  0  0  0  0
   15.4996   -2.0297    4.0999 O   0  0  0  0  0  0  0  0  0  0  0  0
   16.8849   -4.4649    3.6356 N   0  0  0  0  0  0  0  0  0  0  0  0
   17.8541   -5.2705    3.2128 C   0  0  0  0  0  0  0  0  0  0  0  0
   18.7730   -4.5194    2.6124 N   0  0  0  0  0  0  0  0  0  0  0  0
  1  2  1  0  0  0  0
  1  6  1  0  0  0  0
  2  3  2  0  0  0  0
  3  4  1  0  0  0  0
  4  5  2  0  0  0  0
  4 10  1  0  0  0  0
  5  6  1  0  0  0  0
  5  8  1  0  0  0  0
  6  7  2  0  0  0  0
  8  9  1  0  0  0  0
  9 10  2  0  0  0  0
M  END
>  <CHROM.1>
17.53488628,-2.84927211,3.12709522,-1.91905249,-0.48217850,3.05433313

>  <Name>
ligand

>  <RI>
0

>  <Rbt.Current_Directory>
/home/itssahil/PROJECTS/Mol_Feturizer/New_Systems/rnas/4NYD

>  <Rbt.Executable>
rbdock ($Id: //depot/dev/client3/rdock/2013.1/src/exe/rbdock.cxx#4 $)

>  <Rbt.Library>
libRbt.so (2013.1, Build901 2013/11/27)

>  <Rbt.Parameter_File>
/export/apps/rDock/src/rDock_2013.1_src/data/scripts/dock_solv.prm

>  <Rbt.Receptor>
prm/blind_docking_80.prm

>  <SCORE>
-23.027

>  <SCORE.INTER>
-23.027

>  <SCORE.INTER.CONST>
1

>  <SCORE.INTER.POLAR>
0

>  <SCORE.INTER.ROT>
0

>  <SCORE.INTER.SOLV>
4.04935

>  <SCORE.INTER.VDW>
-20.3011

>  <SCORE.INTER.norm>
-2.3027

>  <SCORE.INTRA>
0

>  <SCORE.INTRA.DIHEDRAL>
0

>  <SCORE.INTRA.DIHEDRAL.0>
0

>  <SCORE.INTRA.POLAR>
0

>  <SCORE.INTRA.POLAR.0>
0

>  <SCORE.INTRA.REPUL>
0

>  <SCORE.INTRA.REPUL.0>
0

>  <SCORE.INTRA.SOLV>
0

>  <SCORE.INTRA.SOLV.lig_0>
-4.1818

>  <SCORE.INTRA.VDW>
0

>  <SCORE.INTRA.VDW.0>
0

>  <SCORE.INTRA.norm>
0

>  <SCORE.RESTR>
0

>  <SCORE.RESTR.CAVITY>
0

>  <SCORE.RESTR.norm>
0

>  <SCORE.SYSTEM>
0

>  <SCORE.SYSTEM.CONST>
0

>  <SCORE.SYSTEM.DIHEDRAL>
0

>  <SCORE.SYSTEM.SOLV>
0

>  <SCORE.SYSTEM.norm>
0

>  <SCORE.heavy>
10

>  <SCORE.norm>
-2.3027

>  <RMSD>
3.832

$$$$
ligand
 OpenBabel11021811503D
libRbt.so/2013.1/901 2013/11/27
 10 11  0  0  0  0  0  0  0  0999 V2000
   17.2008   -0.8534    3.1679 N   0  0  0  0  0  0  0  0  0  0  0  0
   18.3685   -0.8784    2.5529 C   0  0  0  0  0  0  0  0  0  0  0  0
   18.9764   -2.1106    2.2902 N   0  0  0  0  0  0  0  0  0  0  0  0
   18.3786   -3.2461    2.6768 C   0  0  0  0  0  0  0  0  0  0  0  0
   17.2041   -3.2142    3.3020 C   0  0  0  0  0  0  0  0  0  0  0  0
   16.5954   -2.0563    3.5471 C   0  0  0  0  0  0  0  0  0  0  0  0
   15.4970   -2.0302    4.0999 O   0  0  0  0  0  0  0  0  0  0  0  0
   16.8860   -4.4627    3.6326 N   0  0  0  0  0  0  0  0  0  0  0  0
   17.8567   -5.2663    3.2093 C   0  0  0  0  0  0  0  0  0  0  0  0
   18.7754   -4.5128    2.6114 N   0  0  0  0  0  0  0  0  0  0  0  0
  1  2  1  0  0  0  0
  1  6  1  0  0  0  0
  2  3  2  0  0  0  0
  3  4  1  0  0  0  0
  4  5  2  0  0  0  0
  4 10  1  0  0  0  0
  5  6  1  0  0  0  0
  5  8  1  0  0  0  0
  6  7  2  0  0  0  0
  8  9  1  0  0  0  0
  9 10  2  0  0  0  0
M  END
>  <CHROM.1>
17.53448927,-2.84529814,3.12784204,-1.92039763,-0.48093835,3.05560565

>  <Name>
ligand

>  <RI>
0

>  <Rbt.Current_Directory>
/home/itssahil/PROJECTS/Mol_Feturizer/New_Systems/rnas/4NYD

>  <Rbt.Executable>
rbdock ($Id: //depot/dev/client3/rdock/2013.1/src/exe/rbdock.cxx#4 $)

>  <Rbt.Library>
libRbt.so (2013.1, Build901 2013/11/27)

>  <Rbt.Parameter_File>
/export/apps/rDock/src/rDock_2013.1_src/data/scripts/dock_solv.prm

>  <Rbt.Receptor>
prm/pocket_docking_7.prm

>  <SCORE>
-23.0285

>  <SCORE.INTER>
-23.0285

>  <SCORE.INTER.CONST>
1

>  <SCORE.INTER.POLAR>
0

>  <SCORE.INTER.ROT>
0

>  <SCORE.INTER.SOLV>
4.05096

>  <SCORE.INTER.VDW>
-20.3027

>  <SCORE.INTER.norm>
-2.30285

>  <SCORE.INTRA>
0

>  <SCORE.INTRA.DIHEDRAL>
0

>  <SCORE.INTRA.DIHEDRAL.0>
0

>  <SCORE.INTRA.POLAR>
0

>  <SCORE.INTRA.POLAR.0>
0

>  <SCORE.INTRA.REPUL>
0

>  <SCORE.INTRA.REPUL.0>
0

>  <SCORE.INTRA.SOLV>
0

>  <SCORE.INTRA.SOLV.lig_0>
-4.1818

>  <SCORE.INTRA.VDW>
0

>  <SCORE.INTRA.VDW.0>
0

>  <SCORE.INTRA.norm>
0

>  <SCORE.RESTR>
6.35835e-05

>  <SCORE.RESTR.CAVITY>
6.35835e-05

>  <SCORE.RESTR.norm>
6.35835e-06

>  <SCORE.SYSTEM>
0

>  <SCORE.SYSTEM.CONST>
0

>  <SCORE.SYSTEM.DIHEDRAL>
0

>  <SCORE.SYSTEM.SOLV>
0

>  <SCORE.SYSTEM.norm>
0

>  <SCORE.heavy>
10

>  <SCORE.norm>
-2.30285

>  <RMSD>
3.833

$$$$
ligand
 OpenBabel11021811503D
libRbt.so/2013.1/901 2013/11/27
 10 11  0  0  0  0  0  0  0  0999 V2000
   17.2059   -0.8688    3.1963 N   0  0  0  0  0  0  0  0  0  0  0  0
   18.3750   -0.8800    2.5836 C   0  0  0  0  0  0  0  0  0  0  0  0
   18.9849   -2.1060    2.2973 N   0  0  0  0  0  0  0  0  0  0  0  0
   18.3874   -3.2498    2.6592 C   0  0  0  0  0  0  0  0  0  0  0  0
   17.2114   -3.2318    3.2822 C   0  0  0  0  0  0  0  0  0  0  0  0
   16.6009   -2.0798    3.5494 C   0  0  0  0  0  0  0  0  0  0  0  0
   15.5012   -2.0661    4.1001 O   0  0  0  0  0  0  0  0  0  0  0  0
   16.8940   -4.4872    3.5864 N   0  0  0  0  0  0  0  0  0  0  0  0
   17.8665   -5.2809    3.1491 C   0  0  0  0  0  0  0  0  0  0  0  0
   18.7857   -4.5145    2.5689 N   0  0  0  0  0  0  0  0  0  0  0  0
  1  2  1  0  0  0  0
  1  6  1  0  0  0  0
  2  3  2  0  0  0  0
  3  4  1  0  0  0  0
  4  5  2  0  0  0  0
  4 10  1  0  0  0  0
  5  6  1  0  0  0  0
  5  8  1  0  0  0  0
  6  7  2  0  0  0  0
  8  9  1  0  0  0  0
  9 10  2  0  0  0  0
M  END
>  <CHROM.1>
17.54183375,-2.85912683,3.11635544,-1.92139536,-0.47853238,3.07554642

>  <Name>
ligand

>  <RI>
0

>  <Rbt.Current_Directory>
/home/itssahil/PROJECTS/Mol_Feturizer/New_Systems/rnas/4NYD

>  <Rbt.Executable>
rbdock ($Id: //depot/dev/client3/rdock/2013.1/src/exe/rbdock.cxx#4 $)

>  <Rbt.Library>
libRbt.so (2013.1, Build901 2013/11/27)

>  <Rbt.Parameter_File>
/export/apps/rDock/src/rDock_2013.1_src/data/scripts/dock_solv.prm

>  <Rbt.Receptor>
prm/blind_docking_80.prm

>  <SCORE>
-23.0892

>  <SCORE.INTER>
-23.0893

>  <SCORE.INTER.CONST>
1

>  <SCORE.INTER.POLAR>
0

>  <SCORE.INTER.ROT>
0

>  <SCORE.INTER.SOLV>
4.06302

>  <SCORE.INTER.VDW>
-20.3472

>  <SCORE.INTER.norm>
-2.30893

>  <SCORE.INTRA>
0

>  <SCORE.INTRA.DIHEDRAL>
0

>  <SCORE.INTRA.DIHEDRAL.0>
0

>  <SCORE.INTRA.POLAR>
0

>  <SCORE.INTRA.POLAR.0>
0

>  <SCORE.INTRA.REPUL>
0

>  <SCORE.INTRA.REPUL.0>
0

>  <SCORE.INTRA.SOLV>
0

>  <SCORE.INTRA.SOLV.lig_0>
-4.1818

>  <SCORE.INTRA.VDW>
0

>  <SCORE.INTRA.VDW.0>
0

>  <SCORE.INTRA.norm>
0

>  <SCORE.RESTR>
3.45579e-05

>  <SCORE.RESTR.CAVITY>
3.45579e-05

>  <SCORE.RESTR.norm>
3.45579e-06

>  <SCORE.SYSTEM>
0

>  <SCORE.SYSTEM.CONST>
0

>  <SCORE.SYSTEM.DIHEDRAL>
0

>  <SCORE.SYSTEM.SOLV>
0

>  <SCORE.SYSTEM.norm>
0

>  <SCORE.heavy>
10

>  <SCORE.norm>
-2.30892

>  <RMSD>
3.834

$$$$
ligand
 OpenBabel11021811503D
libRbt.so/2013.1/901 2013/11/27
 10 11  0  0  0  0  0  0  0  0999 V2000
   17.2002   -0.8639    3.2146 N   0  0  0  0  0  0  0  0  0  0  0  0
   18.3753   -0.8666    2.6134 C   0  0  0  0  0  0  0  0  0  0  0  0
   18.9948   -2.0882    2.3293 N   0  0  0  0  0  0  0  0  0  0  0  0
   18.4004   -3.2364    2.6820 C   0  0  0  0  0  0  0  0  0  0  0  0
   17.2183   -3.2271    3.2935 C   0  0  0  0  0  0  0  0  0  0  0  0
   16.5986   -2.0794    3.5582 C   0  0  0  0  0  0  0  0  0  0  0  0
   15.4936   -2.0736    4.0982 O   0  0  0  0  0  0  0  0  0  0  0  0
   16.9051   -4.4852    3.5908 N   0  0  0  0  0  0  0  0  0  0  0  0
   17.8863   -5.2720    3.1606 C   0  0  0  0  0  0  0  0  0  0  0  0
   18.8067   -4.4986    2.5917 N   0  0  0  0  0  0  0  0  0  0  0  0
  1  2  1  0  0  0  0
  1  6  1  0  0  0  0
  2  3  2  0  0  0  0
  3  4  1  0  0  0  0
  4  5  2  0  0  0  0
  4 10  1  0  0  0  0
  5  6  1  0  0  0  0
  5  8  1  0  0  0  0
  6  7  2  0  0  0  0
  8  9  1  0  0  0  0
  9 10  2  0  0  0  0
M  END
>  <CHROM.1>
17.54819152,-2.85200143,3.13200350,-1.92704771,-0.46844739,3.07601847

>  <Name>
ligand

>  <RI>
0

>  <Rbt.Current_Directory>
/home/itssahil/PROJECTS/Mol_Feturizer/New_Systems/rnas/4NYD

>  <Rbt.Executable>
rbdock ($Id: //depot/dev/client3/rdock/2013.1/src/exe/rbdock.cxx#4 $)

>  <Rbt.Library>
libRbt.so (2013.1, Build901 2013/11/27)

>  <Rbt.Parameter_File>
/export/apps/rDock/src/rDock_2013.1_src/data/scripts/dock_solv.prm

>  <Rbt.Receptor>
prm/blind_docking_80.prm

>  <SCORE>
-23.0614

>  <SCORE.INTER>
-23.0614

>  <SCORE.INTER.CONST>
1

>  <SCORE.INTER.POLAR>
0

>  <SCORE.INTER.ROT>
0

>  <SCORE.INTER.SOLV>
4.07116

>  <SCORE.INTER.VDW>
-20.3313

>  <SCORE.INTER.norm>
-2.30614

>  <SCORE.INTRA>
0

>  <SCORE.INTRA.DIHEDRAL>
0

>  <SCORE.INTRA.DIHEDRAL.0>
0

>  <SCORE.INTRA.POLAR>
0

>  <SCORE.INTRA.POLAR.0>
0

>  <SCORE.INTRA.REPUL>
0

>  <SCORE.INTRA.REPUL.0>
0

>  <SCORE.INTRA.SOLV>
0

>  <SCORE.INTRA.SOLV.lig_0>
-4.1818

>  <SCORE.INTRA.VDW>
0

>  <SCORE.INTRA.VDW.0>
0

>  <SCORE.INTRA.norm>
0

>  <SCORE.RESTR>
0

>  <SCORE.RESTR.CAVITY>
0

>  <SCORE.RESTR.norm>
0

>  <SCORE.SYSTEM>
0

>  <SCORE.SYSTEM.CONST>
0

>  <SCORE.SYSTEM.DIHEDRAL>
0

>  <SCORE.SYSTEM.SOLV>
0

>  <SCORE.SYSTEM.norm>
0

>  <SCORE.heavy>
10

>  <SCORE.norm>
-2.30614

>  <RMSD>
3.838

$$$$
ligand
 OpenBabel11021811503D
libRbt.so/2013.1/901 2013/11/27
 10 11  0  0  0  0  0  0  0  0999 V2000
   17.1590   -0.8313    3.1832 N   0  0  0  0  0  0  0  0  0  0  0  0
   18.3321   -0.8692    2.5792 C   0  0  0  0  0  0  0  0  0  0  0  0
   18.9291   -2.1080    2.3225 N   0  0  0  0  0  0  0  0  0  0  0  0
   18.3155   -3.2368    2.7038 C   0  0  0  0  0  0  0  0  0  0  0  0
   17.1355   -3.1920    3.3179 C   0  0  0  0  0  0  0  0  0  0  0  0
   16.5371   -2.0275    3.5570 C   0  0  0  0  0  0  0  0  0  0  0  0
   15.4339   -1.9894    4.0994 O   0  0  0  0  0  0  0  0  0  0  0  0
   16.8009   -4.4369    3.6458 N   0  0  0  0  0  0  0  0  0  0  0  0
   17.7669   -5.2510    3.2319 C   0  0  0  0  0  0  0  0  0  0  0  0
   18.6991   -4.5078    2.6425 N   0  0  0  0  0  0  0  0  0  0  0  0
  1  2  1  0  0  0  0
  1  6  1  0  0  0  0
  2  3  2  0  0  0  0
  3  4  1  0  0  0  0
  4  5  2  0  0  0  0
  4 10  1  0  0  0  0
  5  6  1  0  0  0  0
  5  8  1  0  0  0  0
  6  7  2  0  0  0  0
  8  9  1  0  0  0  0
  9 10  2  0  0  0  0
M  END
>  <CHROM.1>
17.47151971,-2.82675653,3.14679335,-1.90743107,-0.47247309,3.06122556

>  <Name>
ligand

>  <RI>
0

>  <Rbt.Current_Directory>
/home/itssahil/PROJECTS/Mol_Feturizer/New_Systems/rnas/4NYD

>  <Rbt.Executable>
rbdock ($Id: //depot/dev/client3/rdock/2013.1/src/exe/rbdock.cxx#4 $)

>  <Rbt.Library>
libRbt.so (2013.1, Build901 2013/11/27)

>  <Rbt.Parameter_File>
/export/apps/rDock/src/rDock_2013.1_src/data/scripts/dock_solv.prm

>  <Rbt.Receptor>
prm/pocket_docking_8.prm

>  <SCORE>
-23.0239

>  <SCORE.INTER>
-23.0239

>  <SCORE.INTER.CONST>
1

>  <SCORE.INTER.POLAR>
0

>  <SCORE.INTER.ROT>
0

>  <SCORE.INTER.SOLV>
4.07055

>  <SCORE.INTER.VDW>
-20.3061

>  <SCORE.INTER.norm>
-2.30239

>  <SCORE.INTRA>
0

>  <SCORE.INTRA.DIHEDRAL>
0

>  <SCORE.INTRA.DIHEDRAL.0>
0

>  <SCORE.INTRA.POLAR>
0

>  <SCORE.INTRA.POLAR.0>
0

>  <SCORE.INTRA.REPUL>
0

>  <SCORE.INTRA.REPUL.0>
0

>  <SCORE.INTRA.SOLV>
0

>  <SCORE.INTRA.SOLV.lig_0>
-4.1818

>  <SCORE.INTRA.VDW>
0

>  <SCORE.INTRA.VDW.0>
0

>  <SCORE.INTRA.norm>
0

>  <SCORE.RESTR>
0

>  <SCORE.RESTR.CAVITY>
0

>  <SCORE.RESTR.norm>
0

>  <SCORE.SYSTEM>
0

>  <SCORE.SYSTEM.CONST>
0

>  <SCORE.SYSTEM.DIHEDRAL>
0

>  <SCORE.SYSTEM.SOLV>
0

>  <SCORE.SYSTEM.norm>
0

>  <SCORE.heavy>
10

>  <SCORE.norm>
-2.30239

>  <RMSD>
3.854

$$$$
ligand
 OpenBabel11021811503D
libRbt.so/2013.1/901 2013/11/27
 10 11  0  0  0  0  0  0  0  0999 V2000
   16.8982   -0.6541    3.1291 N   0  0  0  0  0  0  0  0  0  0  0  0
   18.0650   -0.6445    2.5121 C   0  0  0  0  0  0  0  0  0  0  0  0
   18.7278   -1.8552    2.2846 N   0  0  0  0  0  0  0  0  0  0  0  0
   18.1826   -3.0046    2.7063 C   0  0  0  0  0  0  0  0  0  0  0  0
   17.0086   -3.0073    3.3333 C   0  0  0  0  0  0  0  0  0  0  0  0
   16.3483   -1.8714    3.5455 C   0  0  0  0  0  0  0  0  0  0  0  0
   15.2506   -1.8785    4.1001 O   0  0  0  0  0  0  0  0  0  0  0  0
   16.7479   -4.2586    3.7017 N   0  0  0  0  0  0  0  0  0  0  0  0
   17.7535   -5.0296    3.2999 C   0  0  0  0  0  0  0  0  0  0  0  0
   18.6363   -4.2535    2.6776 N   0  0  0  0  0  0  0  0  0  0  0  0
  1  2  1  0  0  0  0
  1  6  1  0  0  0  0
  2  3  2  0  0  0  0
  3  4  1  0  0  0  0
  4  5  2  0  0  0  0
  4 10  1  0  0  0  0
  5  6  1  0  0  0  0
  5  8  1  0  0  0  0
  6  7  2  0  0  0  0
  8  9  1  0  0  0  0
  9 10  2  0  0  0  0
M  END
>  <CHROM.1>
17.32176175,-2.62918212,3.14741608,-1.97140364,-0.47775210,3.00229579

>  <Name>
ligand

>  <RI>
0

>  <Rbt.Current_Directory>
/home/itssahil/PROJECTS/Mol_Feturizer/New_Systems/rnas/4NYD

>  <Rbt.Executable>
rbdock ($Id: //depot/dev/client3/rdock/2013.1/src/exe/rbdock.cxx#4 $)

>  <Rbt.Library>
libRbt.so (2013.1, Build901 2013/11/27)

>  <Rbt.Parameter_File>
/export/apps/rDock/src/rDock_2013.1_src/data/scripts/dock_solv.prm

>  <Rbt.Receptor>
prm/blind_docking_100.prm

>  <SCORE>
-23.0915

>  <SCORE.INTER>
-23.0916

>  <SCORE.INTER.CONST>
1

>  <SCORE.INTER.POLAR>
0

>  <SCORE.INTER.ROT>
0

>  <SCORE.INTER.SOLV>
3.99939

>  <SCORE.INTER.VDW>
-20.3275

>  <SCORE.INTER.norm>
-2.30916

>  <SCORE.INTRA>
0

>  <SCORE.INTRA.DIHEDRAL>
0

>  <SCORE.INTRA.DIHEDRAL.0>
0

>  <SCORE.INTRA.POLAR>
0

>  <SCORE.INTRA.POLAR.0>
0

>  <SCORE.INTRA.REPUL>
0

>  <SCORE.INTRA.REPUL.0>
0

>  <SCORE.INTRA.SOLV>
0

>  <SCORE.INTRA.SOLV.lig_0>
-4.1818

>  <SCORE.INTRA.VDW>
0

>  <SCORE.INTRA.VDW.0>
0

>  <SCORE.INTRA.norm>
0

>  <SCORE.RESTR>
0.000109501

>  <SCORE.RESTR.CAVITY>
0.000109501

>  <SCORE.RESTR.norm>
1.09501e-05

>  <SCORE.SYSTEM>
0

>  <SCORE.SYSTEM.CONST>
0

>  <SCORE.SYSTEM.DIHEDRAL>
0

>  <SCORE.SYSTEM.SOLV>
0

>  <SCORE.SYSTEM.norm>
0

>  <SCORE.heavy>
10

>  <SCORE.norm>
-2.30915

>  <RMSD>
3.942

$$$$
ligand
 OpenBabel11021811503D
libRbt.so/2013.1/901 2013/11/27
 10 11  0  0  0  0  0  0  0  0999 V2000
   16.8967   -0.6525    3.1203 N   0  0  0  0  0  0  0  0  0  0  0  0
   18.0613   -0.6459    2.4991 C   0  0  0  0  0  0  0  0  0  0  0  0
   18.7218   -1.8580    2.2721 N   0  0  0  0  0  0  0  0  0  0  0  0
   18.1766   -3.0057    2.6986 C   0  0  0  0  0  0  0  0  0  0  0  0
   17.0049   -3.0054    3.3298 C   0  0  0  0  0  0  0  0  0  0  0  0
   16.3468   -1.8681    3.5415 C   0  0  0  0  0  0  0  0  0  0  0  0
   15.2511   -1.8726    4.1001 O   0  0  0  0  0  0  0  0  0  0  0  0
   16.7439   -4.2554    3.7020 N   0  0  0  0  0  0  0  0  0  0  0  0
   17.7471   -5.0286    3.2985 C   0  0  0  0  0  0  0  0  0  0  0  0
   18.6286   -4.2552    2.6712 N   0  0  0  0  0  0  0  0  0  0  0  0
  1  2  1  0  0  0  0
  1  6  1  0  0  0  0
  2  3  2  0  0  0  0
  3  4  1  0  0  0  0
  4  5  2  0  0  0  0
  4 10  1  0  0  0  0
  5  6  1  0  0  0  0
  5  8  1  0  0  0  0
  6  7  2  0  0  0  0
  8  9  1  0  0  0  0
  9 10  2  0  0  0  0
M  END
>  <CHROM.1>
17.31782272,-2.62809837,3.14183096,-1.97055552,-0.48146577,3.00029734

>  <Name>
ligand

>  <RI>
0

>  <Rbt.Current_Directory>
/home/itssahil/PROJECTS/Mol_Feturizer/New_Systems/rnas/4NYD

>  <Rbt.Executable>
rbdock ($Id: //depot/dev/client3/rdock/2013.1/src/exe/rbdock.cxx#4 $)

>  <Rbt.Library>
libRbt.so (2013.1, Build901 2013/11/27)

>  <Rbt.Parameter_File>
/export/apps/rDock/src/rDock_2013.1_src/data/scripts/dock_solv.prm

>  <Rbt.Receptor>
prm/blind_docking_100.prm

>  <SCORE>
-23.084

>  <SCORE.INTER>
-23.0841

>  <SCORE.INTER.CONST>
1

>  <SCORE.INTER.POLAR>
0

>  <SCORE.INTER.ROT>
0

>  <SCORE.INTER.SOLV>
3.99365

>  <SCORE.INTER.VDW>
-20.3206

>  <SCORE.INTER.norm>
-2.30841

>  <SCORE.INTRA>
0

>  <SCORE.INTRA.DIHEDRAL>
0

>  <SCORE.INTRA.DIHEDRAL.0>
0

>  <SCORE.INTRA.POLAR>
0

>  <SCORE.INTRA.POLAR.0>
0

>  <SCORE.INTRA.REPUL>
0

>  <SCORE.INTRA.REPUL.0>
0

>  <SCORE.INTRA.SOLV>
0

>  <SCORE.INTRA.SOLV.lig_0>
-4.1818

>  <SCORE.INTRA.VDW>
0

>  <SCORE.INTRA.VDW.0>
0

>  <SCORE.INTRA.norm>
0

>  <SCORE.RESTR>
0.000114911

>  <SCORE.RESTR.CAVITY>
0.000114911

>  <SCORE.RESTR.norm>
1.14911e-05

>  <SCORE.SYSTEM>
0

>  <SCORE.SYSTEM.CONST>
0

>  <SCORE.SYSTEM.DIHEDRAL>
0

>  <SCORE.SYSTEM.SOLV>
0

>  <SCORE.SYSTEM.norm>
0

>  <SCORE.heavy>
10

>  <SCORE.norm>
-2.3084

>  <RMSD>
3.942

$$$$
ligand
 OpenBabel11021811503D
libRbt.so/2013.1/901 2013/11/27
 10 11  0  0  0  0  0  0  0  0999 V2000
   16.8997   -0.6541    3.1318 N   0  0  0  0  0  0  0  0  0  0  0  0
   18.0675   -0.6433    2.5165 C   0  0  0  0  0  0  0  0  0  0  0  0
   18.7319   -1.8534    2.2900 N   0  0  0  0  0  0  0  0  0  0  0  0
   18.1873   -3.0033    2.7109 C   0  0  0  0  0  0  0  0  0  0  0  0
   17.0123   -3.0072    3.3362 C   0  0  0  0  0  0  0  0  0  0  0  0
   16.3505   -1.8719    3.5473 C   0  0  0  0  0  0  0  0  0  0  0  0
   15.2520   -1.8803    4.1003 O   0  0  0  0  0  0  0  0  0  0  0  0
   16.7524   -4.2587    3.7041 N   0  0  0  0  0  0  0  0  0  0  0  0
   17.7594   -5.0287    3.3039 C   0  0  0  0  0  0  0  0  0  0  0  0
   18.6423   -4.2517    2.6828 N   0  0  0  0  0  0  0  0  0  0  0  0
  1  2  1  0  0  0  0
  1  6  1  0  0  0  0
  2  3  2  0  0  0  0
  3  4  1  0  0  0  0
  4  5  2  0  0  0  0
  4 10  1  0  0  0  0
  5  6  1  0  0  0  0
  5  8  1  0  0  0  0
  6  7  2  0  0  0  0
  8  9  1  0  0  0  0
  9 10  2  0  0  0  0
M  END
>  <CHROM.1>
17.32533818,-2.62875618,3.15072201,-1.97233158,-0.47612961,3.00186614

>  <Name>
ligand

>  <RI>
0

>  <Rbt.Current_Directory>
/home/itssahil/PROJECTS/Mol_Feturizer/New_Systems/rnas/4NYD

>  <Rbt.Executable>
rbdock ($Id: //depot/dev/client3/rdock/2013.1/src/exe/rbdock.cxx#4 $)

>  <Rbt.Library>
libRbt.so (2013.1, Build901 2013/11/27)

>  <Rbt.Parameter_File>
/export/apps/rDock/src/rDock_2013.1_src/data/scripts/dock_solv.prm

>  <Rbt.Receptor>
prm/blind_docking_60.prm

>  <SCORE>
-23.0936

>  <SCORE.INTER>
-23.0939

>  <SCORE.INTER.CONST>
1

>  <SCORE.INTER.POLAR>
0

>  <SCORE.INTER.ROT>
0

>  <SCORE.INTER.SOLV>
4.00252

>  <SCORE.INTER.VDW>
-20.3301

>  <SCORE.INTER.norm>
-2.30939

>  <SCORE.INTRA>
0

>  <SCORE.INTRA.DIHEDRAL>
0

>  <SCORE.INTRA.DIHEDRAL.0>
0

>  <SCORE.INTRA.POLAR>
0

>  <SCORE.INTRA.POLAR.0>
0

>  <SCORE.INTRA.REPUL>
0

>  <SCORE.INTRA.REPUL.0>
0

>  <SCORE.INTRA.SOLV>
0

>  <SCORE.INTRA.SOLV.lig_0>
-4.1818

>  <SCORE.INTRA.VDW>
0

>  <SCORE.INTRA.VDW.0>
0

>  <SCORE.INTRA.norm>
0

>  <SCORE.RESTR>
0.000320746

>  <SCORE.RESTR.CAVITY>
0.000320746

>  <SCORE.RESTR.norm>
3.20746e-05

>  <SCORE.SYSTEM>
0

>  <SCORE.SYSTEM.CONST>
0

>  <SCORE.SYSTEM.DIHEDRAL>
0

>  <SCORE.SYSTEM.SOLV>
0

>  <SCORE.SYSTEM.norm>
0

>  <SCORE.heavy>
10

>  <SCORE.norm>
-2.30936

>  <RMSD>
3.942

$$$$
ligand
 OpenBabel11021811503D
libRbt.so/2013.1/901 2013/11/27
 10 11  0  0  0  0  0  0  0  0999 V2000
   16.8799   -0.6448    3.0864 N   0  0  0  0  0  0  0  0  0  0  0  0
   18.0371   -0.6448    2.4515 C   0  0  0  0  0  0  0  0  0  0  0  0
   18.6958   -1.8591    2.2311 N   0  0  0  0  0  0  0  0  0  0  0  0
   18.1566   -3.0020    2.6776 C   0  0  0  0  0  0  0  0  0  0  0  0
   16.9924   -2.9949    3.3225 C   0  0  0  0  0  0  0  0  0  0  0  0
   16.3360   -1.8556    3.5286 C   0  0  0  0  0  0  0  0  0  0  0  0
   15.2469   -1.8541    4.1001 O   0  0  0  0  0  0  0  0  0  0  0  0
   16.7368   -4.2406    3.7127 N   0  0  0  0  0  0  0  0  0  0  0  0
   17.7357   -5.0179    3.3066 C   0  0  0  0  0  0  0  0  0  0  0  0
   18.6092   -4.2514    2.6597 N   0  0  0  0  0  0  0  0  0  0  0  0
  1  2  1  0  0  0  0
  1  6  1  0  0  0  0
  2  3  2  0  0  0  0
  3  4  1  0  0  0  0
  4  5  2  0  0  0  0
  4 10  1  0  0  0  0
  5  6  1  0  0  0  0
  5  8  1  0  0  0  0
  6  7  2  0  0  0  0
  8  9  1  0  0  0  0
  9 10  2  0  0  0  0
M  END
>  <CHROM.1>
17.30277642,-2.61968631,3.12644508,-1.97329679,-0.49306318,2.98712390

>  <Name>
ligand

>  <RI>
0

>  <Rbt.Current_Directory>
/home/itssahil/PROJECTS/Mol_Feturizer/New_Systems/rnas/4NYD

>  <Rbt.Executable>
rbdock ($Id: //depot/dev/client3/rdock/2013.1/src/exe/rbdock.cxx#4 $)

>  <Rbt.Library>
libRbt.so (2013.1, Build901 2013/11/27)

>  <Rbt.Parameter_File>
/export/apps/rDock/src/rDock_2013.1_src/data/scripts/dock_solv.prm

>  <Rbt.Receptor>
prm/blind_docking_60.prm

>  <SCORE>
-23.0768

>  <SCORE.INTER>
-23.0768

>  <SCORE.INTER.CONST>
1

>  <SCORE.INTER.POLAR>
0

>  <SCORE.INTER.ROT>
0

>  <SCORE.INTER.SOLV>
3.96993

>  <SCORE.INTER.VDW>
-20.3079

>  <SCORE.INTER.norm>
-2.30768

>  <SCORE.INTRA>
0

>  <SCORE.INTRA.DIHEDRAL>
0

>  <SCORE.INTRA.DIHEDRAL.0>
0

>  <SCORE.INTRA.POLAR>
0

>  <SCORE.INTRA.POLAR.0>
0

>  <SCORE.INTRA.REPUL>
0

>  <SCORE.INTRA.REPUL.0>
0

>  <SCORE.INTRA.SOLV>
0

>  <SCORE.INTRA.SOLV.lig_0>
-4.1818

>  <SCORE.INTRA.VDW>
0

>  <SCORE.INTRA.VDW.0>
0

>  <SCORE.INTRA.norm>
0

>  <SCORE.RESTR>
6.71888e-05

>  <SCORE.RESTR.CAVITY>
6.71888e-05

>  <SCORE.RESTR.norm>
6.71888e-06

>  <SCORE.SYSTEM>
0

>  <SCORE.SYSTEM.CONST>
0

>  <SCORE.SYSTEM.DIHEDRAL>
0

>  <SCORE.SYSTEM.SOLV>
0

>  <SCORE.SYSTEM.norm>
0

>  <SCORE.heavy>
10

>  <SCORE.norm>
-2.30768

>  <RMSD>
3.944

$$$$
ligand
 OpenBabel11021811503D
libRbt.so/2013.1/901 2013/11/27
 10 11  0  0  0  0  0  0  0  0999 V2000
   16.9129   -0.6571    3.1657 N   0  0  0  0  0  0  0  0  0  0  0  0
   18.0866   -0.6525    2.5619 C   0  0  0  0  0  0  0  0  0  0  0  0
   18.7381   -1.8675    2.3247 N   0  0  0  0  0  0  0  0  0  0  0  0
   18.1750   -3.0163    2.7242 C   0  0  0  0  0  0  0  0  0  0  0  0
   16.9941   -3.0140    3.3380 C   0  0  0  0  0  0  0  0  0  0  0  0
   16.3445   -1.8736    3.5588 C   0  0  0  0  0  0  0  0  0  0  0  0
   15.2406   -1.8757    4.1010 O   0  0  0  0  0  0  0  0  0  0  0  0
   16.7149   -4.2672    3.6858 N   0  0  0  0  0  0  0  0  0  0  0  0
   17.7161   -5.0442    3.2845 C   0  0  0  0  0  0  0  0  0  0  0  0
   18.6147   -4.2698    2.6830 N   0  0  0  0  0  0  0  0  0  0  0  0
  1  2  1  0  0  0  0
  1  6  1  0  0  0  0
  2  3  2  0  0  0  0
  3  4  1  0  0  0  0
  4  5  2  0  0  0  0
  4 10  1  0  0  0  0
  5  6  1  0  0  0  0
  5  8  1  0  0  0  0
  6  7  2  0  0  0  0
  8  9  1  0  0  0  0
  9 10  2  0  0  0  0
M  END
>  <CHROM.1>
17.31357198,-2.63703908,3.16094154,-1.95694806,-0.46813650,3.02285491

>  <Name>
ligand

>  <RI>
0

>  <Rbt.Current_Directory>
/home/itssahil/PROJECTS/Mol_Feturizer/New_Systems/rnas/4NYD

>  <Rbt.Executable>
rbdock ($Id: //depot/dev/client3/rdock/2013.1/src/exe/rbdock.cxx#4 $)

>  <Rbt.Library>
libRbt.so (2013.1, Build901 2013/11/27)

>  <Rbt.Parameter_File>
/export/apps/rDock/src/rDock_2013.1_src/data/scripts/dock_solv.prm

>  <Rbt.Receptor>
prm/blind_docking_60.prm

>  <SCORE>
-23.0671

>  <SCORE.INTER>
-23.0681

>  <SCORE.INTER.CONST>
1

>  <SCORE.INTER.POLAR>
0

>  <SCORE.INTER.ROT>
0

>  <SCORE.INTER.SOLV>
4.03096

>  <SCORE.INTER.VDW>
-20.3224

>  <SCORE.INTER.norm>
-2.30681

>  <SCORE.INTRA>
0

>  <SCORE.INTRA.DIHEDRAL>
0

>  <SCORE.INTRA.DIHEDRAL.0>
0

>  <SCORE.INTRA.POLAR>
0

>  <SCORE.INTRA.POLAR.0>
0

>  <SCORE.INTRA.REPUL>
0

>  <SCORE.INTRA.REPUL.0>
0

>  <SCORE.INTRA.SOLV>
0

>  <SCORE.INTRA.SOLV.lig_0>
-4.1818

>  <SCORE.INTRA.VDW>
0

>  <SCORE.INTRA.VDW.0>
0

>  <SCORE.INTRA.norm>
0

>  <SCORE.RESTR>
0.00100918

>  <SCORE.RESTR.CAVITY>
0.00100918

>  <SCORE.RESTR.norm>
0.000100918

>  <SCORE.SYSTEM>
0

>  <SCORE.SYSTEM.CONST>
0

>  <SCORE.SYSTEM.DIHEDRAL>
0

>  <SCORE.SYSTEM.SOLV>
0

>  <SCORE.SYSTEM.norm>
0

>  <SCORE.heavy>
10

>  <SCORE.norm>
-2.30671

>  <RMSD>
3.945

$$$$
ligand
 OpenBabel11021811503D
libRbt.so/2013.1/901 2013/11/27
 10 11  0  0  0  0  0  0  0  0999 V2000
   16.9152   -0.6454    3.1733 N   0  0  0  0  0  0  0  0  0  0  0  0
   18.0916   -0.6316    2.5747 C   0  0  0  0  0  0  0  0  0  0  0  0
   18.7533   -1.8416    2.3402 N   0  0  0  0  0  0  0  0  0  0  0  0
   18.1972   -2.9947    2.7368 C   0  0  0  0  0  0  0  0  0  0  0  0
   17.0136   -3.0017    3.3453 C   0  0  0  0  0  0  0  0  0  0  0  0
   16.3543   -1.8663    3.5634 C   0  0  0  0  0  0  0  0  0  0  0  0
   15.2480   -1.8770    4.1007 O   0  0  0  0  0  0  0  0  0  0  0  0
   16.7424   -4.2570    3.6915 N   0  0  0  0  0  0  0  0  0  0  0  0
   17.7513   -5.0262    3.2944 C   0  0  0  0  0  0  0  0  0  0  0  0
   18.6466   -4.2448    2.6971 N   0  0  0  0  0  0  0  0  0  0  0  0
  1  2  1  0  0  0  0
  1  6  1  0  0  0  0
  2  3  2  0  0  0  0
  3  4  1  0  0  0  0
  4  5  2  0  0  0  0
  4 10  1  0  0  0  0
  5  6  1  0  0  0  0
  5  8  1  0  0  0  0
  6  7  2  0  0  0  0
  8  9  1  0  0  0  0
  9 10  2  0  0  0  0
M  END
>  <CHROM.1>
17.33098310,-2.62220360,3.16974864,-1.96481673,-0.46277180,3.01963166

>  <Name>
ligand

>  <RI>
0

>  <Rbt.Current_Directory>
/home/itssahil/PROJECTS/Mol_Feturizer/New_Systems/rnas/4NYD

>  <Rbt.Executable>
rbdock ($Id: //depot/dev/client3/rdock/2013.1/src/exe/rbdock.cxx#4 $)

>  <Rbt.Library>
libRbt.so (2013.1, Build901 2013/11/27)

>  <Rbt.Parameter_File>
/export/apps/rDock/src/rDock_2013.1_src/data/scripts/dock_solv.prm

>  <Rbt.Receptor>
prm/blind_docking_80.prm

>  <SCORE>
-23.0637

>  <SCORE.INTER>
-23.0645

>  <SCORE.INTER.CONST>
1

>  <SCORE.INTER.POLAR>
0

>  <SCORE.INTER.ROT>
0

>  <SCORE.INTER.SOLV>
4.04225

>  <SCORE.INTER.VDW>
-20.3237

>  <SCORE.INTER.norm>
-2.30645

>  <SCORE.INTRA>
0

>  <SCORE.INTRA.DIHEDRAL>
0

>  <SCORE.INTRA.DIHEDRAL.0>
0

>  <SCORE.INTRA.POLAR>
0

>  <SCORE.INTRA.POLAR.0>
0

>  <SCORE.INTRA.REPUL>
0

>  <SCORE.INTRA.REPUL.0>
0

>  <SCORE.INTRA.SOLV>
0

>  <SCORE.INTRA.SOLV.lig_0>
-4.1818

>  <SCORE.INTRA.VDW>
0

>  <SCORE.INTRA.VDW.0>
0

>  <SCORE.INTRA.norm>
0

>  <SCORE.RESTR>
0.000735753

>  <SCORE.RESTR.CAVITY>
0.000735753

>  <SCORE.RESTR.norm>
7.35753e-05

>  <SCORE.SYSTEM>
0

>  <SCORE.SYSTEM.CONST>
0

>  <SCORE.SYSTEM.DIHEDRAL>
0

>  <SCORE.SYSTEM.SOLV>
0

>  <SCORE.SYSTEM.norm>
0

>  <SCORE.heavy>
10

>  <SCORE.norm>
-2.30637

>  <RMSD>
3.945

$$$$
ligand
 OpenBabel11021811503D
libRbt.so/2013.1/901 2013/11/27
 10 11  0  0  0  0  0  0  0  0999 V2000
   16.8817   -0.6587    3.1032 N   0  0  0  0  0  0  0  0  0  0  0  0
   18.0478   -0.6752    2.4850 C   0  0  0  0  0  0  0  0  0  0  0  0
   18.7014   -1.8967    2.2912 N   0  0  0  0  0  0  0  0  0  0  0  0
   18.1483   -3.0297    2.7458 C   0  0  0  0  0  0  0  0  0  0  0  0
   16.9751   -3.0060    3.3738 C   0  0  0  0  0  0  0  0  0  0  0  0
   16.3234   -1.8596    3.5544 C   0  0  0  0  0  0  0  0  0  0  0  0
   15.2263   -1.8430    4.1101 O   0  0  0  0  0  0  0  0  0  0  0  0
   16.7056   -4.2444    3.7776 N   0  0  0  0  0  0  0  0  0  0  0  0
   17.7050   -5.0338    3.3968 C   0  0  0  0  0  0  0  0  0  0  0  0
   18.5927   -4.2821    2.7519 N   0  0  0  0  0  0  0  0  0  0  0  0
  1  2  1  0  0  0  0
  1  6  1  0  0  0  0
  2  3  2  0  0  0  0
  3  4  1  0  0  0  0
  4  5  2  0  0  0  0
  4 10  1  0  0  0  0
  5  6  1  0  0  0  0
  5  8  1  0  0  0  0
  6  7  2  0  0  0  0
  8  9  1  0  0  0  0
  9 10  2  0  0  0  0
M  END
>  <CHROM.1>
17.29073140,-2.63558020,3.17693337,-1.96338624,-0.47994782,2.97771454

>  <Name>
ligand

>  <RI>
0

>  <Rbt.Current_Directory>
/home/itssahil/PROJECTS/Mol_Feturizer/New_Systems/rnas/4NYD

>  <Rbt.Executable>
rbdock ($Id: //depot/dev/client3/rdock/2013.1/src/exe/rbdock.cxx#4 $)

>  <Rbt.Library>
libRbt.so (2013.1, Build901 2013/11/27)

>  <Rbt.Parameter_File>
/export/apps/rDock/src/rDock_2013.1_src/data/scripts/dock_solv.prm

>  <Rbt.Receptor>
prm/blind_docking_60.prm

>  <SCORE>
-23.0857

>  <SCORE.INTER>
-23.0958

>  <SCORE.INTER.CONST>
1

>  <SCORE.INTER.POLAR>
0

>  <SCORE.INTER.ROT>
0

>  <SCORE.INTER.SOLV>
4.01942

>  <SCORE.INTER.VDW>
-20.337

>  <SCORE.INTER.norm>
-2.30958

>  <SCORE.INTRA>
0

>  <SCORE.INTRA.DIHEDRAL>
0

>  <SCORE.INTRA.DIHEDRAL.0>
0

>  <SCORE.INTRA.POLAR>
0

>  <SCORE.INTRA.POLAR.0>
0

>  <SCORE.INTRA.REPUL>
0

>  <SCORE.INTRA.REPUL.0>
0

>  <SCORE.INTRA.SOLV>
0

>  <SCORE.INTRA.SOLV.lig_0>
-4.1818

>  <SCORE.INTRA.VDW>
0

>  <SCORE.INTRA.VDW.0>
0

>  <SCORE.INTRA.norm>
0

>  <SCORE.RESTR>
0.0100751

>  <SCORE.RESTR.CAVITY>
0.0100751

>  <SCORE.RESTR.norm>
0.00100751

>  <SCORE.SYSTEM>
0

>  <SCORE.SYSTEM.CONST>
0

>  <SCORE.SYSTEM.DIHEDRAL>
0

>  <SCORE.SYSTEM.SOLV>
0

>  <SCORE.SYSTEM.norm>
0

>  <SCORE.heavy>
10

>  <SCORE.norm>
-2.30857

>  <RMSD>
3.948

$$$$
ligand
 OpenBabel11021811503D
libRbt.so/2013.1/901 2013/11/27
 10 11  0  0  0  0  0  0  0  0999 V2000
   16.8824   -0.6619    3.1110 N   0  0  0  0  0  0  0  0  0  0  0  0
   18.0525   -0.6773    2.5004 C   0  0  0  0  0  0  0  0  0  0  0  0
   18.7088   -1.8982    2.3113 N   0  0  0  0  0  0  0  0  0  0  0  0
   18.1540   -3.0315    2.7630 C   0  0  0  0  0  0  0  0  0  0  0  0
   16.9768   -3.0089    3.3834 C   0  0  0  0  0  0  0  0  0  0  0  0
   16.3226   -1.8632    3.5592 C   0  0  0  0  0  0  0  0  0  0  0  0
   15.2220   -1.8476    4.1078 O   0  0  0  0  0  0  0  0  0  0  0  0
   16.7061   -4.2474    3.7861 N   0  0  0  0  0  0  0  0  0  0  0  0
   17.7089   -5.0359    3.4122 C   0  0  0  0  0  0  0  0  0  0  0  0
   18.5999   -4.2835    2.7726 N   0  0  0  0  0  0  0  0  0  0  0  0
  1  2  1  0  0  0  0
  1  6  1  0  0  0  0
  2  3  2  0  0  0  0
  3  4  1  0  0  0  0
  4  5  2  0  0  0  0
  4 10  1  0  0  0  0
  5  6  1  0  0  0  0
  5  8  1  0  0  0  0
  6  7  2  0  0  0  0
  8  9  1  0  0  0  0
  9 10  2  0  0  0  0
M  END
>  <CHROM.1>
17.29325987,-2.63821602,3.18839469,-1.96347822,-0.47340338,2.97716079

>  <Name>
ligand

>  <RI>
0

>  <Rbt.Current_Directory>
/home/itssahil/PROJECTS/Mol_Feturizer/New_Systems/rnas/4NYD

>  <Rbt.Executable>
rbdock ($Id: //depot/dev/client3/rdock/2013.1/src/exe/rbdock.cxx#4 $)

>  <Rbt.Library>
libRbt.so (2013.1, Build901 2013/11/27)

>  <Rbt.Parameter_File>
/export/apps/rDock/src/rDock_2013.1_src/data/scripts/dock_solv.prm

>  <Rbt.Receptor>
prm/pocket_docking_8.prm

>  <SCORE>
-23.044

>  <SCORE.INTER>
-23.0518

>  <SCORE.INTER.CONST>
1

>  <SCORE.INTER.POLAR>
0

>  <SCORE.INTER.ROT>
0

>  <SCORE.INTER.SOLV>
4.0311

>  <SCORE.INTER.VDW>
-20.3116

>  <SCORE.INTER.norm>
-2.30518

>  <SCORE.INTRA>
0

>  <SCORE.INTRA.DIHEDRAL>
0

>  <SCORE.INTRA.DIHEDRAL.0>
0

>  <SCORE.INTRA.POLAR>
0

>  <SCORE.INTRA.POLAR.0>
0

>  <SCORE.INTRA.REPUL>
0

>  <SCORE.INTRA.REPUL.0>
0

>  <SCORE.INTRA.SOLV>
0

>  <SCORE.INTRA.SOLV.lig_0>
-4.1818

>  <SCORE.INTRA.VDW>
0

>  <SCORE.INTRA.VDW.0>
0

>  <SCORE.INTRA.norm>
0

>  <SCORE.RESTR>
0.00780806

>  <SCORE.RESTR.CAVITY>
0.00780806

>  <SCORE.RESTR.norm>
0.000780806

>  <SCORE.SYSTEM>
0

>  <SCORE.SYSTEM.CONST>
0

>  <SCORE.SYSTEM.DIHEDRAL>
0

>  <SCORE.SYSTEM.SOLV>
0

>  <SCORE.SYSTEM.norm>
0

>  <SCORE.heavy>
10

>  <SCORE.norm>
-2.3044

>  <RMSD>
3.948

$$$$
ligand
 OpenBabel11021811503D
libRbt.so/2013.1/901 2013/11/27
 10 11  0  0  0  0  0  0  0  0999 V2000
   16.8566   -0.6663    3.0693 N   0  0  0  0  0  0  0  0  0  0  0  0
   18.0177   -0.6841    2.4416 C   0  0  0  0  0  0  0  0  0  0  0  0
   18.6753   -1.9046    2.2553 N   0  0  0  0  0  0  0  0  0  0  0  0
   18.1312   -3.0351    2.7266 C   0  0  0  0  0  0  0  0  0  0  0  0
   16.9632   -3.0100    3.3641 C   0  0  0  0  0  0  0  0  0  0  0  0
   16.3077   -1.8648    3.5379 C   0  0  0  0  0  0  0  0  0  0  0  0
   15.2152   -1.8472    4.1026 O   0  0  0  0  0  0  0  0  0  0  0  0
   16.7028   -4.2452    3.7834 N   0  0  0  0  0  0  0  0  0  0  0  0
   17.7027   -5.0341    3.4027 C   0  0  0  0  0  0  0  0  0  0  0  0
   18.5815   -4.2854    2.7424 N   0  0  0  0  0  0  0  0  0  0  0  0
  1  2  1  0  0  0  0
  1  6  1  0  0  0  0
  2  3  2  0  0  0  0
  3  4  1  0  0  0  0
  4  5  2  0  0  0  0
  4 10  1  0  0  0  0
  5  6  1  0  0  0  0
  5  8  1  0  0  0  0
  6  7  2  0  0  0  0
  8  9  1  0  0  0  0
  9 10  2  0  0  0  0
M  END
>  <CHROM.1>
17.27547876,-2.64032005,3.16071212,-1.97010653,-0.48737856,2.96388909

>  <Name>
ligand

>  <RI>
0

>  <Rbt.Current_Directory>
/home/itssahil/PROJECTS/Mol_Feturizer/New_Systems/rnas/4NYD

>  <Rbt.Executable>
rbdock ($Id: //depot/dev/client3/rdock/2013.1/src/exe/rbdock.cxx#4 $)

>  <Rbt.Library>
libRbt.so (2013.1, Build901 2013/11/27)

>  <Rbt.Parameter_File>
/export/apps/rDock/src/rDock_2013.1_src/data/scripts/dock_solv.prm

>  <Rbt.Receptor>
prm/blind_docking_60.prm

>  <SCORE>
-23.0677

>  <SCORE.INTER>
-23.0703

>  <SCORE.INTER.CONST>
1

>  <SCORE.INTER.POLAR>
0

>  <SCORE.INTER.ROT>
0

>  <SCORE.INTER.SOLV>
3.99224

>  <SCORE.INTER.VDW>
-20.3109

>  <SCORE.INTER.norm>
-2.30703

>  <SCORE.INTRA>
0

>  <SCORE.INTRA.DIHEDRAL>
0

>  <SCORE.INTRA.DIHEDRAL.0>
0

>  <SCORE.INTRA.POLAR>
0

>  <SCORE.INTRA.POLAR.0>
0

>  <SCORE.INTRA.REPUL>
0

>  <SCORE.INTRA.REPUL.0>
0

>  <SCORE.INTRA.SOLV>
0

>  <SCORE.INTRA.SOLV.lig_0>
-4.1818

>  <SCORE.INTRA.VDW>
0

>  <SCORE.INTRA.VDW.0>
0

>  <SCORE.INTRA.norm>
0

>  <SCORE.RESTR>
0.00255795

>  <SCORE.RESTR.CAVITY>
0.00255795

>  <SCORE.RESTR.norm>
0.000255795

>  <SCORE.SYSTEM>
0

>  <SCORE.SYSTEM.CONST>
0

>  <SCORE.SYSTEM.DIHEDRAL>
0

>  <SCORE.SYSTEM.SOLV>
0

>  <SCORE.SYSTEM.norm>
0

>  <SCORE.heavy>
10

>  <SCORE.norm>
-2.30677

>  <RMSD>
3.950

$$$$
ligand
 OpenBabel11021811503D
libRbt.so/2013.1/901 2013/11/27
 10 11  0  0  0  0  0  0  0  0999 V2000
   16.9114   -0.6470    3.2074 N   0  0  0  0  0  0  0  0  0  0  0  0
   18.0956   -0.6395    2.6244 C   0  0  0  0  0  0  0  0  0  0  0  0
   18.7473   -1.8540    2.3852 N   0  0  0  0  0  0  0  0  0  0  0  0
   18.1737   -3.0052    2.7619 C   0  0  0  0  0  0  0  0  0  0  0  0
   16.9822   -3.0059    3.3548 C   0  0  0  0  0  0  0  0  0  0  0  0
   16.3324   -1.8658    3.5768 C   0  0  0  0  0  0  0  0  0  0  0  0
   15.2191   -1.8703    4.0995 O   0  0  0  0  0  0  0  0  0  0  0  0
   16.6930   -4.2619    3.6836 N   0  0  0  0  0  0  0  0  0  0  0  0
   17.6986   -5.0377    3.2913 C   0  0  0  0  0  0  0  0  0  0  0  0
   18.6101   -4.2597    2.7143 N   0  0  0  0  0  0  0  0  0  0  0  0
  1  2  1  0  0  0  0
  1  6  1  0  0  0  0
  2  3  2  0  0  0  0
  3  4  1  0  0  0  0
  4  5  2  0  0  0  0
  4 10  1  0  0  0  0
  5  6  1  0  0  0  0
  5  8  1  0  0  0  0
  6  7  2  0  0  0  0
  8  9  1  0  0  0  0
  9 10  2  0  0  0  0
M  END
>  <CHROM.1>
17.30592408,-2.62802730,3.18757555,-1.95116557,-0.45099073,3.03658396

>  <Name>
ligand

>  <RI>
0

>  <Rbt.Current_Directory>
/home/itssahil/PROJECTS/Mol_Feturizer/New_Systems/rnas/4NYD

>  <Rbt.Executable>
rbdock ($Id: //depot/dev/client3/rdock/2013.1/src/exe/rbdock.cxx#4 $)

>  <Rbt.Library>
libRbt.so (2013.1, Build901 2013/11/27)

>  <Rbt.Parameter_File>
/export/apps/rDock/src/rDock_2013.1_src/data/scripts/dock_solv.prm

>  <Rbt.Receptor>
prm/pocket_docking_7.prm

>  <SCORE>
-23.0324

>  <SCORE.INTER>
-23.0324

>  <SCORE.INTER.CONST>
1

>  <SCORE.INTER.POLAR>
0

>  <SCORE.INTER.ROT>
0

>  <SCORE.INTER.SOLV>
4.07719

>  <SCORE.INTER.VDW>
-20.314

>  <SCORE.INTER.norm>
-2.30324

>  <SCORE.INTRA>
0

>  <SCORE.INTRA.DIHEDRAL>
0

>  <SCORE.INTRA.DIHEDRAL.0>
0

>  <SCORE.INTRA.POLAR>
0

>  <SCORE.INTRA.POLAR.0>
0

>  <SCORE.INTRA.REPUL>
0

>  <SCORE.INTRA.REPUL.0>
0

>  <SCORE.INTRA.SOLV>
0

>  <SCORE.INTRA.SOLV.lig_0>
-4.1818

>  <SCORE.INTRA.VDW>
0

>  <SCORE.INTRA.VDW.0>
0

>  <SCORE.INTRA.norm>
0

>  <SCORE.RESTR>
0

>  <SCORE.RESTR.CAVITY>
0

>  <SCORE.RESTR.norm>
0

>  <SCORE.SYSTEM>
0

>  <SCORE.SYSTEM.CONST>
0

>  <SCORE.SYSTEM.DIHEDRAL>
0

>  <SCORE.SYSTEM.SOLV>
0

>  <SCORE.SYSTEM.norm>
0

>  <SCORE.heavy>
10

>  <SCORE.norm>
-2.30324

>  <RMSD>
3.955

$$$$
ligand
 OpenBabel11021811503D
libRbt.so/2013.1/901 2013/11/27
 10 11  0  0  0  0  0  0  0  0999 V2000
   16.8755   -0.6400    3.1205 N   0  0  0  0  0  0  0  0  0  0  0  0
   18.0472   -0.6512    2.5127 C   0  0  0  0  0  0  0  0  0  0  0  0
   18.7018   -1.8712    2.3128 N   0  0  0  0  0  0  0  0  0  0  0  0
   18.1440   -3.0081    2.7514 C   0  0  0  0  0  0  0  0  0  0  0  0
   16.9652   -2.9898    3.3690 C   0  0  0  0  0  0  0  0  0  0  0  0
   16.3126   -1.8449    3.5549 C   0  0  0  0  0  0  0  0  0  0  0  0
   15.2106   -1.8330    4.1009 O   0  0  0  0  0  0  0  0  0  0  0  0
   16.6915   -4.2319    3.7583 N   0  0  0  0  0  0  0  0  0  0  0  0
   17.6939   -5.0182    3.3789 C   0  0  0  0  0  0  0  0  0  0  0  0
   18.5877   -4.2609    2.7493 N   0  0  0  0  0  0  0  0  0  0  0  0
  1  2  1  0  0  0  0
  1  6  1  0  0  0  0
  2  3  2  0  0  0  0
  3  4  1  0  0  0  0
  4  5  2  0  0  0  0
  4 10  1  0  0  0  0
  5  6  1  0  0  0  0
  5  8  1  0  0  0  0
  6  7  2  0  0  0  0
  8  9  1  0  0  0  0
  9 10  2  0  0  0  0
M  END
>  <CHROM.1>
17.28285697,-2.61770810,3.17863771,-1.96114460,-0.47118343,2.98847523

>  <Name>
ligand

>  <RI>
0

>  <Rbt.Current_Directory>
/home/itssahil/PROJECTS/Mol_Feturizer/New_Systems/rnas/4NYD

>  <Rbt.Executable>
rbdock ($Id: //depot/dev/client3/rdock/2013.1/src/exe/rbdock.cxx#4 $)

>  <Rbt.Library>
libRbt.so (2013.1, Build901 2013/11/27)

>  <Rbt.Parameter_File>
/export/apps/rDock/src/rDock_2013.1_src/data/scripts/dock_solv.prm

>  <Rbt.Receptor>
prm/pocket_docking_8.prm

>  <SCORE>
-23.0509

>  <SCORE.INTER>
-23.0518

>  <SCORE.INTER.CONST>
1

>  <SCORE.INTER.POLAR>
0

>  <SCORE.INTER.ROT>
0

>  <SCORE.INTER.SOLV>
4.02474

>  <SCORE.INTER.VDW>
-20.3094

>  <SCORE.INTER.norm>
-2.30518

>  <SCORE.INTRA>
0

>  <SCORE.INTRA.DIHEDRAL>
0

>  <SCORE.INTRA.DIHEDRAL.0>
0

>  <SCORE.INTRA.POLAR>
0

>  <SCORE.INTRA.POLAR.0>
0

>  <SCORE.INTRA.REPUL>
0

>  <SCORE.INTRA.REPUL.0>
0

>  <SCORE.INTRA.SOLV>
0

>  <SCORE.INTRA.SOLV.lig_0>
-4.1818

>  <SCORE.INTRA.VDW>
0

>  <SCORE.INTRA.VDW.0>
0

>  <SCORE.INTRA.norm>
0

>  <SCORE.RESTR>
0.000904737

>  <SCORE.RESTR.CAVITY>
0.000904737

>  <SCORE.RESTR.norm>
9.04737e-05

>  <SCORE.SYSTEM>
0

>  <SCORE.SYSTEM.CONST>
0

>  <SCORE.SYSTEM.DIHEDRAL>
0

>  <SCORE.SYSTEM.SOLV>
0

>  <SCORE.SYSTEM.norm>
0

>  <SCORE.heavy>
10

>  <SCORE.norm>
-2.30509

>  <RMSD>
3.955

$$$$
ligand
 OpenBabel11021811503D
libRbt.so/2013.1/901 2013/11/27
 10 11  0  0  0  0  0  0  0  0999 V2000
    8.9676   -4.4717    6.7773 N   0  0  0  0  0  0  0  0  0  0  0  0
    8.6755   -5.2743    7.7837 C   0  0  0  0  0  0  0  0  0  0  0  0
    9.5327   -5.3257    8.8880 N   0  0  0  0  0  0  0  0  0  0  0  0
   10.6434   -4.5758    8.9067 C   0  0  0  0  0  0  0  0  0  0  0  0
   10.9357   -3.7730    7.8862 C   0  0  0  0  0  0  0  0  0  0  0  0
   10.1273   -3.6911    6.8321 C   0  0  0  0  0  0  0  0  0  0  0  0
   10.3846   -2.9279    5.9026 O   0  0  0  0  0  0  0  0  0  0  0  0
   12.1166   -3.2136    8.1350 N   0  0  0  0  0  0  0  0  0  0  0  0
   12.5523   -3.6636    9.3075 C   0  0  0  0  0  0  0  0  0  0  0  0
   11.6361   -4.5000    9.7870 N   0  0  0  0  0  0  0  0  0  0  0  0
  1  2  1  0  0  0  0
  1  6  1  0  0  0  0
  2  3  2  0  0  0  0
  3  4  1  0  0  0  0
  4  5  2  0  0  0  0
  4 10  1  0  0  0  0
  5  6  1  0  0  0  0
  5  8  1  0  0  0  0
  6  7  2  0  0  0  0
  8  9  1  0  0  0  0
  9 10  2  0  0  0  0
M  END
>  <CHROM.1>
10.55234861,-4.11928901,7.97935593,2.55866091,-0.51221376,-1.02105866

>  <Name>
ligand

>  <RI>
0

>  <Rbt.Current_Directory>
/home/itssahil/PROJECTS/Mol_Feturizer/New_Systems/rnas/4NYD

>  <Rbt.Executable>
rbdock ($Id: //depot/dev/client3/rdock/2013.1/src/exe/rbdock.cxx#4 $)

>  <Rbt.Library>
libRbt.so (2013.1, Build901 2013/11/27)

>  <Rbt.Parameter_File>
/export/apps/rDock/src/rDock_2013.1_src/data/scripts/dock_solv.prm

>  <Rbt.Receptor>
prm/blind_docking_20.prm

>  <SCORE>
-12.8954

>  <SCORE.INTER>
-12.8954

>  <SCORE.INTER.CONST>
1

>  <SCORE.INTER.POLAR>
0

>  <SCORE.INTER.ROT>
0

>  <SCORE.INTER.SOLV>
4.68656

>  <SCORE.INTER.VDW>
-13.7591

>  <SCORE.INTER.norm>
-1.28954

>  <SCORE.INTRA>
0

>  <SCORE.INTRA.DIHEDRAL>
0

>  <SCORE.INTRA.DIHEDRAL.0>
0

>  <SCORE.INTRA.POLAR>
0

>  <SCORE.INTRA.POLAR.0>
0

>  <SCORE.INTRA.REPUL>
0

>  <SCORE.INTRA.REPUL.0>
0

>  <SCORE.INTRA.SOLV>
0

>  <SCORE.INTRA.SOLV.lig_0>
-4.1818

>  <SCORE.INTRA.VDW>
0

>  <SCORE.INTRA.VDW.0>
0

>  <SCORE.INTRA.norm>
0

>  <SCORE.RESTR>
0

>  <SCORE.RESTR.CAVITY>
0

>  <SCORE.RESTR.norm>
0

>  <SCORE.SYSTEM>
0

>  <SCORE.SYSTEM.CONST>
0

>  <SCORE.SYSTEM.DIHEDRAL>
0

>  <SCORE.SYSTEM.SOLV>
0

>  <SCORE.SYSTEM.norm>
0

>  <SCORE.heavy>
10

>  <SCORE.norm>
-1.28954

>  <RMSD>
10.323

$$$$
ligand
 OpenBabel11021811503D
libRbt.so/2013.1/901 2013/11/27
 10 11  0  0  0  0  0  0  0  0999 V2000
    8.9201   -4.3784    6.8365 N   0  0  0  0  0  0  0  0  0  0  0  0
    8.5860   -5.1147    7.8798 C   0  0  0  0  0  0  0  0  0  0  0  0
    9.4437   -5.1649    8.9837 N   0  0  0  0  0  0  0  0  0  0  0  0
   10.5966   -4.4818    8.9653 C   0  0  0  0  0  0  0  0  0  0  0  0
   10.9309   -3.7459    7.9079 C   0  0  0  0  0  0  0  0  0  0  0  0
   10.1240   -3.6657    6.8526 C   0  0  0  0  0  0  0  0  0  0  0  0
   10.4214   -2.9631    5.8879 O   0  0  0  0  0  0  0  0  0  0  0  0
   12.1438   -3.2462    8.1281 N   0  0  0  0  0  0  0  0  0  0  0  0
   12.5577   -3.6659    9.3196 C   0  0  0  0  0  0  0  0  0  0  0  0
   11.5961   -4.4237    9.8394 N   0  0  0  0  0  0  0  0  0  0  0  0
  1  2  1  0  0  0  0
  1  6  1  0  0  0  0
  2  3  2  0  0  0  0
  3  4  1  0  0  0  0
  4  5  2  0  0  0  0
  4 10  1  0  0  0  0
  5  6  1  0  0  0  0
  5  8  1  0  0  0  0
  6  7  2  0  0  0  0
  8  9  1  0  0  0  0
  9 10  2  0  0  0  0
M  END
>  <CHROM.1>
10.52830038,-4.06434201,8.01787001,2.52872867,-0.45949291,-1.08176343

>  <Name>
ligand

>  <RI>
0

>  <Rbt.Current_Directory>
/home/itssahil/PROJECTS/Mol_Feturizer/New_Systems/rnas/4NYD

>  <Rbt.Executable>
rbdock ($Id: //depot/dev/client3/rdock/2013.1/src/exe/rbdock.cxx#4 $)

>  <Rbt.Library>
libRbt.so (2013.1, Build901 2013/11/27)

>  <Rbt.Parameter_File>
/export/apps/rDock/src/rDock_2013.1_src/data/scripts/dock_solv.prm

>  <Rbt.Receptor>
prm/blind_docking_20.prm

>  <SCORE>
-12.9115

>  <SCORE.INTER>
-12.9117

>  <SCORE.INTER.CONST>
1

>  <SCORE.INTER.POLAR>
0

>  <SCORE.INTER.ROT>
0

>  <SCORE.INTER.SOLV>
4.69732

>  <SCORE.INTER.VDW>
-13.7736

>  <SCORE.INTER.norm>
-1.29117

>  <SCORE.INTRA>
0

>  <SCORE.INTRA.DIHEDRAL>
0

>  <SCORE.INTRA.DIHEDRAL.0>
0

>  <SCORE.INTRA.POLAR>
0

>  <SCORE.INTRA.POLAR.0>
0

>  <SCORE.INTRA.REPUL>
0

>  <SCORE.INTRA.REPUL.0>
0

>  <SCORE.INTRA.SOLV>
0

>  <SCORE.INTRA.SOLV.lig_0>
-4.1818

>  <SCORE.INTRA.VDW>
0

>  <SCORE.INTRA.VDW.0>
0

>  <SCORE.INTRA.norm>
0

>  <SCORE.RESTR>
0.000241092

>  <SCORE.RESTR.CAVITY>
0.000241092

>  <SCORE.RESTR.norm>
2.41092e-05

>  <SCORE.SYSTEM>
0

>  <SCORE.SYSTEM.CONST>
0

>  <SCORE.SYSTEM.DIHEDRAL>
0

>  <SCORE.SYSTEM.SOLV>
0

>  <SCORE.SYSTEM.norm>
0

>  <SCORE.heavy>
10

>  <SCORE.norm>
-1.29115

>  <RMSD>
10.364

$$$$
ligand
 OpenBabel11021811503D
libRbt.so/2013.1/901 2013/11/27
 10 11  0  0  0  0  0  0  0  0999 V2000
    8.8657   -4.4680    6.7915 N   0  0  0  0  0  0  0  0  0  0  0  0
    8.5579   -5.2207    7.8312 C   0  0  0  0  0  0  0  0  0  0  0  0
    9.4205   -5.2516    8.9320 N   0  0  0  0  0  0  0  0  0  0  0  0
   10.5518   -4.5333    8.9143 C   0  0  0  0  0  0  0  0  0  0  0  0
   10.8598   -3.7809    7.8606 C   0  0  0  0  0  0  0  0  0  0  0  0
   10.0472   -3.7188    6.8084 C   0  0  0  0  0  0  0  0  0  0  0  0
   10.3197   -3.0013    5.8473 O   0  0  0  0  0  0  0  0  0  0  0  0
   12.0575   -3.2455    8.0802 N   0  0  0  0  0  0  0  0  0  0  0  0
   12.4881   -3.6599    9.2676 C   0  0  0  0  0  0  0  0  0  0  0  0
   11.5520   -4.4501    9.7855 N   0  0  0  0  0  0  0  0  0  0  0  0
  1  2  1  0  0  0  0
  1  6  1  0  0  0  0
  2  3  2  0  0  0  0
  3  4  1  0  0  0  0
  4  5  2  0  0  0  0
  4 10  1  0  0  0  0
  5  6  1  0  0  0  0
  5  8  1  0  0  0  0
  6  7  2  0  0  0  0
  8  9  1  0  0  0  0
  9 10  2  0  0  0  0
M  END
>  <CHROM.1>
10.46753304,-4.11217317,7.96978639,2.54838303,-0.48490631,-1.06645485

>  <Name>
ligand

>  <RI>
0

>  <Rbt.Current_Directory>
/home/itssahil/PROJECTS/Mol_Feturizer/New_Systems/rnas/4NYD

>  <Rbt.Executable>
rbdock ($Id: //depot/dev/client3/rdock/2013.1/src/exe/rbdock.cxx#4 $)

>  <Rbt.Library>
libRbt.so (2013.1, Build901 2013/11/27)

>  <Rbt.Parameter_File>
/export/apps/rDock/src/rDock_2013.1_src/data/scripts/dock_solv.prm

>  <Rbt.Receptor>
prm/blind_docking_20.prm

>  <SCORE>
-12.8917

>  <SCORE.INTER>
-12.8917

>  <SCORE.INTER.CONST>
1

>  <SCORE.INTER.POLAR>
0

>  <SCORE.INTER.ROT>
0

>  <SCORE.INTER.SOLV>
4.63998

>  <SCORE.INTER.VDW>
-13.7411

>  <SCORE.INTER.norm>
-1.28917

>  <SCORE.INTRA>
0

>  <SCORE.INTRA.DIHEDRAL>
0

>  <SCORE.INTRA.DIHEDRAL.0>
0

>  <SCORE.INTRA.POLAR>
0

>  <SCORE.INTRA.POLAR.0>
0

>  <SCORE.INTRA.REPUL>
0

>  <SCORE.INTRA.REPUL.0>
0

>  <SCORE.INTRA.SOLV>
0

>  <SCORE.INTRA.SOLV.lig_0>
-4.1818

>  <SCORE.INTRA.VDW>
0

>  <SCORE.INTRA.VDW.0>
0

>  <SCORE.INTRA.norm>
0

>  <SCORE.RESTR>
0

>  <SCORE.RESTR.CAVITY>
0

>  <SCORE.RESTR.norm>
0

>  <SCORE.SYSTEM>
0

>  <SCORE.SYSTEM.CONST>
0

>  <SCORE.SYSTEM.DIHEDRAL>
0

>  <SCORE.SYSTEM.SOLV>
0

>  <SCORE.SYSTEM.norm>
0

>  <SCORE.heavy>
10

>  <SCORE.norm>
-1.28917

>  <RMSD>
10.389

$$$$
ligand
 OpenBabel11021811503D
libRbt.so/2013.1/901 2013/11/27
 10 11  0  0  0  0  0  0  0  0999 V2000
   11.4118   -4.5052    9.6647 N   0  0  0  0  0  0  0  0  0  0  0  0
   12.2502   -3.6403    9.1248 C   0  0  0  0  0  0  0  0  0  0  0  0
   11.9498   -3.0852    7.8764 N   0  0  0  0  0  0  0  0  0  0  0  0
   10.8284   -3.4463    7.2374 C   0  0  0  0  0  0  0  0  0  0  0  0
    9.9899   -4.3234    7.7841 C   0  0  0  0  0  0  0  0  0  0  0  0
   10.2425   -4.8519    8.9792 C   0  0  0  0  0  0  0  0  0  0  0  0
    9.4528   -5.6410    9.4953 O   0  0  0  0  0  0  0  0  0  0  0  0
    9.0136   -4.5512    6.9099 N   0  0  0  0  0  0  0  0  0  0  0  0
    9.2428   -3.8142    5.8276 C   0  0  0  0  0  0  0  0  0  0  0  0
   10.3615   -3.1255    6.0351 N   0  0  0  0  0  0  0  0  0  0  0  0
  1  2  1  0  0  0  0
  1  6  1  0  0  0  0
  2  3  2  0  0  0  0
  3  4  1  0  0  0  0
  4  5  2  0  0  0  0
  4 10  1  0  0  0  0
  5  6  1  0  0  0  0
  5  8  1  0  0  0  0
  6  7  2  0  0  0  0
  8  9  1  0  0  0  0
  9 10  2  0  0  0  0
M  END
>  <CHROM.1>
10.45615473,-4.12798226,7.92537719,-1.15660991,-0.52616961,-1.06237939

>  <Name>
ligand

>  <RI>
0

>  <Rbt.Current_Directory>
/home/itssahil/PROJECTS/Mol_Feturizer/New_Systems/rnas/4NYD

>  <Rbt.Executable>
rbdock ($Id: //depot/dev/client3/rdock/2013.1/src/exe/rbdock.cxx#4 $)

>  <Rbt.Library>
libRbt.so (2013.1, Build901 2013/11/27)

>  <Rbt.Parameter_File>
/export/apps/rDock/src/rDock_2013.1_src/data/scripts/dock_solv.prm

>  <Rbt.Receptor>
prm/blind_docking_20.prm

>  <SCORE>
-15.3504

>  <SCORE.INTER>
-15.3504

>  <SCORE.INTER.CONST>
1

>  <SCORE.INTER.POLAR>
0

>  <SCORE.INTER.ROT>
0

>  <SCORE.INTER.SOLV>
2.99605

>  <SCORE.INTER.VDW>
-14.8323

>  <SCORE.INTER.norm>
-1.53504

>  <SCORE.INTRA>
0

>  <SCORE.INTRA.DIHEDRAL>
0

>  <SCORE.INTRA.DIHEDRAL.0>
0

>  <SCORE.INTRA.POLAR>
0

>  <SCORE.INTRA.POLAR.0>
0

>  <SCORE.INTRA.REPUL>
0

>  <SCORE.INTRA.REPUL.0>
0

>  <SCORE.INTRA.SOLV>
0

>  <SCORE.INTRA.SOLV.lig_0>
-4.1818

>  <SCORE.INTRA.VDW>
0

>  <SCORE.INTRA.VDW.0>
0

>  <SCORE.INTRA.norm>
0

>  <SCORE.RESTR>
0

>  <SCORE.RESTR.CAVITY>
0

>  <SCORE.RESTR.norm>
0

>  <SCORE.SYSTEM>
0

>  <SCORE.SYSTEM.CONST>
0

>  <SCORE.SYSTEM.DIHEDRAL>
0

>  <SCORE.SYSTEM.SOLV>
0

>  <SCORE.SYSTEM.norm>
0

>  <SCORE.heavy>
10

>  <SCORE.norm>
-1.53504

>  <RMSD>
10.473

$$$$
ligand
 OpenBabel11021811503D
libRbt.so/2013.1/901 2013/11/27
 10 11  0  0  0  0  0  0  0  0999 V2000
   11.4468   -4.4495    9.6780 N   0  0  0  0  0  0  0  0  0  0  0  0
   12.2752   -3.5943    9.1081 C   0  0  0  0  0  0  0  0  0  0  0  0
   11.9561   -3.0671    7.8522 N   0  0  0  0  0  0  0  0  0  0  0  0
   10.8271   -3.4447    7.2367 C   0  0  0  0  0  0  0  0  0  0  0  0
    9.9987   -4.3120    7.8137 C   0  0  0  0  0  0  0  0  0  0  0  0
   10.2692   -4.8140    9.0163 C   0  0  0  0  0  0  0  0  0  0  0  0
    9.4889   -5.5938    9.5601 O   0  0  0  0  0  0  0  0  0  0  0  0
    9.0112   -4.5612    6.9581 N   0  0  0  0  0  0  0  0  0  0  0  0
    9.2234   -3.8471    5.8571 C   0  0  0  0  0  0  0  0  0  0  0  0
   10.3429   -3.1512    6.0343 N   0  0  0  0  0  0  0  0  0  0  0  0
  1  2  1  0  0  0  0
  1  6  1  0  0  0  0
  2  3  2  0  0  0  0
  3  4  1  0  0  0  0
  4  5  2  0  0  0  0
  4 10  1  0  0  0  0
  5  6  1  0  0  0  0
  5  8  1  0  0  0  0
  6  7  2  0  0  0  0
  8  9  1  0  0  0  0
  9 10  2  0  0  0  0
M  END
>  <CHROM.1>
10.46629011,-4.11240430,7.94426388,-1.14117685,-0.52196527,-1.07622188

>  <Name>
ligand

>  <RI>
0

>  <Rbt.Current_Directory>
/home/itssahil/PROJECTS/Mol_Feturizer/New_Systems/rnas/4NYD

>  <Rbt.Executable>
rbdock ($Id: //depot/dev/client3/rdock/2013.1/src/exe/rbdock.cxx#4 $)

>  <Rbt.Library>
libRbt.so (2013.1, Build901 2013/11/27)

>  <Rbt.Parameter_File>
/export/apps/rDock/src/rDock_2013.1_src/data/scripts/dock_solv.prm

>  <Rbt.Receptor>
prm/blind_docking_20.prm

>  <SCORE>
-15.4084

>  <SCORE.INTER>
-15.4084

>  <SCORE.INTER.CONST>
1

>  <SCORE.INTER.POLAR>
0

>  <SCORE.INTER.ROT>
0

>  <SCORE.INTER.SOLV>
3.01469

>  <SCORE.INTER.VDW>
-14.8772

>  <SCORE.INTER.norm>
-1.54084

>  <SCORE.INTRA>
0

>  <SCORE.INTRA.DIHEDRAL>
0

>  <SCORE.INTRA.DIHEDRAL.0>
0

>  <SCORE.INTRA.POLAR>
0

>  <SCORE.INTRA.POLAR.0>
0

>  <SCORE.INTRA.REPUL>
0

>  <SCORE.INTRA.REPUL.0>
0

>  <SCORE.INTRA.SOLV>
0

>  <SCORE.INTRA.SOLV.lig_0>
-4.1818

>  <SCORE.INTRA.VDW>
0

>  <SCORE.INTRA.VDW.0>
0

>  <SCORE.INTRA.norm>
0

>  <SCORE.RESTR>
0

>  <SCORE.RESTR.CAVITY>
0

>  <SCORE.RESTR.norm>
0

>  <SCORE.SYSTEM>
0

>  <SCORE.SYSTEM.CONST>
0

>  <SCORE.SYSTEM.DIHEDRAL>
0

>  <SCORE.SYSTEM.SOLV>
0

>  <SCORE.SYSTEM.norm>
0

>  <SCORE.heavy>
10

>  <SCORE.norm>
-1.54084

>  <RMSD>
10.474

$$$$
ligand
 OpenBabel11021811503D
libRbt.so/2013.1/901 2013/11/27
 10 11  0  0  0  0  0  0  0  0999 V2000
   11.1417   -4.1825    9.6793 N   0  0  0  0  0  0  0  0  0  0  0  0
   10.0948   -4.9492    9.9209 C   0  0  0  0  0  0  0  0  0  0  0  0
    9.1659   -5.1792    8.9005 N   0  0  0  0  0  0  0  0  0  0  0  0
    9.3385   -4.6100    7.6996 C   0  0  0  0  0  0  0  0  0  0  0  0
   10.3930   -3.8329    7.4637 C   0  0  0  0  0  0  0  0  0  0  0  0
   11.3014   -3.6133    8.4113 C   0  0  0  0  0  0  0  0  0  0  0  0
   12.2897   -2.9176    8.1830 O   0  0  0  0  0  0  0  0  0  0  0  0
   10.2720   -3.3475    6.2312 N   0  0  0  0  0  0  0  0  0  0  0  0
    9.1500   -3.8259    5.7029 C   0  0  0  0  0  0  0  0  0  0  0  0
    8.5779   -4.6129    6.6098 N   0  0  0  0  0  0  0  0  0  0  0  0
  1  2  1  0  0  0  0
  1  6  1  0  0  0  0
  2  3  2  0  0  0  0
  3  4  1  0  0  0  0
  4  5  2  0  0  0  0
  4 10  1  0  0  0  0
  5  6  1  0  0  0  0
  5  8  1  0  0  0  0
  6  7  2  0  0  0  0
  8  9  1  0  0  0  0
  9 10  2  0  0  0  0
M  END
>  <CHROM.1>
10.21326582,-4.08467253,7.88786073,0.84395094,0.53045064,1.95598186

>  <Name>
ligand

>  <RI>
0

>  <Rbt.Current_Directory>
/home/itssahil/PROJECTS/Mol_Feturizer/New_Systems/rnas/4NYD

>  <Rbt.Executable>
rbdock ($Id: //depot/dev/client3/rdock/2013.1/src/exe/rbdock.cxx#4 $)

>  <Rbt.Library>
libRbt.so (2013.1, Build901 2013/11/27)

>  <Rbt.Parameter_File>
/export/apps/rDock/src/rDock_2013.1_src/data/scripts/dock_solv.prm

>  <Rbt.Receptor>
prm/blind_docking_20.prm

>  <SCORE>
-13.0178

>  <SCORE.INTER>
-13.0178

>  <SCORE.INTER.CONST>
1

>  <SCORE.INTER.POLAR>
0

>  <SCORE.INTER.ROT>
0

>  <SCORE.INTER.SOLV>
4.54029

>  <SCORE.INTER.VDW>
-13.792

>  <SCORE.INTER.norm>
-1.30178

>  <SCORE.INTRA>
0

>  <SCORE.INTRA.DIHEDRAL>
0

>  <SCORE.INTRA.DIHEDRAL.0>
0

>  <SCORE.INTRA.POLAR>
0

>  <SCORE.INTRA.POLAR.0>
0

>  <SCORE.INTRA.REPUL>
0

>  <SCORE.INTRA.REPUL.0>
0

>  <SCORE.INTRA.SOLV>
0

>  <SCORE.INTRA.SOLV.lig_0>
-4.1818

>  <SCORE.INTRA.VDW>
0

>  <SCORE.INTRA.VDW.0>
0

>  <SCORE.INTRA.norm>
0

>  <SCORE.RESTR>
0

>  <SCORE.RESTR.CAVITY>
0

>  <SCORE.RESTR.norm>
0

>  <SCORE.SYSTEM>
0

>  <SCORE.SYSTEM.CONST>
0

>  <SCORE.SYSTEM.DIHEDRAL>
0

>  <SCORE.SYSTEM.SOLV>
0

>  <SCORE.SYSTEM.norm>
0

>  <SCORE.heavy>
10

>  <SCORE.norm>
-1.30178

>  <RMSD>
10.480

$$$$
ligand
 OpenBabel11021811503D
libRbt.so/2013.1/901 2013/11/27
 10 11  0  0  0  0  0  0  0  0999 V2000
   11.3833   -4.4879    9.6841 N   0  0  0  0  0  0  0  0  0  0  0  0
   12.2273   -3.6284    9.1445 C   0  0  0  0  0  0  0  0  0  0  0  0
   11.9389   -3.0839    7.8886 N   0  0  0  0  0  0  0  0  0  0  0  0
   10.8232   -3.4496    7.2424 C   0  0  0  0  0  0  0  0  0  0  0  0
    9.9790   -4.3214    7.7889 C   0  0  0  0  0  0  0  0  0  0  0  0
   10.2201   -4.8397    8.9908 C   0  0  0  0  0  0  0  0  0  0  0  0
    9.4250   -5.6237    9.5064 O   0  0  0  0  0  0  0  0  0  0  0  0
    9.0107   -4.5560    6.9076 N   0  0  0  0  0  0  0  0  0  0  0  0
    9.2505   -3.8286    5.8212 C   0  0  0  0  0  0  0  0  0  0  0  0
   10.3678   -3.1389    6.0331 N   0  0  0  0  0  0  0  0  0  0  0  0
  1  2  1  0  0  0  0
  1  6  1  0  0  0  0
  2  3  2  0  0  0  0
  3  4  1  0  0  0  0
  4  5  2  0  0  0  0
  4 10  1  0  0  0  0
  5  6  1  0  0  0  0
  5  8  1  0  0  0  0
  6  7  2  0  0  0  0
  8  9  1  0  0  0  0
  9 10  2  0  0  0  0
M  END
>  <CHROM.1>
10.44408202,-4.12508793,7.93276960,-1.16645161,-0.52994363,-1.07600183

>  <Name>
ligand

>  <RI>
0

>  <Rbt.Current_Directory>
/home/itssahil/PROJECTS/Mol_Feturizer/New_Systems/rnas/4NYD

>  <Rbt.Executable>
rbdock ($Id: //depot/dev/client3/rdock/2013.1/src/exe/rbdock.cxx#4 $)

>  <Rbt.Library>
libRbt.so (2013.1, Build901 2013/11/27)

>  <Rbt.Parameter_File>
/export/apps/rDock/src/rDock_2013.1_src/data/scripts/dock_solv.prm

>  <Rbt.Receptor>
prm/blind_docking_20.prm

>  <SCORE>
-15.3361

>  <SCORE.INTER>
-15.3361

>  <SCORE.INTER.CONST>
1

>  <SCORE.INTER.POLAR>
0

>  <SCORE.INTER.ROT>
0

>  <SCORE.INTER.SOLV>
3.0074

>  <SCORE.INTER.VDW>
-14.8265

>  <SCORE.INTER.norm>
-1.53361

>  <SCORE.INTRA>
0

>  <SCORE.INTRA.DIHEDRAL>
0

>  <SCORE.INTRA.DIHEDRAL.0>
0

>  <SCORE.INTRA.POLAR>
0

>  <SCORE.INTRA.POLAR.0>
0

>  <SCORE.INTRA.REPUL>
0

>  <SCORE.INTRA.REPUL.0>
0

>  <SCORE.INTRA.SOLV>
0

>  <SCORE.INTRA.SOLV.lig_0>
-4.1818

>  <SCORE.INTRA.VDW>
0

>  <SCORE.INTRA.VDW.0>
0

>  <SCORE.INTRA.norm>
0

>  <SCORE.RESTR>
0

>  <SCORE.RESTR.CAVITY>
0

>  <SCORE.RESTR.norm>
0

>  <SCORE.SYSTEM>
0

>  <SCORE.SYSTEM.CONST>
0

>  <SCORE.SYSTEM.DIHEDRAL>
0

>  <SCORE.SYSTEM.SOLV>
0

>  <SCORE.SYSTEM.norm>
0

>  <SCORE.heavy>
10

>  <SCORE.norm>
-1.53361

>  <RMSD>
10.488

$$$$
ligand
 OpenBabel11021811503D
libRbt.so/2013.1/901 2013/11/27
 10 11  0  0  0  0  0  0  0  0999 V2000
   11.3921   -4.4638    9.6903 N   0  0  0  0  0  0  0  0  0  0  0  0
   12.2280   -3.6003    9.1444 C   0  0  0  0  0  0  0  0  0  0  0  0
   11.9333   -3.0659    7.8857 N   0  0  0  0  0  0  0  0  0  0  0  0
   10.8200   -3.4450    7.2431 C   0  0  0  0  0  0  0  0  0  0  0  0
    9.9840   -4.3207    7.7960 C   0  0  0  0  0  0  0  0  0  0  0  0
   10.2311   -4.8297    9.0007 C   0  0  0  0  0  0  0  0  0  0  0  0
    9.4434   -5.6174    9.5220 O   0  0  0  0  0  0  0  0  0  0  0  0
    9.0166   -4.5690    6.9174 N   0  0  0  0  0  0  0  0  0  0  0  0
    9.2487   -3.8460    5.8263 C   0  0  0  0  0  0  0  0  0  0  0  0
   10.3603   -3.1455    6.0326 N   0  0  0  0  0  0  0  0  0  0  0  0
  1  2  1  0  0  0  0
  1  6  1  0  0  0  0
  2  3  2  0  0  0  0
  3  4  1  0  0  0  0
  4  5  2  0  0  0  0
  4 10  1  0  0  0  0
  5  6  1  0  0  0  0
  5  8  1  0  0  0  0
  6  7  2  0  0  0  0
  8  9  1  0  0  0  0
  9 10  2  0  0  0  0
M  END
>  <CHROM.1>
10.44753973,-4.11956708,7.93807646,-1.16038161,-0.53690508,-1.07890474

>  <Name>
ligand

>  <RI>
0

>  <Rbt.Current_Directory>
/home/itssahil/PROJECTS/Mol_Feturizer/New_Systems/rnas/4NYD

>  <Rbt.Executable>
rbdock ($Id: //depot/dev/client3/rdock/2013.1/src/exe/rbdock.cxx#4 $)

>  <Rbt.Library>
libRbt.so (2013.1, Build901 2013/11/27)

>  <Rbt.Parameter_File>
/export/apps/rDock/src/rDock_2013.1_src/data/scripts/dock_solv.prm

>  <Rbt.Receptor>
prm/blind_docking_20.prm

>  <SCORE>
-15.379

>  <SCORE.INTER>
-15.379

>  <SCORE.INTER.CONST>
1

>  <SCORE.INTER.POLAR>
0

>  <SCORE.INTER.ROT>
0

>  <SCORE.INTER.SOLV>
3.01065

>  <SCORE.INTER.VDW>
-14.8562

>  <SCORE.INTER.norm>
-1.5379

>  <SCORE.INTRA>
0

>  <SCORE.INTRA.DIHEDRAL>
0

>  <SCORE.INTRA.DIHEDRAL.0>
0

>  <SCORE.INTRA.POLAR>
0

>  <SCORE.INTRA.POLAR.0>
0

>  <SCORE.INTRA.REPUL>
0

>  <SCORE.INTRA.REPUL.0>
0

>  <SCORE.INTRA.SOLV>
0

>  <SCORE.INTRA.SOLV.lig_0>
-4.1818

>  <SCORE.INTRA.VDW>
0

>  <SCORE.INTRA.VDW.0>
0

>  <SCORE.INTRA.norm>
0

>  <SCORE.RESTR>
0

>  <SCORE.RESTR.CAVITY>
0

>  <SCORE.RESTR.norm>
0

>  <SCORE.SYSTEM>
0

>  <SCORE.SYSTEM.CONST>
0

>  <SCORE.SYSTEM.DIHEDRAL>
0

>  <SCORE.SYSTEM.SOLV>
0

>  <SCORE.SYSTEM.norm>
0

>  <SCORE.heavy>
10

>  <SCORE.norm>
-1.5379

>  <RMSD>
10.489

$$$$
ligand
 OpenBabel11021811503D
libRbt.so/2013.1/901 2013/11/27
 10 11  0  0  0  0  0  0  0  0999 V2000
   11.4298   -4.5143    9.6375 N   0  0  0  0  0  0  0  0  0  0  0  0
   12.2516   -3.6455    9.0788 C   0  0  0  0  0  0  0  0  0  0  0  0
   11.9187   -3.0893    7.8391 N   0  0  0  0  0  0  0  0  0  0  0  0
   10.7832   -3.4532    7.2272 C   0  0  0  0  0  0  0  0  0  0  0  0
    9.9615   -4.3343    7.7927 C   0  0  0  0  0  0  0  0  0  0  0  0
   10.2453   -4.8640    8.9803 C   0  0  0  0  0  0  0  0  0  0  0  0
    9.4713   -5.6568    9.5142 O   0  0  0  0  0  0  0  0  0  0  0  0
    8.9649   -4.5641    6.9423 N   0  0  0  0  0  0  0  0  0  0  0  0
    9.1648   -3.8243    5.8561 C   0  0  0  0  0  0  0  0  0  0  0  0
   10.2859   -3.1320    6.0373 N   0  0  0  0  0  0  0  0  0  0  0  0
  1  2  1  0  0  0  0
  1  6  1  0  0  0  0
  2  3  2  0  0  0  0
  3  4  1  0  0  0  0
  4  5  2  0  0  0  0
  4 10  1  0  0  0  0
  5  6  1  0  0  0  0
  5  8  1  0  0  0  0
  6  7  2  0  0  0  0
  8  9  1  0  0  0  0
  9 10  2  0  0  0  0
M  END
>  <CHROM.1>
10.43042170,-4.13747121,7.92286251,-1.12995387,-0.51714621,-1.04729485

>  <Name>
ligand

>  <RI>
0

>  <Rbt.Current_Directory>
/home/itssahil/PROJECTS/Mol_Feturizer/New_Systems/rnas/4NYD

>  <Rbt.Executable>
rbdock ($Id: //depot/dev/client3/rdock/2013.1/src/exe/rbdock.cxx#4 $)

>  <Rbt.Library>
libRbt.so (2013.1, Build901 2013/11/27)

>  <Rbt.Parameter_File>
/export/apps/rDock/src/rDock_2013.1_src/data/scripts/dock_solv.prm

>  <Rbt.Receptor>
prm/blind_docking_20.prm

>  <SCORE>
-15.3283

>  <SCORE.INTER>
-15.3283

>  <SCORE.INTER.CONST>
1

>  <SCORE.INTER.POLAR>
0

>  <SCORE.INTER.ROT>
0

>  <SCORE.INTER.SOLV>
2.91717

>  <SCORE.INTER.VDW>
-14.7913

>  <SCORE.INTER.norm>
-1.53283

>  <SCORE.INTRA>
0

>  <SCORE.INTRA.DIHEDRAL>
0

>  <SCORE.INTRA.DIHEDRAL.0>
0

>  <SCORE.INTRA.POLAR>
0

>  <SCORE.INTRA.POLAR.0>
0

>  <SCORE.INTRA.REPUL>
0

>  <SCORE.INTRA.REPUL.0>
0

>  <SCORE.INTRA.SOLV>
0

>  <SCORE.INTRA.SOLV.lig_0>
-4.1818

>  <SCORE.INTRA.VDW>
0

>  <SCORE.INTRA.VDW.0>
0

>  <SCORE.INTRA.norm>
0

>  <SCORE.RESTR>
0

>  <SCORE.RESTR.CAVITY>
0

>  <SCORE.RESTR.norm>
0

>  <SCORE.SYSTEM>
0

>  <SCORE.SYSTEM.CONST>
0

>  <SCORE.SYSTEM.DIHEDRAL>
0

>  <SCORE.SYSTEM.SOLV>
0

>  <SCORE.SYSTEM.norm>
0

>  <SCORE.heavy>
10

>  <SCORE.norm>
-1.53283

>  <RMSD>
10.490

$$$$
ligand
 OpenBabel11021811503D
libRbt.so/2013.1/901 2013/11/27
 10 11  0  0  0  0  0  0  0  0999 V2000
   11.4305   -4.5117    9.6406 N   0  0  0  0  0  0  0  0  0  0  0  0
   12.2557   -3.6485    9.0782 C   0  0  0  0  0  0  0  0  0  0  0  0
   11.9232   -3.0938    7.8378 N   0  0  0  0  0  0  0  0  0  0  0  0
   10.7848   -3.4535    7.2289 C   0  0  0  0  0  0  0  0  0  0  0  0
    9.9597   -4.3290    7.7982 C   0  0  0  0  0  0  0  0  0  0  0  0
   10.2430   -4.8571    8.9865 C   0  0  0  0  0  0  0  0  0  0  0  0
    9.4660   -5.6447    9.5238 O   0  0  0  0  0  0  0  0  0  0  0  0
    8.9603   -4.5558    6.9501 N   0  0  0  0  0  0  0  0  0  0  0  0
    9.1620   -3.8199    5.8617 C   0  0  0  0  0  0  0  0  0  0  0  0
   10.2869   -3.1327    6.0391 N   0  0  0  0  0  0  0  0  0  0  0  0
  1  2  1  0  0  0  0
  1  6  1  0  0  0  0
  2  3  2  0  0  0  0
  3  4  1  0  0  0  0
  4  5  2  0  0  0  0
  4 10  1  0  0  0  0
  5  6  1  0  0  0  0
  5  8  1  0  0  0  0
  6  7  2  0  0  0  0
  8  9  1  0  0  0  0
  9 10  2  0  0  0  0
M  END
>  <CHROM.1>
10.42985959,-4.13417622,7.92691003,-1.13099360,-0.51184151,-1.05033019

>  <Name>
ligand

>  <RI>
0

>  <Rbt.Current_Directory>
/home/itssahil/PROJECTS/Mol_Feturizer/New_Systems/rnas/4NYD

>  <Rbt.Executable>
rbdock ($Id: //depot/dev/client3/rdock/2013.1/src/exe/rbdock.cxx#4 $)

>  <Rbt.Library>
libRbt.so (2013.1, Build901 2013/11/27)

>  <Rbt.Parameter_File>
/export/apps/rDock/src/rDock_2013.1_src/data/scripts/dock_solv.prm

>  <Rbt.Receptor>
prm/blind_docking_80.prm

>  <SCORE>
-15.3306

>  <SCORE.INTER>
-15.3306

>  <SCORE.INTER.CONST>
1

>  <SCORE.INTER.POLAR>
0

>  <SCORE.INTER.ROT>
0

>  <SCORE.INTER.SOLV>
2.91658

>  <SCORE.INTER.VDW>
-14.7926

>  <SCORE.INTER.norm>
-1.53306

>  <SCORE.INTRA>
0

>  <SCORE.INTRA.DIHEDRAL>
0

>  <SCORE.INTRA.DIHEDRAL.0>
0

>  <SCORE.INTRA.POLAR>
0

>  <SCORE.INTRA.POLAR.0>
0

>  <SCORE.INTRA.REPUL>
0

>  <SCORE.INTRA.REPUL.0>
0

>  <SCORE.INTRA.SOLV>
0

>  <SCORE.INTRA.SOLV.lig_0>
-4.1818

>  <SCORE.INTRA.VDW>
0

>  <SCORE.INTRA.VDW.0>
0

>  <SCORE.INTRA.norm>
0

>  <SCORE.RESTR>
0

>  <SCORE.RESTR.CAVITY>
0

>  <SCORE.RESTR.norm>
0

>  <SCORE.SYSTEM>
0

>  <SCORE.SYSTEM.CONST>
0

>  <SCORE.SYSTEM.DIHEDRAL>
0

>  <SCORE.SYSTEM.SOLV>
0

>  <SCORE.SYSTEM.norm>
0

>  <SCORE.heavy>
10

>  <SCORE.norm>
-1.53306

>  <RMSD>
10.492

$$$$
ligand
 OpenBabel11021811503D
libRbt.so/2013.1/901 2013/11/27
 10 11  0  0  0  0  0  0  0  0999 V2000
   11.4195   -4.5192    9.6192 N   0  0  0  0  0  0  0  0  0  0  0  0
   12.2421   -3.6524    9.0585 C   0  0  0  0  0  0  0  0  0  0  0  0
   11.9060   -3.0930    7.8211 N   0  0  0  0  0  0  0  0  0  0  0  0
   10.7667   -3.4519    7.2133 C   0  0  0  0  0  0  0  0  0  0  0  0
    9.9443   -4.3311    7.7808 C   0  0  0  0  0  0  0  0  0  0  0  0
   10.2311   -4.8637    8.9663 C   0  0  0  0  0  0  0  0  0  0  0  0
    9.4565   -5.6547    9.5021 O   0  0  0  0  0  0  0  0  0  0  0  0
    8.9433   -4.5559    6.9341 N   0  0  0  0  0  0  0  0  0  0  0  0
    9.1414   -3.8152    5.8483 C   0  0  0  0  0  0  0  0  0  0  0  0
   10.2656   -3.1270    6.0260 N   0  0  0  0  0  0  0  0  0  0  0  0
  1  2  1  0  0  0  0
  1  6  1  0  0  0  0
  2  3  2  0  0  0  0
  3  4  1  0  0  0  0
  4  5  2  0  0  0  0
  4 10  1  0  0  0  0
  5  6  1  0  0  0  0
  5  8  1  0  0  0  0
  6  7  2  0  0  0  0
  8  9  1  0  0  0  0
  9 10  2  0  0  0  0
M  END
>  <CHROM.1>
10.41441206,-4.13607813,7.90932787,-1.12786337,-0.51205052,-1.04464594

>  <Name>
ligand

>  <RI>
0

>  <Rbt.Current_Directory>
/home/itssahil/PROJECTS/Mol_Feturizer/New_Systems/rnas/4NYD

>  <Rbt.Executable>
rbdock ($Id: //depot/dev/client3/rdock/2013.1/src/exe/rbdock.cxx#4 $)

>  <Rbt.Library>
libRbt.so (2013.1, Build901 2013/11/27)

>  <Rbt.Parameter_File>
/export/apps/rDock/src/rDock_2013.1_src/data/scripts/dock_solv.prm

>  <Rbt.Receptor>
prm/blind_docking_80.prm

>  <SCORE>
-15.3499

>  <SCORE.INTER>
-15.3499

>  <SCORE.INTER.CONST>
1

>  <SCORE.INTER.POLAR>
0

>  <SCORE.INTER.ROT>
0

>  <SCORE.INTER.SOLV>
2.89951

>  <SCORE.INTER.VDW>
-14.7998

>  <SCORE.INTER.norm>
-1.53499

>  <SCORE.INTRA>
0

>  <SCORE.INTRA.DIHEDRAL>
0

>  <SCORE.INTRA.DIHEDRAL.0>
0

>  <SCORE.INTRA.POLAR>
0

>  <SCORE.INTRA.POLAR.0>
0

>  <SCORE.INTRA.REPUL>
0

>  <SCORE.INTRA.REPUL.0>
0

>  <SCORE.INTRA.SOLV>
0

>  <SCORE.INTRA.SOLV.lig_0>
-4.1818

>  <SCORE.INTRA.VDW>
0

>  <SCORE.INTRA.VDW.0>
0

>  <SCORE.INTRA.norm>
0

>  <SCORE.RESTR>
0

>  <SCORE.RESTR.CAVITY>
0

>  <SCORE.RESTR.norm>
0

>  <SCORE.SYSTEM>
0

>  <SCORE.SYSTEM.CONST>
0

>  <SCORE.SYSTEM.DIHEDRAL>
0

>  <SCORE.SYSTEM.SOLV>
0

>  <SCORE.SYSTEM.norm>
0

>  <SCORE.heavy>
10

>  <SCORE.norm>
-1.53499

>  <RMSD>
10.495

$$$$
ligand
 OpenBabel11021811503D
libRbt.so/2013.1/901 2013/11/27
 10 11  0  0  0  0  0  0  0  0999 V2000
   11.4146   -4.4988    9.6223 N   0  0  0  0  0  0  0  0  0  0  0  0
   12.2371   -3.6351    9.0567 C   0  0  0  0  0  0  0  0  0  0  0  0
   11.9030   -3.0858    7.8143 N   0  0  0  0  0  0  0  0  0  0  0  0
   10.7656   -3.4510    7.2068 C   0  0  0  0  0  0  0  0  0  0  0  0
    9.9431   -4.3270    7.7793 C   0  0  0  0  0  0  0  0  0  0  0  0
   10.2281   -4.8500    8.9695 C   0  0  0  0  0  0  0  0  0  0  0  0
    9.4535   -5.6380    9.5096 O   0  0  0  0  0  0  0  0  0  0  0  0
    8.9444   -4.5598    6.9321 N   0  0  0  0  0  0  0  0  0  0  0  0
    9.1438   -3.8271    5.8411 C   0  0  0  0  0  0  0  0  0  0  0  0
   10.2666   -3.1360    6.0160 N   0  0  0  0  0  0  0  0  0  0  0  0
  1  2  1  0  0  0  0
  1  6  1  0  0  0  0
  2  3  2  0  0  0  0
  3  4  1  0  0  0  0
  4  5  2  0  0  0  0
  4 10  1  0  0  0  0
  5  6  1  0  0  0  0
  5  8  1  0  0  0  0
  6  7  2  0  0  0  0
  8  9  1  0  0  0  0
  9 10  2  0  0  0  0
M  END
>  <CHROM.1>
10.41271482,-4.13030373,7.90730360,-1.12923328,-0.51438232,-1.05301105

>  <Name>
ligand

>  <RI>
0

>  <Rbt.Current_Directory>
/home/itssahil/PROJECTS/Mol_Feturizer/New_Systems/rnas/4NYD

>  <Rbt.Executable>
rbdock ($Id: //depot/dev/client3/rdock/2013.1/src/exe/rbdock.cxx#4 $)

>  <Rbt.Library>
libRbt.so (2013.1, Build901 2013/11/27)

>  <Rbt.Parameter_File>
/export/apps/rDock/src/rDock_2013.1_src/data/scripts/dock_solv.prm

>  <Rbt.Receptor>
prm/blind_docking_20.prm

>  <SCORE>
-15.345

>  <SCORE.INTER>
-15.345

>  <SCORE.INTER.CONST>
1

>  <SCORE.INTER.POLAR>
0

>  <SCORE.INTER.ROT>
0

>  <SCORE.INTER.SOLV>
2.91818

>  <SCORE.INTER.VDW>
-14.8027

>  <SCORE.INTER.norm>
-1.5345

>  <SCORE.INTRA>
0

>  <SCORE.INTRA.DIHEDRAL>
0

>  <SCORE.INTRA.DIHEDRAL.0>
0

>  <SCORE.INTRA.POLAR>
0

>  <SCORE.INTRA.POLAR.0>
0

>  <SCORE.INTRA.REPUL>
0

>  <SCORE.INTRA.REPUL.0>
0

>  <SCORE.INTRA.SOLV>
0

>  <SCORE.INTRA.SOLV.lig_0>
-4.1818

>  <SCORE.INTRA.VDW>
0

>  <SCORE.INTRA.VDW.0>
0

>  <SCORE.INTRA.norm>
0

>  <SCORE.RESTR>
0

>  <SCORE.RESTR.CAVITY>
0

>  <SCORE.RESTR.norm>
0

>  <SCORE.SYSTEM>
0

>  <SCORE.SYSTEM.CONST>
0

>  <SCORE.SYSTEM.DIHEDRAL>
0

>  <SCORE.SYSTEM.SOLV>
0

>  <SCORE.SYSTEM.norm>
0

>  <SCORE.heavy>
10

>  <SCORE.norm>
-1.5345

>  <RMSD>
10.496

$$$$
ligand
 OpenBabel11021811503D
libRbt.so/2013.1/901 2013/11/27
 10 11  0  0  0  0  0  0  0  0999 V2000
   11.4071   -4.4458    9.6886 N   0  0  0  0  0  0  0  0  0  0  0  0
   12.2391   -3.5895    9.1258 C   0  0  0  0  0  0  0  0  0  0  0  0
   11.9298   -3.0622    7.8676 N   0  0  0  0  0  0  0  0  0  0  0  0
   10.8064   -3.4410    7.2426 C   0  0  0  0  0  0  0  0  0  0  0  0
    9.9743   -4.3095    7.8125 C   0  0  0  0  0  0  0  0  0  0  0  0
   10.2355   -4.8115    9.0171 C   0  0  0  0  0  0  0  0  0  0  0  0
    9.4516   -5.5924    9.5541 O   0  0  0  0  0  0  0  0  0  0  0  0
    8.9942   -4.5595    6.9486 N   0  0  0  0  0  0  0  0  0  0  0  0
    9.2147   -3.8448    5.8497 C   0  0  0  0  0  0  0  0  0  0  0  0
   10.3318   -3.1476    6.0364 N   0  0  0  0  0  0  0  0  0  0  0  0
  1  2  1  0  0  0  0
  1  6  1  0  0  0  0
  2  3  2  0  0  0  0
  3  4  1  0  0  0  0
  4  5  2  0  0  0  0
  4 10  1  0  0  0  0
  5  6  1  0  0  0  0
  5  8  1  0  0  0  0
  6  7  2  0  0  0  0
  8  9  1  0  0  0  0
  9 10  2  0  0  0  0
M  END
>  <CHROM.1>
10.44056314,-4.10932817,7.94695075,-1.14893378,-0.52693569,-1.07976343

>  <Name>
ligand

>  <RI>
0

>  <Rbt.Current_Directory>
/home/itssahil/PROJECTS/Mol_Feturizer/New_Systems/rnas/4NYD

>  <Rbt.Executable>
rbdock ($Id: //depot/dev/client3/rdock/2013.1/src/exe/rbdock.cxx#4 $)

>  <Rbt.Library>
libRbt.so (2013.1, Build901 2013/11/27)

>  <Rbt.Parameter_File>
/export/apps/rDock/src/rDock_2013.1_src/data/scripts/dock_solv.prm

>  <Rbt.Receptor>
prm/blind_docking_20.prm

>  <SCORE>
-15.3668

>  <SCORE.INTER>
-15.3668

>  <SCORE.INTER.CONST>
1

>  <SCORE.INTER.POLAR>
0

>  <SCORE.INTER.ROT>
0

>  <SCORE.INTER.SOLV>
2.98333

>  <SCORE.INTER.VDW>
-14.839

>  <SCORE.INTER.norm>
-1.53668

>  <SCORE.INTRA>
0

>  <SCORE.INTRA.DIHEDRAL>
0

>  <SCORE.INTRA.DIHEDRAL.0>
0

>  <SCORE.INTRA.POLAR>
0

>  <SCORE.INTRA.POLAR.0>
0

>  <SCORE.INTRA.REPUL>
0

>  <SCORE.INTRA.REPUL.0>
0

>  <SCORE.INTRA.SOLV>
0

>  <SCORE.INTRA.SOLV.lig_0>
-4.1818

>  <SCORE.INTRA.VDW>
0

>  <SCORE.INTRA.VDW.0>
0

>  <SCORE.INTRA.norm>
0

>  <SCORE.RESTR>
0

>  <SCORE.RESTR.CAVITY>
0

>  <SCORE.RESTR.norm>
0

>  <SCORE.SYSTEM>
0

>  <SCORE.SYSTEM.CONST>
0

>  <SCORE.SYSTEM.DIHEDRAL>
0

>  <SCORE.SYSTEM.SOLV>
0

>  <SCORE.SYSTEM.norm>
0

>  <SCORE.heavy>
10

>  <SCORE.norm>
-1.53668

>  <RMSD>
10.497

$$$$
ligand
 OpenBabel11021811503D
libRbt.so/2013.1/901 2013/11/27
 10 11  0  0  0  0  0  0  0  0999 V2000
   11.3887   -4.4518    9.6912 N   0  0  0  0  0  0  0  0  0  0  0  0
   12.2302   -3.6007    9.1346 C   0  0  0  0  0  0  0  0  0  0  0  0
   11.9331   -3.0711    7.8743 N   0  0  0  0  0  0  0  0  0  0  0  0
   10.8116   -3.4424    7.2414 C   0  0  0  0  0  0  0  0  0  0  0  0
    9.9700   -4.3056    7.8051 C   0  0  0  0  0  0  0  0  0  0  0  0
   10.2194   -4.8096    9.0114 C   0  0  0  0  0  0  0  0  0  0  0  0
    9.4268   -5.5856    9.5427 O   0  0  0  0  0  0  0  0  0  0  0  0
    8.9943   -4.5490    6.9344 N   0  0  0  0  0  0  0  0  0  0  0  0
    9.2271   -3.8354    5.8372 C   0  0  0  0  0  0  0  0  0  0  0  0
   10.3474   -3.1456    6.0320 N   0  0  0  0  0  0  0  0  0  0  0  0
  1  2  1  0  0  0  0
  1  6  1  0  0  0  0
  2  3  2  0  0  0  0
  3  4  1  0  0  0  0
  4  5  2  0  0  0  0
  4 10  1  0  0  0  0
  5  6  1  0  0  0  0
  5  8  1  0  0  0  0
  6  7  2  0  0  0  0
  8  9  1  0  0  0  0
  9 10  2  0  0  0  0
M  END
>  <CHROM.1>
10.43656656,-4.10851154,7.94294518,-1.15961853,-0.52446388,-1.08483410

>  <Name>
ligand

>  <RI>
0

>  <Rbt.Current_Directory>
/home/itssahil/PROJECTS/Mol_Feturizer/New_Systems/rnas/4NYD

>  <Rbt.Executable>
rbdock ($Id: //depot/dev/client3/rdock/2013.1/src/exe/rbdock.cxx#4 $)

>  <Rbt.Library>
libRbt.so (2013.1, Build901 2013/11/27)

>  <Rbt.Parameter_File>
/export/apps/rDock/src/rDock_2013.1_src/data/scripts/dock_solv.prm

>  <Rbt.Receptor>
prm/blind_docking_20.prm

>  <SCORE>
-15.3723

>  <SCORE.INTER>
-15.3723

>  <SCORE.INTER.CONST>
1

>  <SCORE.INTER.POLAR>
0

>  <SCORE.INTER.ROT>
0

>  <SCORE.INTER.SOLV>
2.99763

>  <SCORE.INTER.VDW>
-14.8474

>  <SCORE.INTER.norm>
-1.53723

>  <SCORE.INTRA>
0

>  <SCORE.INTRA.DIHEDRAL>
0

>  <SCORE.INTRA.DIHEDRAL.0>
0

>  <SCORE.INTRA.POLAR>
0

>  <SCORE.INTRA.POLAR.0>
0

>  <SCORE.INTRA.REPUL>
0

>  <SCORE.INTRA.REPUL.0>
0

>  <SCORE.INTRA.SOLV>
0

>  <SCORE.INTRA.SOLV.lig_0>
-4.1818

>  <SCORE.INTRA.VDW>
0

>  <SCORE.INTRA.VDW.0>
0

>  <SCORE.INTRA.norm>
0

>  <SCORE.RESTR>
0

>  <SCORE.RESTR.CAVITY>
0

>  <SCORE.RESTR.norm>
0

>  <SCORE.SYSTEM>
0

>  <SCORE.SYSTEM.CONST>
0

>  <SCORE.SYSTEM.DIHEDRAL>
0

>  <SCORE.SYSTEM.SOLV>
0

>  <SCORE.SYSTEM.norm>
0

>  <SCORE.heavy>
10

>  <SCORE.norm>
-1.53723

>  <RMSD>
10.498

$$$$
ligand
 OpenBabel11021811503D
libRbt.so/2013.1/901 2013/11/27
 10 11  0  0  0  0  0  0  0  0999 V2000
   11.4354   -4.4945    9.6359 N   0  0  0  0  0  0  0  0  0  0  0  0
   12.2551   -3.6356    9.0591 C   0  0  0  0  0  0  0  0  0  0  0  0
   11.9104   -3.0896    7.8181 N   0  0  0  0  0  0  0  0  0  0  0  0
   10.7658   -3.4533    7.2233 C   0  0  0  0  0  0  0  0  0  0  0  0
    9.9462   -4.3244    7.8070 C   0  0  0  0  0  0  0  0  0  0  0  0
   10.2413   -4.8442    8.9962 C   0  0  0  0  0  0  0  0  0  0  0  0
    9.4696   -5.6276    9.5469 O   0  0  0  0  0  0  0  0  0  0  0  0
    8.9384   -4.5570    6.9707 N   0  0  0  0  0  0  0  0  0  0  0  0
    9.1293   -3.8289    5.8750 C   0  0  0  0  0  0  0  0  0  0  0  0
   10.2560   -3.1408    6.0363 N   0  0  0  0  0  0  0  0  0  0  0  0
  1  2  1  0  0  0  0
  1  6  1  0  0  0  0
  2  3  2  0  0  0  0
  3  4  1  0  0  0  0
  4  5  2  0  0  0  0
  4 10  1  0  0  0  0
  5  6  1  0  0  0  0
  5  8  1  0  0  0  0
  6  7  2  0  0  0  0
  8  9  1  0  0  0  0
  9 10  2  0  0  0  0
M  END
>  <CHROM.1>
10.41770448,-4.12887280,7.92965697,-1.12118112,-0.50661872,-1.05266772

>  <Name>
ligand

>  <RI>
0

>  <Rbt.Current_Directory>
/home/itssahil/PROJECTS/Mol_Feturizer/New_Systems/rnas/4NYD

>  <Rbt.Executable>
rbdock ($Id: //depot/dev/client3/rdock/2013.1/src/exe/rbdock.cxx#4 $)

>  <Rbt.Library>
libRbt.so (2013.1, Build901 2013/11/27)

>  <Rbt.Parameter_File>
/export/apps/rDock/src/rDock_2013.1_src/data/scripts/dock_solv.prm

>  <Rbt.Receptor>
prm/blind_docking_20.prm

>  <SCORE>
-15.3458

>  <SCORE.INTER>
-15.3458

>  <SCORE.INTER.CONST>
1

>  <SCORE.INTER.POLAR>
0

>  <SCORE.INTER.ROT>
0

>  <SCORE.INTER.SOLV>
2.89295

>  <SCORE.INTER.VDW>
-14.7949

>  <SCORE.INTER.norm>
-1.53458

>  <SCORE.INTRA>
0

>  <SCORE.INTRA.DIHEDRAL>
0

>  <SCORE.INTRA.DIHEDRAL.0>
0

>  <SCORE.INTRA.POLAR>
0

>  <SCORE.INTRA.POLAR.0>
0

>  <SCORE.INTRA.REPUL>
0

>  <SCORE.INTRA.REPUL.0>
0

>  <SCORE.INTRA.SOLV>
0

>  <SCORE.INTRA.SOLV.lig_0>
-4.1818

>  <SCORE.INTRA.VDW>
0

>  <SCORE.INTRA.VDW.0>
0

>  <SCORE.INTRA.norm>
0

>  <SCORE.RESTR>
0

>  <SCORE.RESTR.CAVITY>
0

>  <SCORE.RESTR.norm>
0

>  <SCORE.SYSTEM>
0

>  <SCORE.SYSTEM.CONST>
0

>  <SCORE.SYSTEM.DIHEDRAL>
0

>  <SCORE.SYSTEM.SOLV>
0

>  <SCORE.SYSTEM.norm>
0

>  <SCORE.heavy>
10

>  <SCORE.norm>
-1.53458

>  <RMSD>
10.502

$$$$
ligand
 OpenBabel11021811503D
libRbt.so/2013.1/901 2013/11/27
 10 11  0  0  0  0  0  0  0  0999 V2000
   11.3387   -4.4253    9.7270 N   0  0  0  0  0  0  0  0  0  0  0  0
   12.2008   -3.5964    9.1683 C   0  0  0  0  0  0  0  0  0  0  0  0
   11.9306   -3.0857    7.8943 N   0  0  0  0  0  0  0  0  0  0  0  0
   10.8137   -3.4527    7.2507 C   0  0  0  0  0  0  0  0  0  0  0  0
    9.9513   -4.2936    7.8168 C   0  0  0  0  0  0  0  0  0  0  0  0
   10.1750   -4.7790    9.0356 C   0  0  0  0  0  0  0  0  0  0  0  0
    9.3633   -5.5340    9.5684 O   0  0  0  0  0  0  0  0  0  0  0  0
    8.9857   -4.5390    6.9354 N   0  0  0  0  0  0  0  0  0  0  0  0
    9.2454   -3.8489    5.8294 C   0  0  0  0  0  0  0  0  0  0  0  0
   10.3724   -3.1714    6.0291 N   0  0  0  0  0  0  0  0  0  0  0  0
  1  2  1  0  0  0  0
  1  6  1  0  0  0  0
  2  3  2  0  0  0  0
  3  4  1  0  0  0  0
  4  5  2  0  0  0  0
  4 10  1  0  0  0  0
  5  6  1  0  0  0  0
  5  8  1  0  0  0  0
  6  7  2  0  0  0  0
  8  9  1  0  0  0  0
  9 10  2  0  0  0  0
M  END
>  <CHROM.1>
10.41847699,-4.10058119,7.95825213,-1.18287975,-0.51883771,-1.11451538

>  <Name>
ligand

>  <RI>
0

>  <Rbt.Current_Directory>
/home/itssahil/PROJECTS/Mol_Feturizer/New_Systems/rnas/4NYD

>  <Rbt.Executable>
rbdock ($Id: //depot/dev/client3/rdock/2013.1/src/exe/rbdock.cxx#4 $)

>  <Rbt.Library>
libRbt.so (2013.1, Build901 2013/11/27)

>  <Rbt.Parameter_File>
/export/apps/rDock/src/rDock_2013.1_src/data/scripts/dock_solv.prm

>  <Rbt.Receptor>
prm/blind_docking_20.prm

>  <SCORE>
-15.3735

>  <SCORE.INTER>
-15.3735

>  <SCORE.INTER.CONST>
1

>  <SCORE.INTER.POLAR>
0

>  <SCORE.INTER.ROT>
0

>  <SCORE.INTER.SOLV>
3.0337

>  <SCORE.INTER.VDW>
-14.8602

>  <SCORE.INTER.norm>
-1.53735

>  <SCORE.INTRA>
0

>  <SCORE.INTRA.DIHEDRAL>
0

>  <SCORE.INTRA.DIHEDRAL.0>
0

>  <SCORE.INTRA.POLAR>
0

>  <SCORE.INTRA.POLAR.0>
0

>  <SCORE.INTRA.REPUL>
0

>  <SCORE.INTRA.REPUL.0>
0

>  <SCORE.INTRA.SOLV>
0

>  <SCORE.INTRA.SOLV.lig_0>
-4.1818

>  <SCORE.INTRA.VDW>
0

>  <SCORE.INTRA.VDW.0>
0

>  <SCORE.INTRA.norm>
0

>  <SCORE.RESTR>
0

>  <SCORE.RESTR.CAVITY>
0

>  <SCORE.RESTR.norm>
0

>  <SCORE.SYSTEM>
0

>  <SCORE.SYSTEM.CONST>
0

>  <SCORE.SYSTEM.DIHEDRAL>
0

>  <SCORE.SYSTEM.SOLV>
0

>  <SCORE.SYSTEM.norm>
0

>  <SCORE.heavy>
10

>  <SCORE.norm>
-1.53735

>  <RMSD>
10.523

$$$$
ligand
 OpenBabel11021811503D
libRbt.so/2013.1/901 2013/11/27
 10 11  0  0  0  0  0  0  0  0999 V2000
   11.3727   -4.4212    9.7045 N   0  0  0  0  0  0  0  0  0  0  0  0
   12.2235   -3.5923    9.1289 C   0  0  0  0  0  0  0  0  0  0  0  0
   11.9245   -3.0752    7.8640 N   0  0  0  0  0  0  0  0  0  0  0  0
   10.7915   -3.4362    7.2457 C   0  0  0  0  0  0  0  0  0  0  0  0
    9.9404   -4.2771    7.8285 C   0  0  0  0  0  0  0  0  0  0  0  0
   10.1917   -4.7686    9.0396 C   0  0  0  0  0  0  0  0  0  0  0  0
    9.3908   -5.5236    9.5883 O   0  0  0  0  0  0  0  0  0  0  0  0
    8.9533   -4.5160    6.9695 N   0  0  0  0  0  0  0  0  0  0  0  0
    9.1885   -3.8217    5.8606 C   0  0  0  0  0  0  0  0  0  0  0  0
   10.3219   -3.1483    6.0362 N   0  0  0  0  0  0  0  0  0  0  0  0
  1  2  1  0  0  0  0
  1  6  1  0  0  0  0
  2  3  2  0  0  0  0
  3  4  1  0  0  0  0
  4  5  2  0  0  0  0
  4 10  1  0  0  0  0
  5  6  1  0  0  0  0
  5  8  1  0  0  0  0
  6  7  2  0  0  0  0
  8  9  1  0  0  0  0
  9 10  2  0  0  0  0
M  END
>  <CHROM.1>
10.41140620,-4.08608809,7.95965652,-1.15984073,-0.50557644,-1.09883927

>  <Name>
ligand

>  <RI>
0

>  <Rbt.Current_Directory>
/home/itssahil/PROJECTS/Mol_Feturizer/New_Systems/rnas/4NYD

>  <Rbt.Executable>
rbdock ($Id: //depot/dev/client3/rdock/2013.1/src/exe/rbdock.cxx#4 $)

>  <Rbt.Library>
libRbt.so (2013.1, Build901 2013/11/27)

>  <Rbt.Parameter_File>
/export/apps/rDock/src/rDock_2013.1_src/data/scripts/dock_solv.prm

>  <Rbt.Receptor>
prm/blind_docking_20.prm

>  <SCORE>
-15.3351

>  <SCORE.INTER>
-15.3351

>  <SCORE.INTER.CONST>
1

>  <SCORE.INTER.POLAR>
0

>  <SCORE.INTER.ROT>
0

>  <SCORE.INTER.SOLV>
2.96683

>  <SCORE.INTER.VDW>
-14.8123

>  <SCORE.INTER.norm>
-1.53351

>  <SCORE.INTRA>
0

>  <SCORE.INTRA.DIHEDRAL>
0

>  <SCORE.INTRA.DIHEDRAL.0>
0

>  <SCORE.INTRA.POLAR>
0

>  <SCORE.INTRA.POLAR.0>
0

>  <SCORE.INTRA.REPUL>
0

>  <SCORE.INTRA.REPUL.0>
0

>  <SCORE.INTRA.SOLV>
0

>  <SCORE.INTRA.SOLV.lig_0>
-4.1818

>  <SCORE.INTRA.VDW>
0

>  <SCORE.INTRA.VDW.0>
0

>  <SCORE.INTRA.norm>
0

>  <SCORE.RESTR>
0

>  <SCORE.RESTR.CAVITY>
0

>  <SCORE.RESTR.norm>
0

>  <SCORE.SYSTEM>
0

>  <SCORE.SYSTEM.CONST>
0

>  <SCORE.SYSTEM.DIHEDRAL>
0

>  <SCORE.SYSTEM.SOLV>
0

>  <SCORE.SYSTEM.norm>
0

>  <SCORE.heavy>
10

>  <SCORE.norm>
-1.53351

>  <RMSD>
10.524

$$$$
ligand
 OpenBabel11021811503D
libRbt.so/2013.1/901 2013/11/27
 10 11  0  0  0  0  0  0  0  0999 V2000
   11.3573   -4.4309    9.6929 N   0  0  0  0  0  0  0  0  0  0  0  0
   12.2002   -3.5932    9.1183 C   0  0  0  0  0  0  0  0  0  0  0  0
   11.8979   -3.0805    7.8523 N   0  0  0  0  0  0  0  0  0  0  0  0
   10.7702   -3.4544    7.2322 C   0  0  0  0  0  0  0  0  0  0  0  0
    9.9271   -4.3041    7.8141 C   0  0  0  0  0  0  0  0  0  0  0  0
   10.1815   -4.7918    9.0261 C   0  0  0  0  0  0  0  0  0  0  0  0
    9.3878   -5.5550    9.5740 O   0  0  0  0  0  0  0  0  0  0  0  0
    8.9444   -4.5545    6.9534 N   0  0  0  0  0  0  0  0  0  0  0  0
    9.1741   -3.8586    5.8443 C   0  0  0  0  0  0  0  0  0  0  0  0
   10.2998   -3.1727    6.0216 N   0  0  0  0  0  0  0  0  0  0  0  0
  1  2  1  0  0  0  0
  1  6  1  0  0  0  0
  2  3  2  0  0  0  0
  3  4  1  0  0  0  0
  4  5  2  0  0  0  0
  4 10  1  0  0  0  0
  5  6  1  0  0  0  0
  5  8  1  0  0  0  0
  6  7  2  0  0  0  0
  8  9  1  0  0  0  0
  9 10  2  0  0  0  0
M  END
>  <CHROM.1>
10.39577262,-4.10781094,7.94600320,-1.15610362,-0.51617074,-1.09788116

>  <Name>
ligand

>  <RI>
0

>  <Rbt.Current_Directory>
/home/itssahil/PROJECTS/Mol_Feturizer/New_Systems/rnas/4NYD

>  <Rbt.Executable>
rbdock ($Id: //depot/dev/client3/rdock/2013.1/src/exe/rbdock.cxx#4 $)

>  <Rbt.Library>
libRbt.so (2013.1, Build901 2013/11/27)

>  <Rbt.Parameter_File>
/export/apps/rDock/src/rDock_2013.1_src/data/scripts/dock_solv.prm

>  <Rbt.Receptor>
prm/blind_docking_20.prm

>  <SCORE>
-15.3469

>  <SCORE.INTER>
-15.3469

>  <SCORE.INTER.CONST>
1

>  <SCORE.INTER.POLAR>
0

>  <SCORE.INTER.ROT>
0

>  <SCORE.INTER.SOLV>
2.96525

>  <SCORE.INTER.VDW>
-14.8197

>  <SCORE.INTER.norm>
-1.53469

>  <SCORE.INTRA>
0

>  <SCORE.INTRA.DIHEDRAL>
0

>  <SCORE.INTRA.DIHEDRAL.0>
0

>  <SCORE.INTRA.POLAR>
0

>  <SCORE.INTRA.POLAR.0>
0

>  <SCORE.INTRA.REPUL>
0

>  <SCORE.INTRA.REPUL.0>
0

>  <SCORE.INTRA.SOLV>
0

>  <SCORE.INTRA.SOLV.lig_0>
-4.1818

>  <SCORE.INTRA.VDW>
0

>  <SCORE.INTRA.VDW.0>
0

>  <SCORE.INTRA.norm>
0

>  <SCORE.RESTR>
0

>  <SCORE.RESTR.CAVITY>
0

>  <SCORE.RESTR.norm>
0

>  <SCORE.SYSTEM>
0

>  <SCORE.SYSTEM.CONST>
0

>  <SCORE.SYSTEM.DIHEDRAL>
0

>  <SCORE.SYSTEM.SOLV>
0

>  <SCORE.SYSTEM.norm>
0

>  <SCORE.heavy>
10

>  <SCORE.norm>
-1.53469

>  <RMSD>
10.533

$$$$
ligand
 OpenBabel11021811503D
libRbt.so/2013.1/901 2013/11/27
 10 11  0  0  0  0  0  0  0  0999 V2000
   11.3226   -4.4274    9.7260 N   0  0  0  0  0  0  0  0  0  0  0  0
   12.1874   -3.6006    9.1686 C   0  0  0  0  0  0  0  0  0  0  0  0
   11.9184   -3.0861    7.8958 N   0  0  0  0  0  0  0  0  0  0  0  0
   10.7998   -3.4475    7.2522 C   0  0  0  0  0  0  0  0  0  0  0  0
    9.9345   -4.2864    7.8170 C   0  0  0  0  0  0  0  0  0  0  0  0
   10.1572   -4.7753    9.0346 C   0  0  0  0  0  0  0  0  0  0  0  0
    9.3430   -5.5283    9.5663 O   0  0  0  0  0  0  0  0  0  0  0  0
    8.9675   -4.5263    6.9357 N   0  0  0  0  0  0  0  0  0  0  0  0
    9.2291   -3.8348    5.8310 C   0  0  0  0  0  0  0  0  0  0  0  0
   10.3588   -3.1620    6.0314 N   0  0  0  0  0  0  0  0  0  0  0  0
  1  2  1  0  0  0  0
  1  6  1  0  0  0  0
  2  3  2  0  0  0  0
  3  4  1  0  0  0  0
  4  5  2  0  0  0  0
  4 10  1  0  0  0  0
  5  6  1  0  0  0  0
  5  8  1  0  0  0  0
  6  7  2  0  0  0  0
  8  9  1  0  0  0  0
  9 10  2  0  0  0  0
M  END
>  <CHROM.1>
10.40254091,-4.09543964,7.95857677,-1.18416755,-0.51518174,-1.11302176

>  <Name>
ligand

>  <RI>
0

>  <Rbt.Current_Directory>
/home/itssahil/PROJECTS/Mol_Feturizer/New_Systems/rnas/4NYD

>  <Rbt.Executable>
rbdock ($Id: //depot/dev/client3/rdock/2013.1/src/exe/rbdock.cxx#4 $)

>  <Rbt.Library>
libRbt.so (2013.1, Build901 2013/11/27)

>  <Rbt.Parameter_File>
/export/apps/rDock/src/rDock_2013.1_src/data/scripts/dock_solv.prm

>  <Rbt.Receptor>
prm/blind_docking_20.prm

>  <SCORE>
-15.373

>  <SCORE.INTER>
-15.373

>  <SCORE.INTER.CONST>
1

>  <SCORE.INTER.POLAR>
0

>  <SCORE.INTER.ROT>
0

>  <SCORE.INTER.SOLV>
3.00552

>  <SCORE.INTER.VDW>
-14.8505

>  <SCORE.INTER.norm>
-1.5373

>  <SCORE.INTRA>
0

>  <SCORE.INTRA.DIHEDRAL>
0

>  <SCORE.INTRA.DIHEDRAL.0>
0

>  <SCORE.INTRA.POLAR>
0

>  <SCORE.INTRA.POLAR.0>
0

>  <SCORE.INTRA.REPUL>
0

>  <SCORE.INTRA.REPUL.0>
0

>  <SCORE.INTRA.SOLV>
0

>  <SCORE.INTRA.SOLV.lig_0>
-4.1818

>  <SCORE.INTRA.VDW>
0

>  <SCORE.INTRA.VDW.0>
0

>  <SCORE.INTRA.norm>
0

>  <SCORE.RESTR>
0

>  <SCORE.RESTR.CAVITY>
0

>  <SCORE.RESTR.norm>
0

>  <SCORE.SYSTEM>
0

>  <SCORE.SYSTEM.CONST>
0

>  <SCORE.SYSTEM.DIHEDRAL>
0

>  <SCORE.SYSTEM.SOLV>
0

>  <SCORE.SYSTEM.norm>
0

>  <SCORE.heavy>
10

>  <SCORE.norm>
-1.5373

>  <RMSD>
10.535

$$$$
ligand
 OpenBabel11021811503D
libRbt.so/2013.1/901 2013/11/27
 10 11  0  0  0  0  0  0  0  0999 V2000
   11.3041   -4.4108    9.6785 N   0  0  0  0  0  0  0  0  0  0  0  0
   12.1548   -3.5824    9.1019 C   0  0  0  0  0  0  0  0  0  0  0  0
   11.8628   -3.0787    7.8299 N   0  0  0  0  0  0  0  0  0  0  0  0
   10.7368   -3.4519    7.2062 C   0  0  0  0  0  0  0  0  0  0  0  0
    9.8858   -4.2923    7.7902 C   0  0  0  0  0  0  0  0  0  0  0  0
   10.1304   -4.7711    9.0077 C   0  0  0  0  0  0  0  0  0  0  0  0
    9.3295   -5.5255    9.5572 O   0  0  0  0  0  0  0  0  0  0  0  0
    8.9069   -4.5447    6.9257 N   0  0  0  0  0  0  0  0  0  0  0  0
    9.1469   -3.8594    5.8123 C   0  0  0  0  0  0  0  0  0  0  0  0
   10.2751   -3.1779    5.9905 N   0  0  0  0  0  0  0  0  0  0  0  0
  1  2  1  0  0  0  0
  1  6  1  0  0  0  0
  2  3  2  0  0  0  0
  3  4  1  0  0  0  0
  4  5  2  0  0  0  0
  4 10  1  0  0  0  0
  5  6  1  0  0  0  0
  5  8  1  0  0  0  0
  6  7  2  0  0  0  0
  8  9  1  0  0  0  0
  9 10  2  0  0  0  0
M  END
>  <CHROM.1>
10.35471068,-4.09732150,7.92318932,-1.16492428,-0.51414888,-1.11059853

>  <Name>
ligand

>  <RI>
0

>  <Rbt.Current_Directory>
/home/itssahil/PROJECTS/Mol_Feturizer/New_Systems/rnas/4NYD

>  <Rbt.Executable>
rbdock ($Id: //depot/dev/client3/rdock/2013.1/src/exe/rbdock.cxx#4 $)

>  <Rbt.Library>
libRbt.so (2013.1, Build901 2013/11/27)

>  <Rbt.Parameter_File>
/export/apps/rDock/src/rDock_2013.1_src/data/scripts/dock_solv.prm

>  <Rbt.Receptor>
prm/blind_docking_20.prm

>  <SCORE>
-15.3569

>  <SCORE.INTER>
-15.3569

>  <SCORE.INTER.CONST>
1

>  <SCORE.INTER.POLAR>
0

>  <SCORE.INTER.ROT>
0

>  <SCORE.INTER.SOLV>
2.96284

>  <SCORE.INTER.VDW>
-14.8255

>  <SCORE.INTER.norm>
-1.53569

>  <SCORE.INTRA>
0

>  <SCORE.INTRA.DIHEDRAL>
0

>  <SCORE.INTRA.DIHEDRAL.0>
0

>  <SCORE.INTRA.POLAR>
0

>  <SCORE.INTRA.POLAR.0>
0

>  <SCORE.INTRA.REPUL>
0

>  <SCORE.INTRA.REPUL.0>
0

>  <SCORE.INTRA.SOLV>
0

>  <SCORE.INTRA.SOLV.lig_0>
-4.1818

>  <SCORE.INTRA.VDW>
0

>  <SCORE.INTRA.VDW.0>
0

>  <SCORE.INTRA.norm>
0

>  <SCORE.RESTR>
0

>  <SCORE.RESTR.CAVITY>
0

>  <SCORE.RESTR.norm>
0

>  <SCORE.SYSTEM>
0

>  <SCORE.SYSTEM.CONST>
0

>  <SCORE.SYSTEM.DIHEDRAL>
0

>  <SCORE.SYSTEM.SOLV>
0

>  <SCORE.SYSTEM.norm>
0

>  <SCORE.heavy>
10

>  <SCORE.norm>
-1.53569

>  <RMSD>
10.555

$$$$
ligand
 OpenBabel11021811503D
libRbt.so/2013.1/901 2013/11/27
 10 11  0  0  0  0  0  0  0  0999 V2000
    8.6707   -4.5815    6.7331 N   0  0  0  0  0  0  0  0  0  0  0  0
    9.2381   -3.7230    5.9064 C   0  0  0  0  0  0  0  0  0  0  0  0
   10.4648   -3.1476    6.2545 N   0  0  0  0  0  0  0  0  0  0  0  0
   11.0409   -3.4596    7.4236 C   0  0  0  0  0  0  0  0  0  0  0  0
   10.4610   -4.3213    8.2558 C   0  0  0  0  0  0  0  0  0  0  0  0
    9.3034   -4.8973    7.9403 C   0  0  0  0  0  0  0  0  0  0  0  0
    8.7828   -5.7144    8.6979 O   0  0  0  0  0  0  0  0  0  0  0  0
   11.2040   -4.3847    9.3573 N   0  0  0  0  0  0  0  0  0  0  0  0
   12.2434   -3.5699    9.2066 C   0  0  0  0  0  0  0  0  0  0  0  0
   12.1451   -3.0044    8.0067 N   0  0  0  0  0  0  0  0  0  0  0  0
  1  2  1  0  0  0  0
  1  6  1  0  0  0  0
  2  3  2  0  0  0  0
  3  4  1  0  0  0  0
  4  5  2  0  0  0  0
  4 10  1  0  0  0  0
  5  6  1  0  0  0  0
  5  8  1  0  0  0  0
  6  7  2  0  0  0  0
  8  9  1  0  0  0  0
  9 10  2  0  0  0  0
M  END
>  <CHROM.1>
10.32399459,-4.11154462,7.79451050,-2.94992623,0.53332720,2.09510239

>  <Name>
ligand

>  <RI>
0

>  <Rbt.Current_Directory>
/home/itssahil/PROJECTS/Mol_Feturizer/New_Systems/rnas/4NYD

>  <Rbt.Executable>
rbdock ($Id: //depot/dev/client3/rdock/2013.1/src/exe/rbdock.cxx#4 $)

>  <Rbt.Library>
libRbt.so (2013.1, Build901 2013/11/27)

>  <Rbt.Parameter_File>
/export/apps/rDock/src/rDock_2013.1_src/data/scripts/dock_solv.prm

>  <Rbt.Receptor>
prm/blind_docking_20.prm

>  <SCORE>
-15.5337

>  <SCORE.INTER>
-15.5337

>  <SCORE.INTER.CONST>
1

>  <SCORE.INTER.POLAR>
0

>  <SCORE.INTER.ROT>
0

>  <SCORE.INTER.SOLV>
3.0178

>  <SCORE.INTER.VDW>
-14.9618

>  <SCORE.INTER.norm>
-1.55337

>  <SCORE.INTRA>
0

>  <SCORE.INTRA.DIHEDRAL>
0

>  <SCORE.INTRA.DIHEDRAL.0>
0

>  <SCORE.INTRA.POLAR>
0

>  <SCORE.INTRA.POLAR.0>
0

>  <SCORE.INTRA.REPUL>
0

>  <SCORE.INTRA.REPUL.0>
0

>  <SCORE.INTRA.SOLV>
0

>  <SCORE.INTRA.SOLV.lig_0>
-4.1818

>  <SCORE.INTRA.VDW>
0

>  <SCORE.INTRA.VDW.0>
0

>  <SCORE.INTRA.norm>
0

>  <SCORE.RESTR>
0

>  <SCORE.RESTR.CAVITY>
0

>  <SCORE.RESTR.norm>
0

>  <SCORE.SYSTEM>
0

>  <SCORE.SYSTEM.CONST>
0

>  <SCORE.SYSTEM.DIHEDRAL>
0

>  <SCORE.SYSTEM.SOLV>
0

>  <SCORE.SYSTEM.norm>
0

>  <SCORE.heavy>
10

>  <SCORE.norm>
-1.55337

>  <RMSD>
10.562

$$$$
ligand
 OpenBabel11021811503D
libRbt.so/2013.1/901 2013/11/27
 10 11  0  0  0  0  0  0  0  0999 V2000
   11.3066   -4.4029    9.7105 N   0  0  0  0  0  0  0  0  0  0  0  0
   12.1651   -3.5908    9.1225 C   0  0  0  0  0  0  0  0  0  0  0  0
   11.8793   -3.1048    7.8423 N   0  0  0  0  0  0  0  0  0  0  0  0
   10.7512   -3.4782    7.2226 C   0  0  0  0  0  0  0  0  0  0  0  0
    9.8923   -4.3021    7.8182 C   0  0  0  0  0  0  0  0  0  0  0  0
   10.1309   -4.7638    9.0434 C   0  0  0  0  0  0  0  0  0  0  0  0
    9.3228   -5.5028    9.6033 O   0  0  0  0  0  0  0  0  0  0  0  0
    8.9126   -4.5599    6.9561 N   0  0  0  0  0  0  0  0  0  0  0  0
    9.1601   -3.8942    5.8325 C   0  0  0  0  0  0  0  0  0  0  0  0
   10.2937   -3.2194    6.0019 N   0  0  0  0  0  0  0  0  0  0  0  0
  1  2  1  0  0  0  0
  1  6  1  0  0  0  0
  2  3  2  0  0  0  0
  3  4  1  0  0  0  0
  4  5  2  0  0  0  0
  4 10  1  0  0  0  0
  5  6  1  0  0  0  0
  5  8  1  0  0  0  0
  6  7  2  0  0  0  0
  8  9  1  0  0  0  0
  9 10  2  0  0  0  0
M  END
>  <CHROM.1>
10.36257330,-4.10909301,7.94892648,-1.17081420,-0.50729720,-1.12916284

>  <Name>
ligand

>  <RI>
0

>  <Rbt.Current_Directory>
/home/itssahil/PROJECTS/Mol_Feturizer/New_Systems/rnas/4NYD

>  <Rbt.Executable>
rbdock ($Id: //depot/dev/client3/rdock/2013.1/src/exe/rbdock.cxx#4 $)

>  <Rbt.Library>
libRbt.so (2013.1, Build901 2013/11/27)

>  <Rbt.Parameter_File>
/export/apps/rDock/src/rDock_2013.1_src/data/scripts/dock_solv.prm

>  <Rbt.Receptor>
prm/blind_docking_20.prm

>  <SCORE>
-15.3352

>  <SCORE.INTER>
-15.3352

>  <SCORE.INTER.CONST>
1

>  <SCORE.INTER.POLAR>
0

>  <SCORE.INTER.ROT>
0

>  <SCORE.INTER.SOLV>
2.99599

>  <SCORE.INTER.VDW>
-14.8221

>  <SCORE.INTER.norm>
-1.53352

>  <SCORE.INTRA>
0

>  <SCORE.INTRA.DIHEDRAL>
0

>  <SCORE.INTRA.DIHEDRAL.0>
0

>  <SCORE.INTRA.POLAR>
0

>  <SCORE.INTRA.POLAR.0>
0

>  <SCORE.INTRA.REPUL>
0

>  <SCORE.INTRA.REPUL.0>
0

>  <SCORE.INTRA.SOLV>
0

>  <SCORE.INTRA.SOLV.lig_0>
-4.1818

>  <SCORE.INTRA.VDW>
0

>  <SCORE.INTRA.VDW.0>
0

>  <SCORE.INTRA.norm>
0

>  <SCORE.RESTR>
0

>  <SCORE.RESTR.CAVITY>
0

>  <SCORE.RESTR.norm>
0

>  <SCORE.SYSTEM>
0

>  <SCORE.SYSTEM.CONST>
0

>  <SCORE.SYSTEM.DIHEDRAL>
0

>  <SCORE.SYSTEM.SOLV>
0

>  <SCORE.SYSTEM.norm>
0

>  <SCORE.heavy>
10

>  <SCORE.norm>
-1.53352

>  <RMSD>
10.564

$$$$
ligand
 OpenBabel11021811503D
libRbt.so/2013.1/901 2013/11/27
 10 11  0  0  0  0  0  0  0  0999 V2000
   11.2871   -4.3962    9.7035 N   0  0  0  0  0  0  0  0  0  0  0  0
   12.1511   -3.5880    9.1181 C   0  0  0  0  0  0  0  0  0  0  0  0
   11.8721   -3.1016    7.8366 N   0  0  0  0  0  0  0  0  0  0  0  0
   10.7447   -3.4708    7.2129 C   0  0  0  0  0  0  0  0  0  0  0  0
    9.8802   -4.2909    7.8059 C   0  0  0  0  0  0  0  0  0  0  0  0
   10.1124   -4.7527    9.0323 C   0  0  0  0  0  0  0  0  0  0  0  0
    9.2992   -5.4880    9.5896 O   0  0  0  0  0  0  0  0  0  0  0  0
    8.9027   -4.5451    6.9403 N   0  0  0  0  0  0  0  0  0  0  0  0
    9.1571   -3.8812    5.8172 C   0  0  0  0  0  0  0  0  0  0  0  0
   10.2928   -3.2110    5.9904 N   0  0  0  0  0  0  0  0  0  0  0  0
  1  2  1  0  0  0  0
  1  6  1  0  0  0  0
  2  3  2  0  0  0  0
  3  4  1  0  0  0  0
  4  5  2  0  0  0  0
  4 10  1  0  0  0  0
  5  6  1  0  0  0  0
  5  8  1  0  0  0  0
  6  7  2  0  0  0  0
  8  9  1  0  0  0  0
  9 10  2  0  0  0  0
M  END
>  <CHROM.1>
10.35082563,-4.09964218,7.93821936,-1.17665344,-0.50518335,-1.13264037

>  <Name>
ligand

>  <RI>
0

>  <Rbt.Current_Directory>
/home/itssahil/PROJECTS/Mol_Feturizer/New_Systems/rnas/4NYD

>  <Rbt.Executable>
rbdock ($Id: //depot/dev/client3/rdock/2013.1/src/exe/rbdock.cxx#4 $)

>  <Rbt.Library>
libRbt.so (2013.1, Build901 2013/11/27)

>  <Rbt.Parameter_File>
/export/apps/rDock/src/rDock_2013.1_src/data/scripts/dock_solv.prm

>  <Rbt.Receptor>
prm/blind_docking_20.prm

>  <SCORE>
-15.3368

>  <SCORE.INTER>
-15.3368

>  <SCORE.INTER.CONST>
1

>  <SCORE.INTER.POLAR>
0

>  <SCORE.INTER.ROT>
0

>  <SCORE.INTER.SOLV>
3.00471

>  <SCORE.INTER.VDW>
-14.8261

>  <SCORE.INTER.norm>
-1.53368

>  <SCORE.INTRA>
0

>  <SCORE.INTRA.DIHEDRAL>
0

>  <SCORE.INTRA.DIHEDRAL.0>
0

>  <SCORE.INTRA.POLAR>
0

>  <SCORE.INTRA.POLAR.0>
0

>  <SCORE.INTRA.REPUL>
0

>  <SCORE.INTRA.REPUL.0>
0

>  <SCORE.INTRA.SOLV>
0

>  <SCORE.INTRA.SOLV.lig_0>
-4.1818

>  <SCORE.INTRA.VDW>
0

>  <SCORE.INTRA.VDW.0>
0

>  <SCORE.INTRA.norm>
0

>  <SCORE.RESTR>
0

>  <SCORE.RESTR.CAVITY>
0

>  <SCORE.RESTR.norm>
0

>  <SCORE.SYSTEM>
0

>  <SCORE.SYSTEM.CONST>
0

>  <SCORE.SYSTEM.DIHEDRAL>
0

>  <SCORE.SYSTEM.SOLV>
0

>  <SCORE.SYSTEM.norm>
0

>  <SCORE.heavy>
10

>  <SCORE.norm>
-1.53368

>  <RMSD>
10.567

$$$$
ligand
 OpenBabel11021811503D
libRbt.so/2013.1/901 2013/11/27
 10 11  0  0  0  0  0  0  0  0999 V2000
   11.3301   -4.4218    9.7245 N   0  0  0  0  0  0  0  0  0  0  0  0
   12.1763   -3.5967    9.1367 C   0  0  0  0  0  0  0  0  0  0  0  0
   11.8779   -3.1058    7.8613 N   0  0  0  0  0  0  0  0  0  0  0  0
   10.7502   -3.4875    7.2457 C   0  0  0  0  0  0  0  0  0  0  0  0
    9.9037   -4.3244    7.8411 C   0  0  0  0  0  0  0  0  0  0  0  0
   10.1545   -4.7912    9.0620 C   0  0  0  0  0  0  0  0  0  0  0  0
    9.3577   -5.5424    9.6218 O   0  0  0  0  0  0  0  0  0  0  0  0
    8.9219   -4.5873    6.9831 N   0  0  0  0  0  0  0  0  0  0  0  0
    9.1557   -3.9120    5.8622 C   0  0  0  0  0  0  0  0  0  0  0  0
   10.2829   -3.2261    6.0294 N   0  0  0  0  0  0  0  0  0  0  0  0
  1  2  1  0  0  0  0
  1  6  1  0  0  0  0
  2  3  2  0  0  0  0
  3  4  1  0  0  0  0
  4  5  2  0  0  0  0
  4 10  1  0  0  0  0
  5  6  1  0  0  0  0
  5  8  1  0  0  0  0
  6  7  2  0  0  0  0
  8  9  1  0  0  0  0
  9 10  2  0  0  0  0
M  END
>  <CHROM.1>
10.37268075,-4.12711121,7.97030089,-1.15945894,-0.51453732,-1.11730595

>  <Name>
ligand

>  <RI>
0

>  <Rbt.Current_Directory>
/home/itssahil/PROJECTS/Mol_Feturizer/New_Systems/rnas/4NYD

>  <Rbt.Executable>
rbdock ($Id: //depot/dev/client3/rdock/2013.1/src/exe/rbdock.cxx#4 $)

>  <Rbt.Library>
libRbt.so (2013.1, Build901 2013/11/27)

>  <Rbt.Parameter_File>
/export/apps/rDock/src/rDock_2013.1_src/data/scripts/dock_solv.prm

>  <Rbt.Receptor>
prm/blind_docking_20.prm

>  <SCORE>
-15.3505

>  <SCORE.INTER>
-15.3505

>  <SCORE.INTER.CONST>
1

>  <SCORE.INTER.POLAR>
0

>  <SCORE.INTER.ROT>
0

>  <SCORE.INTER.SOLV>
2.95976

>  <SCORE.INTER.VDW>
-14.8202

>  <SCORE.INTER.norm>
-1.53505

>  <SCORE.INTRA>
0

>  <SCORE.INTRA.DIHEDRAL>
0

>  <SCORE.INTRA.DIHEDRAL.0>
0

>  <SCORE.INTRA.POLAR>
0

>  <SCORE.INTRA.POLAR.0>
0

>  <SCORE.INTRA.REPUL>
0

>  <SCORE.INTRA.REPUL.0>
0

>  <SCORE.INTRA.SOLV>
0

>  <SCORE.INTRA.SOLV.lig_0>
-4.1818

>  <SCORE.INTRA.VDW>
0

>  <SCORE.INTRA.VDW.0>
0

>  <SCORE.INTRA.norm>
0

>  <SCORE.RESTR>
0

>  <SCORE.RESTR.CAVITY>
0

>  <SCORE.RESTR.norm>
0

>  <SCORE.SYSTEM>
0

>  <SCORE.SYSTEM.CONST>
0

>  <SCORE.SYSTEM.DIHEDRAL>
0

>  <SCORE.SYSTEM.SOLV>
0

>  <SCORE.SYSTEM.norm>
0

>  <SCORE.heavy>
10

>  <SCORE.norm>
-1.53505

>  <RMSD>
10.568

$$$$
ligand
 OpenBabel11021811503D
libRbt.so/2013.1/901 2013/11/27
 10 11  0  0  0  0  0  0  0  0999 V2000
   11.3281   -4.4122    9.7187 N   0  0  0  0  0  0  0  0  0  0  0  0
   12.1766   -3.5932    9.1256 C   0  0  0  0  0  0  0  0  0  0  0  0
   11.8779   -3.1071    7.8484 N   0  0  0  0  0  0  0  0  0  0  0  0
   10.7477   -3.4873    7.2365 C   0  0  0  0  0  0  0  0  0  0  0  0
    9.8990   -4.3181    7.8371 C   0  0  0  0  0  0  0  0  0  0  0  0
   10.1500   -4.7802    9.0598 C   0  0  0  0  0  0  0  0  0  0  0  0
    9.3513   -5.5256    9.6244 O   0  0  0  0  0  0  0  0  0  0  0  0
    8.9147   -4.5812    6.9820 N   0  0  0  0  0  0  0  0  0  0  0  0
    9.1492   -3.9120    5.8576 C   0  0  0  0  0  0  0  0  0  0  0  0
   10.2794   -3.2297    6.0197 N   0  0  0  0  0  0  0  0  0  0  0  0
  1  2  1  0  0  0  0
  1  6  1  0  0  0  0
  2  3  2  0  0  0  0
  3  4  1  0  0  0  0
  4  5  2  0  0  0  0
  4 10  1  0  0  0  0
  5  6  1  0  0  0  0
  5  8  1  0  0  0  0
  6  7  2  0  0  0  0
  8  9  1  0  0  0  0
  9 10  2  0  0  0  0
M  END
>  <CHROM.1>
10.36895767,-4.12203709,7.96467056,-1.15967820,-0.51032285,-1.12207053

>  <Name>
ligand

>  <RI>
0

>  <Rbt.Current_Directory>
/home/itssahil/PROJECTS/Mol_Feturizer/New_Systems/rnas/4NYD

>  <Rbt.Executable>
rbdock ($Id: //depot/dev/client3/rdock/2013.1/src/exe/rbdock.cxx#4 $)

>  <Rbt.Library>
libRbt.so (2013.1, Build901 2013/11/27)

>  <Rbt.Parameter_File>
/export/apps/rDock/src/rDock_2013.1_src/data/scripts/dock_solv.prm

>  <Rbt.Receptor>
prm/blind_docking_20.prm

>  <SCORE>
-15.3505

>  <SCORE.INTER>
-15.3505

>  <SCORE.INTER.CONST>
1

>  <SCORE.INTER.POLAR>
0

>  <SCORE.INTER.ROT>
0

>  <SCORE.INTER.SOLV>
2.96977

>  <SCORE.INTER.VDW>
-14.8236

>  <SCORE.INTER.norm>
-1.53505

>  <SCORE.INTRA>
0

>  <SCORE.INTRA.DIHEDRAL>
0

>  <SCORE.INTRA.DIHEDRAL.0>
0

>  <SCORE.INTRA.POLAR>
0

>  <SCORE.INTRA.POLAR.0>
0

>  <SCORE.INTRA.REPUL>
0

>  <SCORE.INTRA.REPUL.0>
0

>  <SCORE.INTRA.SOLV>
0

>  <SCORE.INTRA.SOLV.lig_0>
-4.1818

>  <SCORE.INTRA.VDW>
0

>  <SCORE.INTRA.VDW.0>
0

>  <SCORE.INTRA.norm>
0

>  <SCORE.RESTR>
0

>  <SCORE.RESTR.CAVITY>
0

>  <SCORE.RESTR.norm>
0

>  <SCORE.SYSTEM>
0

>  <SCORE.SYSTEM.CONST>
0

>  <SCORE.SYSTEM.DIHEDRAL>
0

>  <SCORE.SYSTEM.SOLV>
0

>  <SCORE.SYSTEM.norm>
0

>  <SCORE.heavy>
10

>  <SCORE.norm>
-1.53505

>  <RMSD>
10.568

$$$$
ligand
 OpenBabel11021811503D
libRbt.so/2013.1/901 2013/11/27
 10 11  0  0  0  0  0  0  0  0999 V2000
   11.2703   -4.4191    9.7116 N   0  0  0  0  0  0  0  0  0  0  0  0
   12.1341   -3.5949    9.1487 C   0  0  0  0  0  0  0  0  0  0  0  0
   11.8640   -3.0885    7.8729 N   0  0  0  0  0  0  0  0  0  0  0  0
   10.7455   -3.4548    7.2320 C   0  0  0  0  0  0  0  0  0  0  0  0
    9.8812   -4.2910    7.8023 C   0  0  0  0  0  0  0  0  0  0  0  0
   10.1048   -4.7723    9.0228 C   0  0  0  0  0  0  0  0  0  0  0  0
    9.2915   -5.5228    9.5595 O   0  0  0  0  0  0  0  0  0  0  0  0
    8.9139   -4.5372    6.9230 N   0  0  0  0  0  0  0  0  0  0  0  0
    9.1745   -3.8522    5.8139 C   0  0  0  0  0  0  0  0  0  0  0  0
   10.3036   -3.1772    6.0098 N   0  0  0  0  0  0  0  0  0  0  0  0
  1  2  1  0  0  0  0
  1  6  1  0  0  0  0
  2  3  2  0  0  0  0
  3  4  1  0  0  0  0
  4  5  2  0  0  0  0
  4 10  1  0  0  0  0
  5  6  1  0  0  0  0
  5  8  1  0  0  0  0
  6  7  2  0  0  0  0
  8  9  1  0  0  0  0
  9 10  2  0  0  0  0
M  END
>  <CHROM.1>
10.34908656,-4.09880117,7.94252463,-1.18324603,-0.51579631,-1.11866996

>  <Name>
ligand

>  <RI>
0

>  <Rbt.Current_Directory>
/home/itssahil/PROJECTS/Mol_Feturizer/New_Systems/rnas/4NYD

>  <Rbt.Executable>
rbdock ($Id: //depot/dev/client3/rdock/2013.1/src/exe/rbdock.cxx#4 $)

>  <Rbt.Library>
libRbt.so (2013.1, Build901 2013/11/27)

>  <Rbt.Parameter_File>
/export/apps/rDock/src/rDock_2013.1_src/data/scripts/dock_solv.prm

>  <Rbt.Receptor>
prm/blind_docking_20.prm

>  <SCORE>
-15.3483

>  <SCORE.INTER>
-15.3483

>  <SCORE.INTER.CONST>
1

>  <SCORE.INTER.POLAR>
0

>  <SCORE.INTER.ROT>
0

>  <SCORE.INTER.SOLV>
2.96317

>  <SCORE.INTER.VDW>
-14.8199

>  <SCORE.INTER.norm>
-1.53483

>  <SCORE.INTRA>
0

>  <SCORE.INTRA.DIHEDRAL>
0

>  <SCORE.INTRA.DIHEDRAL.0>
0

>  <SCORE.INTRA.POLAR>
0

>  <SCORE.INTRA.POLAR.0>
0

>  <SCORE.INTRA.REPUL>
0

>  <SCORE.INTRA.REPUL.0>
0

>  <SCORE.INTRA.SOLV>
0

>  <SCORE.INTRA.SOLV.lig_0>
-4.1818

>  <SCORE.INTRA.VDW>
0

>  <SCORE.INTRA.VDW.0>
0

>  <SCORE.INTRA.norm>
0

>  <SCORE.RESTR>
0

>  <SCORE.RESTR.CAVITY>
0

>  <SCORE.RESTR.norm>
0

>  <SCORE.SYSTEM>
0

>  <SCORE.SYSTEM.CONST>
0

>  <SCORE.SYSTEM.DIHEDRAL>
0

>  <SCORE.SYSTEM.SOLV>
0

>  <SCORE.SYSTEM.norm>
0

>  <SCORE.heavy>
10

>  <SCORE.norm>
-1.53483

>  <RMSD>
10.571

$$$$
ligand
 OpenBabel11021811503D
libRbt.so/2013.1/901 2013/11/27
 10 11  0  0  0  0  0  0  0  0999 V2000
   11.3147   -4.4147    9.7194 N   0  0  0  0  0  0  0  0  0  0  0  0
   12.1620   -3.5929    9.1287 C   0  0  0  0  0  0  0  0  0  0  0  0
   11.8644   -3.1065    7.8513 N   0  0  0  0  0  0  0  0  0  0  0  0
   10.7365   -3.4893    7.2369 C   0  0  0  0  0  0  0  0  0  0  0  0
    9.8889   -4.3230    7.8352 C   0  0  0  0  0  0  0  0  0  0  0  0
   10.1389   -4.7853    9.0579 C   0  0  0  0  0  0  0  0  0  0  0  0
    9.3411   -5.5335    9.6204 O   0  0  0  0  0  0  0  0  0  0  0  0
    8.9070   -4.5880    6.9780 N   0  0  0  0  0  0  0  0  0  0  0  0
    9.1418   -3.9172    5.8546 C   0  0  0  0  0  0  0  0  0  0  0  0
   10.2697   -3.2319    6.0195 N   0  0  0  0  0  0  0  0  0  0  0  0
  1  2  1  0  0  0  0
  1  6  1  0  0  0  0
  2  3  2  0  0  0  0
  3  4  1  0  0  0  0
  4  5  2  0  0  0  0
  4 10  1  0  0  0  0
  5  6  1  0  0  0  0
  5  8  1  0  0  0  0
  6  7  2  0  0  0  0
  8  9  1  0  0  0  0
  9 10  2  0  0  0  0
M  END
>  <CHROM.1>
10.35805596,-4.12569047,7.96381766,-1.16028304,-0.51364125,-1.12151677

>  <Name>
ligand

>  <RI>
0

>  <Rbt.Current_Directory>
/home/itssahil/PROJECTS/Mol_Feturizer/New_Systems/rnas/4NYD

>  <Rbt.Executable>
rbdock ($Id: //depot/dev/client3/rdock/2013.1/src/exe/rbdock.cxx#4 $)

>  <Rbt.Library>
libRbt.so (2013.1, Build901 2013/11/27)

>  <Rbt.Parameter_File>
/export/apps/rDock/src/rDock_2013.1_src/data/scripts/dock_solv.prm

>  <Rbt.Receptor>
prm/blind_docking_20.prm

>  <SCORE>
-15.3428

>  <SCORE.INTER>
-15.3428

>  <SCORE.INTER.CONST>
1

>  <SCORE.INTER.POLAR>
0

>  <SCORE.INTER.ROT>
0

>  <SCORE.INTER.SOLV>
2.95736

>  <SCORE.INTER.VDW>
-14.8143

>  <SCORE.INTER.norm>
-1.53428

>  <SCORE.INTRA>
0

>  <SCORE.INTRA.DIHEDRAL>
0

>  <SCORE.INTRA.DIHEDRAL.0>
0

>  <SCORE.INTRA.POLAR>
0

>  <SCORE.INTRA.POLAR.0>
0

>  <SCORE.INTRA.REPUL>
0

>  <SCORE.INTRA.REPUL.0>
0

>  <SCORE.INTRA.SOLV>
0

>  <SCORE.INTRA.SOLV.lig_0>
-4.1818

>  <SCORE.INTRA.VDW>
0

>  <SCORE.INTRA.VDW.0>
0

>  <SCORE.INTRA.norm>
0

>  <SCORE.RESTR>
0

>  <SCORE.RESTR.CAVITY>
0

>  <SCORE.RESTR.norm>
0

>  <SCORE.SYSTEM>
0

>  <SCORE.SYSTEM.CONST>
0

>  <SCORE.SYSTEM.DIHEDRAL>
0

>  <SCORE.SYSTEM.SOLV>
0

>  <SCORE.SYSTEM.norm>
0

>  <SCORE.heavy>
10

>  <SCORE.norm>
-1.53428

>  <RMSD>
10.577

$$$$
ligand
 OpenBabel11021811503D
libRbt.so/2013.1/901 2013/11/27
 10 11  0  0  0  0  0  0  0  0999 V2000
    8.6959   -4.5996    6.6259 N   0  0  0  0  0  0  0  0  0  0  0  0
    9.2921   -3.7243    5.8381 C   0  0  0  0  0  0  0  0  0  0  0  0
   10.4911   -3.1358    6.2540 N   0  0  0  0  0  0  0  0  0  0  0  0
   11.0116   -3.4527    7.4477 C   0  0  0  0  0  0  0  0  0  0  0  0
   10.4027   -4.3315    8.2403 C   0  0  0  0  0  0  0  0  0  0  0  0
    9.2710   -4.9200    7.8604 C   0  0  0  0  0  0  0  0  0  0  0  0
    8.7245   -5.7526    8.5820 O   0  0  0  0  0  0  0  0  0  0  0  0
   11.0897   -4.3968    9.3775 N   0  0  0  0  0  0  0  0  0  0  0  0
   12.1235   -3.5660    9.2883 C   0  0  0  0  0  0  0  0  0  0  0  0
   12.0781   -2.9887    8.0909 N   0  0  0  0  0  0  0  0  0  0  0  0
  1  2  1  0  0  0  0
  1  6  1  0  0  0  0
  2  3  2  0  0  0  0
  3  4  1  0  0  0  0
  4  5  2  0  0  0  0
  4 10  1  0  0  0  0
  5  6  1  0  0  0  0
  5  8  1  0  0  0  0
  6  7  2  0  0  0  0
  8  9  1  0  0  0  0
  9 10  2  0  0  0  0
M  END
>  <CHROM.1>
10.28625854,-4.11858008,7.77483481,-2.90628210,0.57080949,2.08290278

>  <Name>
ligand

>  <RI>
0

>  <Rbt.Current_Directory>
/home/itssahil/PROJECTS/Mol_Feturizer/New_Systems/rnas/4NYD

>  <Rbt.Executable>
rbdock ($Id: //depot/dev/client3/rdock/2013.1/src/exe/rbdock.cxx#4 $)

>  <Rbt.Library>
libRbt.so (2013.1, Build901 2013/11/27)

>  <Rbt.Parameter_File>
/export/apps/rDock/src/rDock_2013.1_src/data/scripts/dock_solv.prm

>  <Rbt.Receptor>
prm/blind_docking_20.prm

>  <SCORE>
-15.4965

>  <SCORE.INTER>
-15.4965

>  <SCORE.INTER.CONST>
1

>  <SCORE.INTER.POLAR>
0

>  <SCORE.INTER.ROT>
0

>  <SCORE.INTER.SOLV>
2.96732

>  <SCORE.INTER.VDW>
-14.9201

>  <SCORE.INTER.norm>
-1.54965

>  <SCORE.INTRA>
0

>  <SCORE.INTRA.DIHEDRAL>
0

>  <SCORE.INTRA.DIHEDRAL.0>
0

>  <SCORE.INTRA.POLAR>
0

>  <SCORE.INTRA.POLAR.0>
0

>  <SCORE.INTRA.REPUL>
0

>  <SCORE.INTRA.REPUL.0>
0

>  <SCORE.INTRA.SOLV>
0

>  <SCORE.INTRA.SOLV.lig_0>
-4.1818

>  <SCORE.INTRA.VDW>
0

>  <SCORE.INTRA.VDW.0>
0

>  <SCORE.INTRA.norm>
0

>  <SCORE.RESTR>
0

>  <SCORE.RESTR.CAVITY>
0

>  <SCORE.RESTR.norm>
0

>  <SCORE.SYSTEM>
0

>  <SCORE.SYSTEM.CONST>
0

>  <SCORE.SYSTEM.DIHEDRAL>
0

>  <SCORE.SYSTEM.SOLV>
0

>  <SCORE.SYSTEM.norm>
0

>  <SCORE.heavy>
10

>  <SCORE.norm>
-1.54965

>  <RMSD>
10.579

$$$$
ligand
 OpenBabel11021811503D
libRbt.so/2013.1/901 2013/11/27
 10 11  0  0  0  0  0  0  0  0999 V2000
    8.6555   -4.6178    6.6901 N   0  0  0  0  0  0  0  0  0  0  0  0
    9.2229   -3.7543    5.8687 C   0  0  0  0  0  0  0  0  0  0  0  0
   10.4322   -3.1547    6.2359 N   0  0  0  0  0  0  0  0  0  0  0  0
   10.9918   -3.4491    7.4176 C   0  0  0  0  0  0  0  0  0  0  0  0
   10.4118   -4.3159    8.2444 C   0  0  0  0  0  0  0  0  0  0  0  0
    9.2709   -4.9148    7.9110 C   0  0  0  0  0  0  0  0  0  0  0  0
    8.7508   -5.7365    8.6639 O   0  0  0  0  0  0  0  0  0  0  0  0
   11.1349   -4.3592    9.3599 N   0  0  0  0  0  0  0  0  0  0  0  0
   12.1622   -3.5267    9.2234 C   0  0  0  0  0  0  0  0  0  0  0  0
   12.0764   -2.9705    8.0183 N   0  0  0  0  0  0  0  0  0  0  0  0
  1  2  1  0  0  0  0
  1  6  1  0  0  0  0
  2  3  2  0  0  0  0
  3  4  1  0  0  0  0
  4  5  2  0  0  0  0
  4 10  1  0  0  0  0
  5  6  1  0  0  0  0
  5  8  1  0  0  0  0
  6  7  2  0  0  0  0
  8  9  1  0  0  0  0
  9 10  2  0  0  0  0
M  END
>  <CHROM.1>
10.27975435,-4.11157876,7.77921638,-2.94127278,0.55826656,2.08430757

>  <Name>
ligand

>  <RI>
0

>  <Rbt.Current_Directory>
/home/itssahil/PROJECTS/Mol_Feturizer/New_Systems/rnas/4NYD

>  <Rbt.Executable>
rbdock ($Id: //depot/dev/client3/rdock/2013.1/src/exe/rbdock.cxx#4 $)

>  <Rbt.Library>
libRbt.so (2013.1, Build901 2013/11/27)

>  <Rbt.Parameter_File>
/export/apps/rDock/src/rDock_2013.1_src/data/scripts/dock_solv.prm

>  <Rbt.Receptor>
prm/blind_docking_20.prm

>  <SCORE>
-15.5398

>  <SCORE.INTER>
-15.5398

>  <SCORE.INTER.CONST>
1

>  <SCORE.INTER.POLAR>
0

>  <SCORE.INTER.ROT>
0

>  <SCORE.INTER.SOLV>
2.96594

>  <SCORE.INTER.VDW>
-14.9485

>  <SCORE.INTER.norm>
-1.55398

>  <SCORE.INTRA>
0

>  <SCORE.INTRA.DIHEDRAL>
0

>  <SCORE.INTRA.DIHEDRAL.0>
0

>  <SCORE.INTRA.POLAR>
0

>  <SCORE.INTRA.POLAR.0>
0

>  <SCORE.INTRA.REPUL>
0

>  <SCORE.INTRA.REPUL.0>
0

>  <SCORE.INTRA.SOLV>
0

>  <SCORE.INTRA.SOLV.lig_0>
-4.1818

>  <SCORE.INTRA.VDW>
0

>  <SCORE.INTRA.VDW.0>
0

>  <SCORE.INTRA.norm>
0

>  <SCORE.RESTR>
0

>  <SCORE.RESTR.CAVITY>
0

>  <SCORE.RESTR.norm>
0

>  <SCORE.SYSTEM>
0

>  <SCORE.SYSTEM.CONST>
0

>  <SCORE.SYSTEM.DIHEDRAL>
0

>  <SCORE.SYSTEM.SOLV>
0

>  <SCORE.SYSTEM.norm>
0

>  <SCORE.heavy>
10

>  <SCORE.norm>
-1.55398

>  <RMSD>
10.585

$$$$
ligand
 OpenBabel11021811503D
libRbt.so/2013.1/901 2013/11/27
 10 11  0  0  0  0  0  0  0  0999 V2000
    8.5813   -4.6194    6.6832 N   0  0  0  0  0  0  0  0  0  0  0  0
    9.1255   -3.7635    5.8384 C   0  0  0  0  0  0  0  0  0  0  0  0
   10.3479   -3.1659    6.1634 N   0  0  0  0  0  0  0  0  0  0  0  0
   10.9433   -3.4544    7.3289 C   0  0  0  0  0  0  0  0  0  0  0  0
   10.3867   -4.3136    8.1793 C   0  0  0  0  0  0  0  0  0  0  0  0
    9.2338   -4.9105    7.8860 C   0  0  0  0  0  0  0  0  0  0  0  0
    8.7349   -5.7253    8.6606 O   0  0  0  0  0  0  0  0  0  0  0  0
   11.1444   -4.3520    9.2719 N   0  0  0  0  0  0  0  0  0  0  0  0
   12.1697   -3.5241    9.0975 C   0  0  0  0  0  0  0  0  0  0  0  0
   12.0479   -2.9757    7.8919 N   0  0  0  0  0  0  0  0  0  0  0  0
  1  2  1  0  0  0  0
  1  6  1  0  0  0  0
  2  3  2  0  0  0  0
  3  4  1  0  0  0  0
  4  5  2  0  0  0  0
  4 10  1  0  0  0  0
  5  6  1  0  0  0  0
  5  8  1  0  0  0  0
  6  7  2  0  0  0  0
  8  9  1  0  0  0  0
  9 10  2  0  0  0  0
M  END
>  <CHROM.1>
10.24079837,-4.11185119,7.71715705,-2.97128907,0.53963762,2.09323241

>  <Name>
ligand

>  <RI>
0

>  <Rbt.Current_Directory>
/home/itssahil/PROJECTS/Mol_Feturizer/New_Systems/rnas/4NYD

>  <Rbt.Executable>
rbdock ($Id: //depot/dev/client3/rdock/2013.1/src/exe/rbdock.cxx#4 $)

>  <Rbt.Library>
libRbt.so (2013.1, Build901 2013/11/27)

>  <Rbt.Parameter_File>
/export/apps/rDock/src/rDock_2013.1_src/data/scripts/dock_solv.prm

>  <Rbt.Receptor>
prm/blind_docking_20.prm

>  <SCORE>
-15.5908

>  <SCORE.INTER>
-15.5908

>  <SCORE.INTER.CONST>
1

>  <SCORE.INTER.POLAR>
0

>  <SCORE.INTER.ROT>
0

>  <SCORE.INTER.SOLV>
2.98175

>  <SCORE.INTER.VDW>
-14.9878

>  <SCORE.INTER.norm>
-1.55908

>  <SCORE.INTRA>
0

>  <SCORE.INTRA.DIHEDRAL>
0

>  <SCORE.INTRA.DIHEDRAL.0>
0

>  <SCORE.INTRA.POLAR>
0

>  <SCORE.INTRA.POLAR.0>
0

>  <SCORE.INTRA.REPUL>
0

>  <SCORE.INTRA.REPUL.0>
0

>  <SCORE.INTRA.SOLV>
0

>  <SCORE.INTRA.SOLV.lig_0>
-4.1818

>  <SCORE.INTRA.VDW>
0

>  <SCORE.INTRA.VDW.0>
0

>  <SCORE.INTRA.norm>
0

>  <SCORE.RESTR>
0

>  <SCORE.RESTR.CAVITY>
0

>  <SCORE.RESTR.norm>
0

>  <SCORE.SYSTEM>
0

>  <SCORE.SYSTEM.CONST>
0

>  <SCORE.SYSTEM.DIHEDRAL>
0

>  <SCORE.SYSTEM.SOLV>
0

>  <SCORE.SYSTEM.norm>
0

>  <SCORE.heavy>
10

>  <SCORE.norm>
-1.55908

>  <RMSD>
10.589

$$$$
ligand
 OpenBabel11021811503D
libRbt.so/2013.1/901 2013/11/27
 10 11  0  0  0  0  0  0  0  0999 V2000
    8.6162   -4.5563    6.5703 N   0  0  0  0  0  0  0  0  0  0  0  0
    9.2292   -3.6953    5.7796 C   0  0  0  0  0  0  0  0  0  0  0  0
   10.4419   -3.1327    6.1914 N   0  0  0  0  0  0  0  0  0  0  0  0
   10.9588   -3.4593    7.3840 C   0  0  0  0  0  0  0  0  0  0  0  0
   10.3330   -4.3234    8.1796 C   0  0  0  0  0  0  0  0  0  0  0  0
    9.1877   -4.8876    7.8036 C   0  0  0  0  0  0  0  0  0  0  0  0
    8.6250   -5.7070    8.5280 O   0  0  0  0  0  0  0  0  0  0  0  0
   11.0216   -4.4022    9.3149 N   0  0  0  0  0  0  0  0  0  0  0  0
   12.0732   -3.5944    9.2216 C   0  0  0  0  0  0  0  0  0  0  0  0
   12.0370   -3.0179    8.0235 N   0  0  0  0  0  0  0  0  0  0  0  0
  1  2  1  0  0  0  0
  1  6  1  0  0  0  0
  2  3  2  0  0  0  0
  3  4  1  0  0  0  0
  4  5  2  0  0  0  0
  4 10  1  0  0  0  0
  5  6  1  0  0  0  0
  5  8  1  0  0  0  0
  6  7  2  0  0  0  0
  8  9  1  0  0  0  0
  9 10  2  0  0  0  0
M  END
>  <CHROM.1>
10.21994136,-4.10867808,7.71409630,-2.89658600,0.55030554,2.07637084

>  <Name>
ligand

>  <RI>
0

>  <Rbt.Current_Directory>
/home/itssahil/PROJECTS/Mol_Feturizer/New_Systems/rnas/4NYD

>  <Rbt.Executable>
rbdock ($Id: //depot/dev/client3/rdock/2013.1/src/exe/rbdock.cxx#4 $)

>  <Rbt.Library>
libRbt.so (2013.1, Build901 2013/11/27)

>  <Rbt.Parameter_File>
/export/apps/rDock/src/rDock_2013.1_src/data/scripts/dock_solv.prm

>  <Rbt.Receptor>
prm/blind_docking_80.prm

>  <SCORE>
-15.5349

>  <SCORE.INTER>
-15.5349

>  <SCORE.INTER.CONST>
1

>  <SCORE.INTER.POLAR>
0

>  <SCORE.INTER.ROT>
0

>  <SCORE.INTER.SOLV>
2.9797

>  <SCORE.INTER.VDW>
-14.9498

>  <SCORE.INTER.norm>
-1.55349

>  <SCORE.INTRA>
0

>  <SCORE.INTRA.DIHEDRAL>
0

>  <SCORE.INTRA.DIHEDRAL.0>
0

>  <SCORE.INTRA.POLAR>
0

>  <SCORE.INTRA.POLAR.0>
0

>  <SCORE.INTRA.REPUL>
0

>  <SCORE.INTRA.REPUL.0>
0

>  <SCORE.INTRA.SOLV>
0

>  <SCORE.INTRA.SOLV.lig_0>
-4.1818

>  <SCORE.INTRA.VDW>
0

>  <SCORE.INTRA.VDW.0>
0

>  <SCORE.INTRA.norm>
0

>  <SCORE.RESTR>
0

>  <SCORE.RESTR.CAVITY>
0

>  <SCORE.RESTR.norm>
0

>  <SCORE.SYSTEM>
0

>  <SCORE.SYSTEM.CONST>
0

>  <SCORE.SYSTEM.DIHEDRAL>
0

>  <SCORE.SYSTEM.SOLV>
0

>  <SCORE.SYSTEM.norm>
0

>  <SCORE.heavy>
10

>  <SCORE.norm>
-1.55349

>  <RMSD>
10.605

$$$$
ligand
 OpenBabel11021811503D
libRbt.so/2013.1/901 2013/11/27
 10 11  0  0  0  0  0  0  0  0999 V2000
    8.5754   -4.5622    6.6591 N   0  0  0  0  0  0  0  0  0  0  0  0
    9.1855   -3.7569    5.8096 C   0  0  0  0  0  0  0  0  0  0  0  0
   10.4150   -3.1925    6.1655 N   0  0  0  0  0  0  0  0  0  0  0  0
   10.9510   -3.4607    7.3642 C   0  0  0  0  0  0  0  0  0  0  0  0
   10.3281   -4.2686    8.2190 C   0  0  0  0  0  0  0  0  0  0  0  0
    9.1667   -4.8336    7.8977 C   0  0  0  0  0  0  0  0  0  0  0  0
    8.6063   -5.6019    8.6776 O   0  0  0  0  0  0  0  0  0  0  0  0
   11.0384   -4.2955    9.3433 N   0  0  0  0  0  0  0  0  0  0  0  0
   12.1003   -3.5118    9.1844 C   0  0  0  0  0  0  0  0  0  0  0  0
   12.0487   -3.0024    7.9569 N   0  0  0  0  0  0  0  0  0  0  0  0
  1  2  1  0  0  0  0
  1  6  1  0  0  0  0
  2  3  2  0  0  0  0
  3  4  1  0  0  0  0
  4  5  2  0  0  0  0
  4 10  1  0  0  0  0
  5  6  1  0  0  0  0
  5  8  1  0  0  0  0
  6  7  2  0  0  0  0
  8  9  1  0  0  0  0
  9 10  2  0  0  0  0
M  END
>  <CHROM.1>
10.20896663,-4.07827729,7.74453780,-2.90850935,0.52678117,2.02656373

>  <Name>
ligand

>  <RI>
0

>  <Rbt.Current_Directory>
/home/itssahil/PROJECTS/Mol_Feturizer/New_Systems/rnas/4NYD

>  <Rbt.Executable>
rbdock ($Id: //depot/dev/client3/rdock/2013.1/src/exe/rbdock.cxx#4 $)

>  <Rbt.Library>
libRbt.so (2013.1, Build901 2013/11/27)

>  <Rbt.Parameter_File>
/export/apps/rDock/src/rDock_2013.1_src/data/scripts/dock_solv.prm

>  <Rbt.Receptor>
prm/blind_docking_20.prm

>  <SCORE>
-15.5266

>  <SCORE.INTER>
-15.5266

>  <SCORE.INTER.CONST>
1

>  <SCORE.INTER.POLAR>
0

>  <SCORE.INTER.ROT>
0

>  <SCORE.INTER.SOLV>
3.08221

>  <SCORE.INTER.VDW>
-14.9785

>  <SCORE.INTER.norm>
-1.55266

>  <SCORE.INTRA>
0

>  <SCORE.INTRA.DIHEDRAL>
0

>  <SCORE.INTRA.DIHEDRAL.0>
0

>  <SCORE.INTRA.POLAR>
0

>  <SCORE.INTRA.POLAR.0>
0

>  <SCORE.INTRA.REPUL>
0

>  <SCORE.INTRA.REPUL.0>
0

>  <SCORE.INTRA.SOLV>
0

>  <SCORE.INTRA.SOLV.lig_0>
-4.1818

>  <SCORE.INTRA.VDW>
0

>  <SCORE.INTRA.VDW.0>
0

>  <SCORE.INTRA.norm>
0

>  <SCORE.RESTR>
0

>  <SCORE.RESTR.CAVITY>
0

>  <SCORE.RESTR.norm>
0

>  <SCORE.SYSTEM>
0

>  <SCORE.SYSTEM.CONST>
0

>  <SCORE.SYSTEM.DIHEDRAL>
0

>  <SCORE.SYSTEM.SOLV>
0

>  <SCORE.SYSTEM.norm>
0

>  <SCORE.heavy>
10

>  <SCORE.norm>
-1.55266

>  <RMSD>
10.623

$$$$
ligand
 OpenBabel11021811503D
libRbt.so/2013.1/901 2013/11/27
 10 11  0  0  0  0  0  0  0  0999 V2000
    8.5590   -4.5225    6.6030 N   0  0  0  0  0  0  0  0  0  0  0  0
    9.1847   -3.7037    5.7782 C   0  0  0  0  0  0  0  0  0  0  0  0
   10.4160   -3.1595    6.1586 N   0  0  0  0  0  0  0  0  0  0  0  0
   10.9380   -3.4606    7.3557 C   0  0  0  0  0  0  0  0  0  0  0  0
   10.2995   -4.2822    8.1856 C   0  0  0  0  0  0  0  0  0  0  0  0
    9.1359   -4.8284    7.8403 C   0  0  0  0  0  0  0  0  0  0  0  0
    8.5609   -5.6092    8.5969 O   0  0  0  0  0  0  0  0  0  0  0  0
   10.9988   -4.3420    9.3155 N   0  0  0  0  0  0  0  0  0  0  0  0
   12.0694   -3.5650    9.1848 C   0  0  0  0  0  0  0  0  0  0  0  0
   12.0343   -3.0268    7.9691 N   0  0  0  0  0  0  0  0  0  0  0  0
  1  2  1  0  0  0  0
  1  6  1  0  0  0  0
  2  3  2  0  0  0  0
  3  4  1  0  0  0  0
  4  5  2  0  0  0  0
  4 10  1  0  0  0  0
  5  6  1  0  0  0  0
  5  8  1  0  0  0  0
  6  7  2  0  0  0  0
  8  9  1  0  0  0  0
  9 10  2  0  0  0  0
M  END
>  <CHROM.1>
10.18663133,-4.07971885,7.71456818,-2.89387391,0.52249038,2.04251990

>  <Name>
ligand

>  <RI>
0

>  <Rbt.Current_Directory>
/home/itssahil/PROJECTS/Mol_Feturizer/New_Systems/rnas/4NYD

>  <Rbt.Executable>
rbdock ($Id: //depot/dev/client3/rdock/2013.1/src/exe/rbdock.cxx#4 $)

>  <Rbt.Library>
libRbt.so (2013.1, Build901 2013/11/27)

>  <Rbt.Parameter_File>
/export/apps/rDock/src/rDock_2013.1_src/data/scripts/dock_solv.prm

>  <Rbt.Receptor>
prm/blind_docking_20.prm

>  <SCORE>
-15.5507

>  <SCORE.INTER>
-15.5507

>  <SCORE.INTER.CONST>
1

>  <SCORE.INTER.POLAR>
0

>  <SCORE.INTER.ROT>
0

>  <SCORE.INTER.SOLV>
3.0531

>  <SCORE.INTER.VDW>
-14.9849

>  <SCORE.INTER.norm>
-1.55507

>  <SCORE.INTRA>
0

>  <SCORE.INTRA.DIHEDRAL>
0

>  <SCORE.INTRA.DIHEDRAL.0>
0

>  <SCORE.INTRA.POLAR>
0

>  <SCORE.INTRA.POLAR.0>
0

>  <SCORE.INTRA.REPUL>
0

>  <SCORE.INTRA.REPUL.0>
0

>  <SCORE.INTRA.SOLV>
0

>  <SCORE.INTRA.SOLV.lig_0>
-4.1818

>  <SCORE.INTRA.VDW>
0

>  <SCORE.INTRA.VDW.0>
0

>  <SCORE.INTRA.norm>
0

>  <SCORE.RESTR>
0

>  <SCORE.RESTR.CAVITY>
0

>  <SCORE.RESTR.norm>
0

>  <SCORE.SYSTEM>
0

>  <SCORE.SYSTEM.CONST>
0

>  <SCORE.SYSTEM.DIHEDRAL>
0

>  <SCORE.SYSTEM.SOLV>
0

>  <SCORE.SYSTEM.norm>
0

>  <SCORE.heavy>
10

>  <SCORE.norm>
-1.55507

>  <RMSD>
10.631

$$$$
ligand
 OpenBabel11021811503D
libRbt.so/2013.1/901 2013/11/27
 10 11  0  0  0  0  0  0  0  0999 V2000
    8.5544   -4.5322    6.6417 N   0  0  0  0  0  0  0  0  0  0  0  0
    9.1726   -3.7168    5.8078 C   0  0  0  0  0  0  0  0  0  0  0  0
   10.4058   -3.1686    6.1761 N   0  0  0  0  0  0  0  0  0  0  0  0
   10.9371   -3.4623    7.3709 C   0  0  0  0  0  0  0  0  0  0  0  0
   10.3061   -4.2803    8.2100 C   0  0  0  0  0  0  0  0  0  0  0  0
    9.1410   -4.8304    7.8764 C   0  0  0  0  0  0  0  0  0  0  0  0
    8.5729   -5.6080    8.6414 O   0  0  0  0  0  0  0  0  0  0  0  0
   11.0139   -4.3329    9.3350 N   0  0  0  0  0  0  0  0  0  0  0  0
   12.0822   -3.5549    9.1922 C   0  0  0  0  0  0  0  0  0  0  0  0
   12.0371   -3.0233    7.9738 N   0  0  0  0  0  0  0  0  0  0  0  0
  1  2  1  0  0  0  0
  1  6  1  0  0  0  0
  2  3  2  0  0  0  0
  3  4  1  0  0  0  0
  4  5  2  0  0  0  0
  4 10  1  0  0  0  0
  5  6  1  0  0  0  0
  5  8  1  0  0  0  0
  6  7  2  0  0  0  0
  8  9  1  0  0  0  0
  9 10  2  0  0  0  0
M  END
>  <CHROM.1>
10.18946035,-4.08064554,7.73873981,-2.90236433,0.52061889,2.04131325

>  <Name>
ligand

>  <RI>
0

>  <Rbt.Current_Directory>
/home/itssahil/PROJECTS/Mol_Feturizer/New_Systems/rnas/4NYD

>  <Rbt.Executable>
rbdock ($Id: //depot/dev/client3/rdock/2013.1/src/exe/rbdock.cxx#4 $)

>  <Rbt.Library>
libRbt.so (2013.1, Build901 2013/11/27)

>  <Rbt.Parameter_File>
/export/apps/rDock/src/rDock_2013.1_src/data/scripts/dock_solv.prm

>  <Rbt.Receptor>
prm/blind_docking_20.prm

>  <SCORE>
-15.5216

>  <SCORE.INTER>
-15.5216

>  <SCORE.INTER.CONST>
1

>  <SCORE.INTER.POLAR>
0

>  <SCORE.INTER.ROT>
0

>  <SCORE.INTER.SOLV>
3.04239

>  <SCORE.INTER.VDW>
-14.9619

>  <SCORE.INTER.norm>
-1.55216

>  <SCORE.INTRA>
0

>  <SCORE.INTRA.DIHEDRAL>
0

>  <SCORE.INTRA.DIHEDRAL.0>
0

>  <SCORE.INTRA.POLAR>
0

>  <SCORE.INTRA.POLAR.0>
0

>  <SCORE.INTRA.REPUL>
0

>  <SCORE.INTRA.REPUL.0>
0

>  <SCORE.INTRA.SOLV>
0

>  <SCORE.INTRA.SOLV.lig_0>
-4.1818

>  <SCORE.INTRA.VDW>
0

>  <SCORE.INTRA.VDW.0>
0

>  <SCORE.INTRA.norm>
0

>  <SCORE.RESTR>
0

>  <SCORE.RESTR.CAVITY>
0

>  <SCORE.RESTR.norm>
0

>  <SCORE.SYSTEM>
0

>  <SCORE.SYSTEM.CONST>
0

>  <SCORE.SYSTEM.DIHEDRAL>
0

>  <SCORE.SYSTEM.SOLV>
0

>  <SCORE.SYSTEM.norm>
0

>  <SCORE.heavy>
10

>  <SCORE.norm>
-1.55216

>  <RMSD>
10.640

$$$$
ligand
 OpenBabel11021811503D
libRbt.so/2013.1/901 2013/11/27
 10 11  0  0  0  0  0  0  0  0999 V2000
    8.5306   -4.5407    6.6592 N   0  0  0  0  0  0  0  0  0  0  0  0
    9.1235   -3.7082    5.8238 C   0  0  0  0  0  0  0  0  0  0  0  0
   10.3569   -3.1499    6.1756 N   0  0  0  0  0  0  0  0  0  0  0  0
   10.9139   -3.4514    7.3567 C   0  0  0  0  0  0  0  0  0  0  0  0
   10.3084   -4.2868    8.1974 C   0  0  0  0  0  0  0  0  0  0  0  0
    9.1437   -4.8466    7.8790 C   0  0  0  0  0  0  0  0  0  0  0  0
    8.5991   -5.6399    8.6450 O   0  0  0  0  0  0  0  0  0  0  0  0
   11.0377   -4.3443    9.3083 N   0  0  0  0  0  0  0  0  0  0  0  0
   12.0941   -3.5521    9.1550 C   0  0  0  0  0  0  0  0  0  0  0  0
   12.0200   -3.0067    7.9442 N   0  0  0  0  0  0  0  0  0  0  0  0
  1  2  1  0  0  0  0
  1  6  1  0  0  0  0
  2  3  2  0  0  0  0
  3  4  1  0  0  0  0
  4  5  2  0  0  0  0
  4 10  1  0  0  0  0
  5  6  1  0  0  0  0
  5  8  1  0  0  0  0
  6  7  2  0  0  0  0
  8  9  1  0  0  0  0
  9 10  2  0  0  0  0
M  END
>  <CHROM.1>
10.18057622,-4.08292565,7.73089789,-2.92776097,0.52230380,2.06593762

>  <Name>
ligand

>  <RI>
0

>  <Rbt.Current_Directory>
/home/itssahil/PROJECTS/Mol_Feturizer/New_Systems/rnas/4NYD

>  <Rbt.Executable>
rbdock ($Id: //depot/dev/client3/rdock/2013.1/src/exe/rbdock.cxx#4 $)

>  <Rbt.Library>
libRbt.so (2013.1, Build901 2013/11/27)

>  <Rbt.Parameter_File>
/export/apps/rDock/src/rDock_2013.1_src/data/scripts/dock_solv.prm

>  <Rbt.Receptor>
prm/blind_docking_20.prm

>  <SCORE>
-15.5007

>  <SCORE.INTER>
-15.5007

>  <SCORE.INTER.CONST>
1

>  <SCORE.INTER.POLAR>
0

>  <SCORE.INTER.ROT>
0

>  <SCORE.INTER.SOLV>
2.98287

>  <SCORE.INTER.VDW>
-14.9281

>  <SCORE.INTER.norm>
-1.55007

>  <SCORE.INTRA>
0

>  <SCORE.INTRA.DIHEDRAL>
0

>  <SCORE.INTRA.DIHEDRAL.0>
0

>  <SCORE.INTRA.POLAR>
0

>  <SCORE.INTRA.POLAR.0>
0

>  <SCORE.INTRA.REPUL>
0

>  <SCORE.INTRA.REPUL.0>
0

>  <SCORE.INTRA.SOLV>
0

>  <SCORE.INTRA.SOLV.lig_0>
-4.1818

>  <SCORE.INTRA.VDW>
0

>  <SCORE.INTRA.VDW.0>
0

>  <SCORE.INTRA.norm>
0

>  <SCORE.RESTR>
0

>  <SCORE.RESTR.CAVITY>
0

>  <SCORE.RESTR.norm>
0

>  <SCORE.SYSTEM>
0

>  <SCORE.SYSTEM.CONST>
0

>  <SCORE.SYSTEM.DIHEDRAL>
0

>  <SCORE.SYSTEM.SOLV>
0

>  <SCORE.SYSTEM.norm>
0

>  <SCORE.heavy>
10

>  <SCORE.norm>
-1.55007

>  <RMSD>
10.644

$$$$
ligand
 OpenBabel11021811503D
libRbt.so/2013.1/901 2013/11/27
 10 11  0  0  0  0  0  0  0  0999 V2000
    8.5564   -4.5666    6.6086 N   0  0  0  0  0  0  0  0  0  0  0  0
    9.1893   -3.7572    5.7799 C   0  0  0  0  0  0  0  0  0  0  0  0
   10.4129   -3.2015    6.1685 N   0  0  0  0  0  0  0  0  0  0  0  0
   10.9201   -3.4820    7.3769 C   0  0  0  0  0  0  0  0  0  0  0  0
   10.2743   -4.2940    8.2105 C   0  0  0  0  0  0  0  0  0  0  0  0
    9.1180   -4.8510    7.8580 C   0  0  0  0  0  0  0  0  0  0  0  0
    8.5366   -5.6231    8.6186 O   0  0  0  0  0  0  0  0  0  0  0  0
   10.9586   -4.3335    9.3505 N   0  0  0  0  0  0  0  0  0  0  0  0
   12.0273   -3.5534    9.2224 C   0  0  0  0  0  0  0  0  0  0  0  0
   12.0060   -3.0337    7.9983 N   0  0  0  0  0  0  0  0  0  0  0  0
  1  2  1  0  0  0  0
  1  6  1  0  0  0  0
  2  3  2  0  0  0  0
  3  4  1  0  0  0  0
  4  5  2  0  0  0  0
  4 10  1  0  0  0  0
  5  6  1  0  0  0  0
  5  8  1  0  0  0  0
  6  7  2  0  0  0  0
  8  9  1  0  0  0  0
  9 10  2  0  0  0  0
M  END
>  <CHROM.1>
10.16684355,-4.09924123,7.73502377,-2.88241376,0.53271974,2.02166815

>  <Name>
ligand

>  <RI>
0

>  <Rbt.Current_Directory>
/home/itssahil/PROJECTS/Mol_Feturizer/New_Systems/rnas/4NYD

>  <Rbt.Executable>
rbdock ($Id: //depot/dev/client3/rdock/2013.1/src/exe/rbdock.cxx#4 $)

>  <Rbt.Library>
libRbt.so (2013.1, Build901 2013/11/27)

>  <Rbt.Parameter_File>
/export/apps/rDock/src/rDock_2013.1_src/data/scripts/dock_solv.prm

>  <Rbt.Receptor>
prm/blind_docking_20.prm

>  <SCORE>
-15.525

>  <SCORE.INTER>
-15.525

>  <SCORE.INTER.CONST>
1

>  <SCORE.INTER.POLAR>
0

>  <SCORE.INTER.ROT>
0

>  <SCORE.INTER.SOLV>
3.03403

>  <SCORE.INTER.VDW>
-14.9613

>  <SCORE.INTER.norm>
-1.5525

>  <SCORE.INTRA>
0

>  <SCORE.INTRA.DIHEDRAL>
0

>  <SCORE.INTRA.DIHEDRAL.0>
0

>  <SCORE.INTRA.POLAR>
0

>  <SCORE.INTRA.POLAR.0>
0

>  <SCORE.INTRA.REPUL>
0

>  <SCORE.INTRA.REPUL.0>
0

>  <SCORE.INTRA.SOLV>
0

>  <SCORE.INTRA.SOLV.lig_0>
-4.1818

>  <SCORE.INTRA.VDW>
0

>  <SCORE.INTRA.VDW.0>
0

>  <SCORE.INTRA.norm>
0

>  <SCORE.RESTR>
0

>  <SCORE.RESTR.CAVITY>
0

>  <SCORE.RESTR.norm>
0

>  <SCORE.SYSTEM>
0

>  <SCORE.SYSTEM.CONST>
0

>  <SCORE.SYSTEM.DIHEDRAL>
0

>  <SCORE.SYSTEM.SOLV>
0

>  <SCORE.SYSTEM.norm>
0

>  <SCORE.heavy>
10

>  <SCORE.norm>
-1.5525

>  <RMSD>
10.655

$$$$
ligand
 OpenBabel11021811503D
libRbt.so/2013.1/901 2013/11/27
 10 11  0  0  0  0  0  0  0  0999 V2000
    8.5333   -4.5523    6.6124 N   0  0  0  0  0  0  0  0  0  0  0  0
    9.1678   -3.7504    5.7777 C   0  0  0  0  0  0  0  0  0  0  0  0
   10.4019   -3.2098    6.1543 N   0  0  0  0  0  0  0  0  0  0  0  0
   10.9176   -3.4971    7.3574 C   0  0  0  0  0  0  0  0  0  0  0  0
   10.2703   -4.3016    8.1972 C   0  0  0  0  0  0  0  0  0  0  0  0
    9.1039   -4.8442    7.8561 C   0  0  0  0  0  0  0  0  0  0  0  0
    8.5206   -5.6094    8.6221 O   0  0  0  0  0  0  0  0  0  0  0  0
   10.9654   -4.3499    9.3302 N   0  0  0  0  0  0  0  0  0  0  0  0
   12.0423   -3.5829    9.1918 C   0  0  0  0  0  0  0  0  0  0  0  0
   12.0151   -3.0625    7.9681 N   0  0  0  0  0  0  0  0  0  0  0  0
  1  2  1  0  0  0  0
  1  6  1  0  0  0  0
  2  3  2  0  0  0  0
  3  4  1  0  0  0  0
  4  5  2  0  0  0  0
  4 10  1  0  0  0  0
  5  6  1  0  0  0  0
  5  8  1  0  0  0  0
  6  7  2  0  0  0  0
  8  9  1  0  0  0  0
  9 10  2  0  0  0  0
M  END
>  <CHROM.1>
10.16051958,-4.10526147,7.72286416,-2.88659759,0.51732417,2.02416871

>  <Name>
ligand

>  <RI>
0

>  <Rbt.Current_Directory>
/home/itssahil/PROJECTS/Mol_Feturizer/New_Systems/rnas/4NYD

>  <Rbt.Executable>
rbdock ($Id: //depot/dev/client3/rdock/2013.1/src/exe/rbdock.cxx#4 $)

>  <Rbt.Library>
libRbt.so (2013.1, Build901 2013/11/27)

>  <Rbt.Parameter_File>
/export/apps/rDock/src/rDock_2013.1_src/data/scripts/dock_solv.prm

>  <Rbt.Receptor>
prm/blind_docking_20.prm

>  <SCORE>
-15.5566

>  <SCORE.INTER>
-15.5566

>  <SCORE.INTER.CONST>
1

>  <SCORE.INTER.POLAR>
0

>  <SCORE.INTER.ROT>
0

>  <SCORE.INTER.SOLV>
3.05628

>  <SCORE.INTER.VDW>
-14.9898

>  <SCORE.INTER.norm>
-1.55566

>  <SCORE.INTRA>
0

>  <SCORE.INTRA.DIHEDRAL>
0

>  <SCORE.INTRA.DIHEDRAL.0>
0

>  <SCORE.INTRA.POLAR>
0

>  <SCORE.INTRA.POLAR.0>
0

>  <SCORE.INTRA.REPUL>
0

>  <SCORE.INTRA.REPUL.0>
0

>  <SCORE.INTRA.SOLV>
0

>  <SCORE.INTRA.SOLV.lig_0>
-4.1818

>  <SCORE.INTRA.VDW>
0

>  <SCORE.INTRA.VDW.0>
0

>  <SCORE.INTRA.norm>
0

>  <SCORE.RESTR>
0

>  <SCORE.RESTR.CAVITY>
0

>  <SCORE.RESTR.norm>
0

>  <SCORE.SYSTEM>
0

>  <SCORE.SYSTEM.CONST>
0

>  <SCORE.SYSTEM.DIHEDRAL>
0

>  <SCORE.SYSTEM.SOLV>
0

>  <SCORE.SYSTEM.norm>
0

>  <SCORE.heavy>
10

>  <SCORE.norm>
-1.55566

>  <RMSD>
10.657

$$$$
ligand
 OpenBabel11021811503D
libRbt.so/2013.1/901 2013/11/27
 10 11  0  0  0  0  0  0  0  0999 V2000
    8.5369   -4.5598    6.6101 N   0  0  0  0  0  0  0  0  0  0  0  0
    9.1699   -3.7543    5.7778 C   0  0  0  0  0  0  0  0  0  0  0  0
   10.4011   -3.2094    6.1576 N   0  0  0  0  0  0  0  0  0  0  0  0
   10.9156   -3.4964    7.3613 C   0  0  0  0  0  0  0  0  0  0  0  0
   10.2698   -4.3046    8.1987 C   0  0  0  0  0  0  0  0  0  0  0  0
    9.1061   -4.8513    7.8545 C   0  0  0  0  0  0  0  0  0  0  0  0
    8.5243   -5.6199    8.6183 O   0  0  0  0  0  0  0  0  0  0  0  0
   10.9628   -4.3518    9.3330 N   0  0  0  0  0  0  0  0  0  0  0  0
   12.0370   -3.5805    9.1978 C   0  0  0  0  0  0  0  0  0  0  0  0
   12.0102   -3.0584    7.9748 N   0  0  0  0  0  0  0  0  0  0  0  0
  1  2  1  0  0  0  0
  1  6  1  0  0  0  0
  2  3  2  0  0  0  0
  3  4  1  0  0  0  0
  4  5  2  0  0  0  0
  4 10  1  0  0  0  0
  5  6  1  0  0  0  0
  5  8  1  0  0  0  0
  6  7  2  0  0  0  0
  8  9  1  0  0  0  0
  9 10  2  0  0  0  0
M  END
>  <CHROM.1>
10.16016633,-4.10802881,7.72439741,-2.88651776,0.52169826,2.02554946

>  <Name>
ligand

>  <RI>
0

>  <Rbt.Current_Directory>
/home/itssahil/PROJECTS/Mol_Feturizer/New_Systems/rnas/4NYD

>  <Rbt.Executable>
rbdock ($Id: //depot/dev/client3/rdock/2013.1/src/exe/rbdock.cxx#4 $)

>  <Rbt.Library>
libRbt.so (2013.1, Build901 2013/11/27)

>  <Rbt.Parameter_File>
/export/apps/rDock/src/rDock_2013.1_src/data/scripts/dock_solv.prm

>  <Rbt.Receptor>
prm/blind_docking_20.prm

>  <SCORE>
-15.5575

>  <SCORE.INTER>
-15.5575

>  <SCORE.INTER.CONST>
1

>  <SCORE.INTER.POLAR>
0

>  <SCORE.INTER.ROT>
0

>  <SCORE.INTER.SOLV>
3.04384

>  <SCORE.INTER.VDW>
-14.9863

>  <SCORE.INTER.norm>
-1.55575

>  <SCORE.INTRA>
0

>  <SCORE.INTRA.DIHEDRAL>
0

>  <SCORE.INTRA.DIHEDRAL.0>
0

>  <SCORE.INTRA.POLAR>
0

>  <SCORE.INTRA.POLAR.0>
0

>  <SCORE.INTRA.REPUL>
0

>  <SCORE.INTRA.REPUL.0>
0

>  <SCORE.INTRA.SOLV>
0

>  <SCORE.INTRA.SOLV.lig_0>
-4.1818

>  <SCORE.INTRA.VDW>
0

>  <SCORE.INTRA.VDW.0>
0

>  <SCORE.INTRA.norm>
0

>  <SCORE.RESTR>
0

>  <SCORE.RESTR.CAVITY>
0

>  <SCORE.RESTR.norm>
0

>  <SCORE.SYSTEM>
0

>  <SCORE.SYSTEM.CONST>
0

>  <SCORE.SYSTEM.DIHEDRAL>
0

>  <SCORE.SYSTEM.SOLV>
0

>  <SCORE.SYSTEM.norm>
0

>  <SCORE.heavy>
10

>  <SCORE.norm>
-1.55575

>  <RMSD>
10.658

$$$$
ligand
 OpenBabel11021811503D
libRbt.so/2013.1/901 2013/11/27
 10 11  0  0  0  0  0  0  0  0999 V2000
    8.5672   -4.5802    6.6265 N   0  0  0  0  0  0  0  0  0  0  0  0
    9.2082   -3.7823    5.7929 C   0  0  0  0  0  0  0  0  0  0  0  0
   10.4339   -3.2310    6.1809 N   0  0  0  0  0  0  0  0  0  0  0  0
   10.9351   -3.5040    7.3935 C   0  0  0  0  0  0  0  0  0  0  0  0
   10.2811   -4.3044    8.2320 C   0  0  0  0  0  0  0  0  0  0  0  0
    9.1226   -4.8571    7.8804 C   0  0  0  0  0  0  0  0  0  0  0  0
    8.5334   -5.6186    8.6457 O   0  0  0  0  0  0  0  0  0  0  0  0
   10.9612   -4.3381    9.3747 N   0  0  0  0  0  0  0  0  0  0  0  0
   12.0354   -3.5661    9.2435 C   0  0  0  0  0  0  0  0  0  0  0  0
   12.0217   -3.0573    8.0147 N   0  0  0  0  0  0  0  0  0  0  0  0
  1  2  1  0  0  0  0
  1  6  1  0  0  0  0
  2  3  2  0  0  0  0
  3  4  1  0  0  0  0
  4  5  2  0  0  0  0
  4 10  1  0  0  0  0
  5  6  1  0  0  0  0
  5  8  1  0  0  0  0
  6  7  2  0  0  0  0
  8  9  1  0  0  0  0
  9 10  2  0  0  0  0
M  END
>  <CHROM.1>
10.17663950,-4.11321277,7.75443438,-2.87551102,0.52838873,2.00927170

>  <Name>
ligand

>  <RI>
0

>  <Rbt.Current_Directory>
/home/itssahil/PROJECTS/Mol_Feturizer/New_Systems/rnas/4NYD

>  <Rbt.Executable>
rbdock ($Id: //depot/dev/client3/rdock/2013.1/src/exe/rbdock.cxx#4 $)

>  <Rbt.Library>
libRbt.so (2013.1, Build901 2013/11/27)

>  <Rbt.Parameter_File>
/export/apps/rDock/src/rDock_2013.1_src/data/scripts/dock_solv.prm

>  <Rbt.Receptor>
prm/blind_docking_20.prm

>  <SCORE>
-15.5666

>  <SCORE.INTER>
-15.5666

>  <SCORE.INTER.CONST>
1

>  <SCORE.INTER.POLAR>
0

>  <SCORE.INTER.ROT>
0

>  <SCORE.INTER.SOLV>
3.0607

>  <SCORE.INTER.VDW>
-14.998

>  <SCORE.INTER.norm>
-1.55666

>  <SCORE.INTRA>
0

>  <SCORE.INTRA.DIHEDRAL>
0

>  <SCORE.INTRA.DIHEDRAL.0>
0

>  <SCORE.INTRA.POLAR>
0

>  <SCORE.INTRA.POLAR.0>
0

>  <SCORE.INTRA.REPUL>
0

>  <SCORE.INTRA.REPUL.0>
0

>  <SCORE.INTRA.SOLV>
0

>  <SCORE.INTRA.SOLV.lig_0>
-4.1818

>  <SCORE.INTRA.VDW>
0

>  <SCORE.INTRA.VDW.0>
0

>  <SCORE.INTRA.norm>
0

>  <SCORE.RESTR>
0

>  <SCORE.RESTR.CAVITY>
0

>  <SCORE.RESTR.norm>
0

>  <SCORE.SYSTEM>
0

>  <SCORE.SYSTEM.CONST>
0

>  <SCORE.SYSTEM.DIHEDRAL>
0

>  <SCORE.SYSTEM.SOLV>
0

>  <SCORE.SYSTEM.norm>
0

>  <SCORE.heavy>
10

>  <SCORE.norm>
-1.55666

>  <RMSD>
10.658

$$$$
ligand
 OpenBabel11021811503D
libRbt.so/2013.1/901 2013/11/27
 10 11  0  0  0  0  0  0  0  0999 V2000
    8.5413   -4.5645    6.6231 N   0  0  0  0  0  0  0  0  0  0  0  0
    9.1711   -3.7598    5.7875 C   0  0  0  0  0  0  0  0  0  0  0  0
   10.4006   -3.2093    6.1646 N   0  0  0  0  0  0  0  0  0  0  0  0
   10.9166   -3.4899    7.3692 C   0  0  0  0  0  0  0  0  0  0  0  0
   10.2740   -4.2972    8.2099 C   0  0  0  0  0  0  0  0  0  0  0  0
    9.1121   -4.8492    7.8683 C   0  0  0  0  0  0  0  0  0  0  0  0
    8.5333   -5.6169    8.6352 O   0  0  0  0  0  0  0  0  0  0  0  0
   10.9677   -4.3378    9.3441 N   0  0  0  0  0  0  0  0  0  0  0  0
   12.0391   -3.5631    9.2054 C   0  0  0  0  0  0  0  0  0  0  0  0
   12.0099   -3.0458    7.9805 N   0  0  0  0  0  0  0  0  0  0  0  0
  1  2  1  0  0  0  0
  1  6  1  0  0  0  0
  2  3  2  0  0  0  0
  3  4  1  0  0  0  0
  4  5  2  0  0  0  0
  4 10  1  0  0  0  0
  5  6  1  0  0  0  0
  5  8  1  0  0  0  0
  6  7  2  0  0  0  0
  8  9  1  0  0  0  0
  9 10  2  0  0  0  0
M  END
>  <CHROM.1>
10.16346762,-4.10279199,7.73492891,-2.88875662,0.52463063,2.02290487

>  <Name>
ligand

>  <RI>
0

>  <Rbt.Current_Directory>
/home/itssahil/PROJECTS/Mol_Feturizer/New_Systems/rnas/4NYD

>  <Rbt.Executable>
rbdock ($Id: //depot/dev/client3/rdock/2013.1/src/exe/rbdock.cxx#4 $)

>  <Rbt.Library>
libRbt.so (2013.1, Build901 2013/11/27)

>  <Rbt.Parameter_File>
/export/apps/rDock/src/rDock_2013.1_src/data/scripts/dock_solv.prm

>  <Rbt.Receptor>
prm/blind_docking_20.prm

>  <SCORE>
-15.5414

>  <SCORE.INTER>
-15.5414

>  <SCORE.INTER.CONST>
1

>  <SCORE.INTER.POLAR>
0

>  <SCORE.INTER.ROT>
0

>  <SCORE.INTER.SOLV>
3.04023

>  <SCORE.INTER.VDW>
-14.9743

>  <SCORE.INTER.norm>
-1.55414

>  <SCORE.INTRA>
0

>  <SCORE.INTRA.DIHEDRAL>
0

>  <SCORE.INTRA.DIHEDRAL.0>
0

>  <SCORE.INTRA.POLAR>
0

>  <SCORE.INTRA.POLAR.0>
0

>  <SCORE.INTRA.REPUL>
0

>  <SCORE.INTRA.REPUL.0>
0

>  <SCORE.INTRA.SOLV>
0

>  <SCORE.INTRA.SOLV.lig_0>
-4.1818

>  <SCORE.INTRA.VDW>
0

>  <SCORE.INTRA.VDW.0>
0

>  <SCORE.INTRA.norm>
0

>  <SCORE.RESTR>
0

>  <SCORE.RESTR.CAVITY>
0

>  <SCORE.RESTR.norm>
0

>  <SCORE.SYSTEM>
0

>  <SCORE.SYSTEM.CONST>
0

>  <SCORE.SYSTEM.DIHEDRAL>
0

>  <SCORE.SYSTEM.SOLV>
0

>  <SCORE.SYSTEM.norm>
0

>  <SCORE.heavy>
10

>  <SCORE.norm>
-1.55414

>  <RMSD>
10.659

$$$$
ligand
 OpenBabel11021811503D
libRbt.so/2013.1/901 2013/11/27
 10 11  0  0  0  0  0  0  0  0999 V2000
    8.5343   -4.5700    6.6221 N   0  0  0  0  0  0  0  0  0  0  0  0
    9.1711   -3.7749    5.7827 C   0  0  0  0  0  0  0  0  0  0  0  0
   10.3993   -3.2232    6.1622 N   0  0  0  0  0  0  0  0  0  0  0  0
   10.9072   -3.4932    7.3726 C   0  0  0  0  0  0  0  0  0  0  0  0
   10.2576   -4.2909    8.2171 C   0  0  0  0  0  0  0  0  0  0  0  0
    9.0967   -4.8438    7.8736 C   0  0  0  0  0  0  0  0  0  0  0  0
    8.5115   -5.6029    8.6443 O   0  0  0  0  0  0  0  0  0  0  0  0
   10.9441   -4.3219    9.3559 N   0  0  0  0  0  0  0  0  0  0  0  0
   12.0180   -3.5508    9.2165 C   0  0  0  0  0  0  0  0  0  0  0  0
   11.9976   -3.0453    7.9864 N   0  0  0  0  0  0  0  0  0  0  0  0
  1  2  1  0  0  0  0
  1  6  1  0  0  0  0
  2  3  2  0  0  0  0
  3  4  1  0  0  0  0
  4  5  2  0  0  0  0
  4 10  1  0  0  0  0
  5  6  1  0  0  0  0
  5  8  1  0  0  0  0
  6  7  2  0  0  0  0
  8  9  1  0  0  0  0
  9 10  2  0  0  0  0
M  END
>  <CHROM.1>
10.15047149,-4.10091166,7.73957708,-2.88119056,0.52543866,2.00938070

>  <Name>
ligand

>  <RI>
0

>  <Rbt.Current_Directory>
/home/itssahil/PROJECTS/Mol_Feturizer/New_Systems/rnas/4NYD

>  <Rbt.Executable>
rbdock ($Id: //depot/dev/client3/rdock/2013.1/src/exe/rbdock.cxx#4 $)

>  <Rbt.Library>
libRbt.so (2013.1, Build901 2013/11/27)

>  <Rbt.Parameter_File>
/export/apps/rDock/src/rDock_2013.1_src/data/scripts/dock_solv.prm

>  <Rbt.Receptor>
prm/blind_docking_20.prm

>  <SCORE>
-15.5639

>  <SCORE.INTER>
-15.5639

>  <SCORE.INTER.CONST>
1

>  <SCORE.INTER.POLAR>
0

>  <SCORE.INTER.ROT>
0

>  <SCORE.INTER.SOLV>
3.04729

>  <SCORE.INTER.VDW>
-14.9917

>  <SCORE.INTER.norm>
-1.55639

>  <SCORE.INTRA>
0

>  <SCORE.INTRA.DIHEDRAL>
0

>  <SCORE.INTRA.DIHEDRAL.0>
0

>  <SCORE.INTRA.POLAR>
0

>  <SCORE.INTRA.POLAR.0>
0

>  <SCORE.INTRA.REPUL>
0

>  <SCORE.INTRA.REPUL.0>
0

>  <SCORE.INTRA.SOLV>
0

>  <SCORE.INTRA.SOLV.lig_0>
-4.1818

>  <SCORE.INTRA.VDW>
0

>  <SCORE.INTRA.VDW.0>
0

>  <SCORE.INTRA.norm>
0

>  <SCORE.RESTR>
0

>  <SCORE.RESTR.CAVITY>
0

>  <SCORE.RESTR.norm>
0

>  <SCORE.SYSTEM>
0

>  <SCORE.SYSTEM.CONST>
0

>  <SCORE.SYSTEM.DIHEDRAL>
0

>  <SCORE.SYSTEM.SOLV>
0

>  <SCORE.SYSTEM.norm>
0

>  <SCORE.heavy>
10

>  <SCORE.norm>
-1.55639

>  <RMSD>
10.671

$$$$
ligand
 OpenBabel11021811503D
libRbt.so/2013.1/901 2013/11/27
 10 11  0  0  0  0  0  0  0  0999 V2000
    8.5324   -4.5693    6.6207 N   0  0  0  0  0  0  0  0  0  0  0  0
    9.1707   -3.7756    5.7810 C   0  0  0  0  0  0  0  0  0  0  0  0
   10.3993   -3.2249    6.1610 N   0  0  0  0  0  0  0  0  0  0  0  0
   10.9059   -3.4943    7.3722 C   0  0  0  0  0  0  0  0  0  0  0  0
   10.2546   -4.2905    8.2168 C   0  0  0  0  0  0  0  0  0  0  0  0
    9.0934   -4.8425    7.8729 C   0  0  0  0  0  0  0  0  0  0  0  0
    8.5068   -5.6001    8.6438 O   0  0  0  0  0  0  0  0  0  0  0  0
   10.9402   -4.3211    9.3563 N   0  0  0  0  0  0  0  0  0  0  0  0
   12.0150   -3.5515    9.2170 C   0  0  0  0  0  0  0  0  0  0  0  0
   11.9962   -3.0471    7.9864 N   0  0  0  0  0  0  0  0  0  0  0  0
  1  2  1  0  0  0  0
  1  6  1  0  0  0  0
  2  3  2  0  0  0  0
  3  4  1  0  0  0  0
  4  5  2  0  0  0  0
  4 10  1  0  0  0  0
  5  6  1  0  0  0  0
  5  8  1  0  0  0  0
  6  7  2  0  0  0  0
  8  9  1  0  0  0  0
  9 10  2  0  0  0  0
M  END
>  <CHROM.1>
10.14814294,-4.10086089,7.73902738,-2.87977740,0.52478738,2.00772523

>  <Name>
ligand

>  <RI>
0

>  <Rbt.Current_Directory>
/home/itssahil/PROJECTS/Mol_Feturizer/New_Systems/rnas/4NYD

>  <Rbt.Executable>
rbdock ($Id: //depot/dev/client3/rdock/2013.1/src/exe/rbdock.cxx#4 $)

>  <Rbt.Library>
libRbt.so (2013.1, Build901 2013/11/27)

>  <Rbt.Parameter_File>
/export/apps/rDock/src/rDock_2013.1_src/data/scripts/dock_solv.prm

>  <Rbt.Receptor>
prm/blind_docking_20.prm

>  <SCORE>
-15.5637

>  <SCORE.INTER>
-15.5637

>  <SCORE.INTER.CONST>
1

>  <SCORE.INTER.POLAR>
0

>  <SCORE.INTER.ROT>
0

>  <SCORE.INTER.SOLV>
3.04928

>  <SCORE.INTER.VDW>
-14.9922

>  <SCORE.INTER.norm>
-1.55637

>  <SCORE.INTRA>
0

>  <SCORE.INTRA.DIHEDRAL>
0

>  <SCORE.INTRA.DIHEDRAL.0>
0

>  <SCORE.INTRA.POLAR>
0

>  <SCORE.INTRA.POLAR.0>
0

>  <SCORE.INTRA.REPUL>
0

>  <SCORE.INTRA.REPUL.0>
0

>  <SCORE.INTRA.SOLV>
0

>  <SCORE.INTRA.SOLV.lig_0>
-4.1818

>  <SCORE.INTRA.VDW>
0

>  <SCORE.INTRA.VDW.0>
0

>  <SCORE.INTRA.norm>
0

>  <SCORE.RESTR>
0

>  <SCORE.RESTR.CAVITY>
0

>  <SCORE.RESTR.norm>
0

>  <SCORE.SYSTEM>
0

>  <SCORE.SYSTEM.CONST>
0

>  <SCORE.SYSTEM.DIHEDRAL>
0

>  <SCORE.SYSTEM.SOLV>
0

>  <SCORE.SYSTEM.norm>
0

>  <SCORE.heavy>
10

>  <SCORE.norm>
-1.55637

>  <RMSD>
10.672

$$$$
ligand
 OpenBabel11021811503D
libRbt.so/2013.1/901 2013/11/27
 10 11  0  0  0  0  0  0  0  0999 V2000
    8.5214   -4.5357    6.5356 N   0  0  0  0  0  0  0  0  0  0  0  0
    9.1661   -3.7168    5.7257 C   0  0  0  0  0  0  0  0  0  0  0  0
   10.3843   -3.1665    6.1379 N   0  0  0  0  0  0  0  0  0  0  0  0
   10.8746   -3.4619    7.3497 C   0  0  0  0  0  0  0  0  0  0  0  0
   10.2169   -4.2836    8.1644 C   0  0  0  0  0  0  0  0  0  0  0  0
    9.0655   -4.8356    7.7892 C   0  0  0  0  0  0  0  0  0  0  0  0
    8.4732   -5.6165    8.5322 O   0  0  0  0  0  0  0  0  0  0  0  0
   10.8854   -4.3373    9.3131 N   0  0  0  0  0  0  0  0  0  0  0  0
   11.9561   -3.5563    9.2094 C   0  0  0  0  0  0  0  0  0  0  0  0
   11.9520   -3.0219    7.9915 N   0  0  0  0  0  0  0  0  0  0  0  0
  1  2  1  0  0  0  0
  1  6  1  0  0  0  0
  2  3  2  0  0  0  0
  3  4  1  0  0  0  0
  4  5  2  0  0  0  0
  4 10  1  0  0  0  0
  5  6  1  0  0  0  0
  5  8  1  0  0  0  0
  6  7  2  0  0  0  0
  8  9  1  0  0  0  0
  9 10  2  0  0  0  0
M  END
>  <CHROM.1>
10.11622017,-4.08301404,7.68985079,-2.86764660,0.53831512,2.02624834

>  <Name>
ligand

>  <RI>
0

>  <Rbt.Current_Directory>
/home/itssahil/PROJECTS/Mol_Feturizer/New_Systems/rnas/4NYD

>  <Rbt.Executable>
rbdock ($Id: //depot/dev/client3/rdock/2013.1/src/exe/rbdock.cxx#4 $)

>  <Rbt.Library>
libRbt.so (2013.1, Build901 2013/11/27)

>  <Rbt.Parameter_File>
/export/apps/rDock/src/rDock_2013.1_src/data/scripts/dock_solv.prm

>  <Rbt.Receptor>
prm/blind_docking_20.prm

>  <SCORE>
-15.5429

>  <SCORE.INTER>
-15.5429

>  <SCORE.INTER.CONST>
1

>  <SCORE.INTER.POLAR>
0

>  <SCORE.INTER.ROT>
0

>  <SCORE.INTER.SOLV>
2.98512

>  <SCORE.INTER.VDW>
-14.957

>  <SCORE.INTER.norm>
-1.55429

>  <SCORE.INTRA>
0

>  <SCORE.INTRA.DIHEDRAL>
0

>  <SCORE.INTRA.DIHEDRAL.0>
0

>  <SCORE.INTRA.POLAR>
0

>  <SCORE.INTRA.POLAR.0>
0

>  <SCORE.INTRA.REPUL>
0

>  <SCORE.INTRA.REPUL.0>
0

>  <SCORE.INTRA.SOLV>
0

>  <SCORE.INTRA.SOLV.lig_0>
-4.1818

>  <SCORE.INTRA.VDW>
0

>  <SCORE.INTRA.VDW.0>
0

>  <SCORE.INTRA.norm>
0

>  <SCORE.RESTR>
0

>  <SCORE.RESTR.CAVITY>
0

>  <SCORE.RESTR.norm>
0

>  <SCORE.SYSTEM>
0

>  <SCORE.SYSTEM.CONST>
0

>  <SCORE.SYSTEM.DIHEDRAL>
0

>  <SCORE.SYSTEM.SOLV>
0

>  <SCORE.SYSTEM.norm>
0

>  <SCORE.heavy>
10

>  <SCORE.norm>
-1.55429

>  <RMSD>
10.674

$$$$
ligand
 OpenBabel11021811503D
libRbt.so/2013.1/901 2013/11/27
 10 11  0  0  0  0  0  0  0  0999 V2000
    8.4997   -4.5549    6.6499 N   0  0  0  0  0  0  0  0  0  0  0  0
    9.1257   -3.7624    5.8000 C   0  0  0  0  0  0  0  0  0  0  0  0
   10.3672   -3.2242    6.1549 N   0  0  0  0  0  0  0  0  0  0  0  0
   10.8987   -3.5041    7.3529 C   0  0  0  0  0  0  0  0  0  0  0  0
   10.2598   -4.2991    8.2081 C   0  0  0  0  0  0  0  0  0  0  0  0
    9.0864   -4.8393    7.8878 C   0  0  0  0  0  0  0  0  0  0  0  0
    8.5107   -5.5959    8.6680 O   0  0  0  0  0  0  0  0  0  0  0  0
   10.9706   -4.3415    9.3316 N   0  0  0  0  0  0  0  0  0  0  0  0
   12.0486   -3.5803    9.1719 C   0  0  0  0  0  0  0  0  0  0  0  0
   12.0064   -3.0694    7.9446 N   0  0  0  0  0  0  0  0  0  0  0  0
  1  2  1  0  0  0  0
  1  6  1  0  0  0  0
  2  3  2  0  0  0  0
  3  4  1  0  0  0  0
  4  5  2  0  0  0  0
  4 10  1  0  0  0  0
  5  6  1  0  0  0  0
  5  8  1  0  0  0  0
  6  7  2  0  0  0  0
  8  9  1  0  0  0  0
  9 10  2  0  0  0  0
M  END
>  <CHROM.1>
10.14418640,-4.10607310,7.73381231,-2.89895685,0.50732910,2.02225024

>  <Name>
ligand

>  <RI>
0

>  <Rbt.Current_Directory>
/home/itssahil/PROJECTS/Mol_Feturizer/New_Systems/rnas/4NYD

>  <Rbt.Executable>
rbdock ($Id: //depot/dev/client3/rdock/2013.1/src/exe/rbdock.cxx#4 $)

>  <Rbt.Library>
libRbt.so (2013.1, Build901 2013/11/27)

>  <Rbt.Parameter_File>
/export/apps/rDock/src/rDock_2013.1_src/data/scripts/dock_solv.prm

>  <Rbt.Receptor>
prm/blind_docking_80.prm

>  <SCORE>
-15.535

>  <SCORE.INTER>
-15.535

>  <SCORE.INTER.CONST>
1

>  <SCORE.INTER.POLAR>
0

>  <SCORE.INTER.ROT>
0

>  <SCORE.INTER.SOLV>
3.04928

>  <SCORE.INTER.VDW>
-14.9731

>  <SCORE.INTER.norm>
-1.5535

>  <SCORE.INTRA>
0

>  <SCORE.INTRA.DIHEDRAL>
0

>  <SCORE.INTRA.DIHEDRAL.0>
0

>  <SCORE.INTRA.POLAR>
0

>  <SCORE.INTRA.POLAR.0>
0

>  <SCORE.INTRA.REPUL>
0

>  <SCORE.INTRA.REPUL.0>
0

>  <SCORE.INTRA.SOLV>
0

>  <SCORE.INTRA.SOLV.lig_0>
-4.1818

>  <SCORE.INTRA.VDW>
0

>  <SCORE.INTRA.VDW.0>
0

>  <SCORE.INTRA.norm>
0

>  <SCORE.RESTR>
0

>  <SCORE.RESTR.CAVITY>
0

>  <SCORE.RESTR.norm>
0

>  <SCORE.SYSTEM>
0

>  <SCORE.SYSTEM.CONST>
0

>  <SCORE.SYSTEM.DIHEDRAL>
0

>  <SCORE.SYSTEM.SOLV>
0

>  <SCORE.SYSTEM.norm>
0

>  <SCORE.heavy>
10

>  <SCORE.norm>
-1.5535

>  <RMSD>
10.677

$$$$
ligand
 OpenBabel11021811503D
libRbt.so/2013.1/901 2013/11/27
 10 11  0  0  0  0  0  0  0  0999 V2000
    8.4964   -4.4961    6.6193 N   0  0  0  0  0  0  0  0  0  0  0  0
    9.1296   -3.6894    5.7883 C   0  0  0  0  0  0  0  0  0  0  0  0
   10.3697   -3.1603    6.1612 N   0  0  0  0  0  0  0  0  0  0  0  0
   10.8925   -3.4632    7.3575 C   0  0  0  0  0  0  0  0  0  0  0  0
   10.2465   -4.2724    8.1936 C   0  0  0  0  0  0  0  0  0  0  0  0
    9.0743   -4.8044    7.8556 C   0  0  0  0  0  0  0  0  0  0  0  0
    8.4920   -5.5740    8.6180 O   0  0  0  0  0  0  0  0  0  0  0  0
   10.9496   -4.3368    9.3209 N   0  0  0  0  0  0  0  0  0  0  0  0
   12.0301   -3.5749    9.1824 C   0  0  0  0  0  0  0  0  0  0  0  0
   11.9972   -3.0416    7.9644 N   0  0  0  0  0  0  0  0  0  0  0  0
  1  2  1  0  0  0  0
  1  6  1  0  0  0  0
  2  3  2  0  0  0  0
  3  4  1  0  0  0  0
  4  5  2  0  0  0  0
  4 10  1  0  0  0  0
  5  6  1  0  0  0  0
  5  8  1  0  0  0  0
  6  7  2  0  0  0  0
  8  9  1  0  0  0  0
  9 10  2  0  0  0  0
M  END
>  <CHROM.1>
10.13442943,-4.07052604,7.72220051,-2.89111833,0.50857102,2.03678248

>  <Name>
ligand

>  <RI>
0

>  <Rbt.Current_Directory>
/home/itssahil/PROJECTS/Mol_Feturizer/New_Systems/rnas/4NYD

>  <Rbt.Executable>
rbdock ($Id: //depot/dev/client3/rdock/2013.1/src/exe/rbdock.cxx#4 $)

>  <Rbt.Library>
libRbt.so (2013.1, Build901 2013/11/27)

>  <Rbt.Parameter_File>
/export/apps/rDock/src/rDock_2013.1_src/data/scripts/dock_solv.prm

>  <Rbt.Receptor>
prm/blind_docking_20.prm

>  <SCORE>
-15.5566

>  <SCORE.INTER>
-15.5566

>  <SCORE.INTER.CONST>
1

>  <SCORE.INTER.POLAR>
0

>  <SCORE.INTER.ROT>
0

>  <SCORE.INTER.SOLV>
3.01643

>  <SCORE.INTER.VDW>
-14.9766

>  <SCORE.INTER.norm>
-1.55566

>  <SCORE.INTRA>
0

>  <SCORE.INTRA.DIHEDRAL>
0

>  <SCORE.INTRA.DIHEDRAL.0>
0

>  <SCORE.INTRA.POLAR>
0

>  <SCORE.INTRA.POLAR.0>
0

>  <SCORE.INTRA.REPUL>
0

>  <SCORE.INTRA.REPUL.0>
0

>  <SCORE.INTRA.SOLV>
0

>  <SCORE.INTRA.SOLV.lig_0>
-4.1818

>  <SCORE.INTRA.VDW>
0

>  <SCORE.INTRA.VDW.0>
0

>  <SCORE.INTRA.norm>
0

>  <SCORE.RESTR>
0

>  <SCORE.RESTR.CAVITY>
0

>  <SCORE.RESTR.norm>
0

>  <SCORE.SYSTEM>
0

>  <SCORE.SYSTEM.CONST>
0

>  <SCORE.SYSTEM.DIHEDRAL>
0

>  <SCORE.SYSTEM.SOLV>
0

>  <SCORE.SYSTEM.norm>
0

>  <SCORE.heavy>
10

>  <SCORE.norm>
-1.55566

>  <RMSD>
10.678

$$$$
ligand
 OpenBabel11021811503D
libRbt.so/2013.1/901 2013/11/27
 10 11  0  0  0  0  0  0  0  0999 V2000
    8.4848   -4.5163    6.5900 N   0  0  0  0  0  0  0  0  0  0  0  0
    9.1251   -3.7199    5.7546 C   0  0  0  0  0  0  0  0  0  0  0  0
   10.3648   -3.1910    6.1291 N   0  0  0  0  0  0  0  0  0  0  0  0
   10.8801   -3.4836    7.3312 C   0  0  0  0  0  0  0  0  0  0  0  0
   10.2268   -4.2824    8.1718 C   0  0  0  0  0  0  0  0  0  0  0  0
    9.0548   -4.8140    7.8326 C   0  0  0  0  0  0  0  0  0  0  0  0
    8.4658   -5.5742    8.5993 O   0  0  0  0  0  0  0  0  0  0  0  0
   10.9234   -4.3377    9.3036 N   0  0  0  0  0  0  0  0  0  0  0  0
   12.0071   -3.5806    9.1635 C   0  0  0  0  0  0  0  0  0  0  0  0
   11.9826   -3.0594    7.9401 N   0  0  0  0  0  0  0  0  0  0  0  0
  1  2  1  0  0  0  0
  1  6  1  0  0  0  0
  2  3  2  0  0  0  0
  3  4  1  0  0  0  0
  4  5  2  0  0  0  0
  4 10  1  0  0  0  0
  5  6  1  0  0  0  0
  5  8  1  0  0  0  0
  6  7  2  0  0  0  0
  8  9  1  0  0  0  0
  9 10  2  0  0  0  0
M  END
>  <CHROM.1>
10.11798424,-4.08486308,7.69775768,-2.88379281,0.50821040,2.02322449

>  <Name>
ligand

>  <RI>
0

>  <Rbt.Current_Directory>
/home/itssahil/PROJECTS/Mol_Feturizer/New_Systems/rnas/4NYD

>  <Rbt.Executable>
rbdock ($Id: //depot/dev/client3/rdock/2013.1/src/exe/rbdock.cxx#4 $)

>  <Rbt.Library>
libRbt.so (2013.1, Build901 2013/11/27)

>  <Rbt.Parameter_File>
/export/apps/rDock/src/rDock_2013.1_src/data/scripts/dock_solv.prm

>  <Rbt.Receptor>
prm/blind_docking_20.prm

>  <SCORE>
-15.5379

>  <SCORE.INTER>
-15.5379

>  <SCORE.INTER.CONST>
1

>  <SCORE.INTER.POLAR>
0

>  <SCORE.INTER.ROT>
0

>  <SCORE.INTER.SOLV>
3.04243

>  <SCORE.INTER.VDW>
-14.9727

>  <SCORE.INTER.norm>
-1.55379

>  <SCORE.INTRA>
0

>  <SCORE.INTRA.DIHEDRAL>
0

>  <SCORE.INTRA.DIHEDRAL.0>
0

>  <SCORE.INTRA.POLAR>
0

>  <SCORE.INTRA.POLAR.0>
0

>  <SCORE.INTRA.REPUL>
0

>  <SCORE.INTRA.REPUL.0>
0

>  <SCORE.INTRA.SOLV>
0

>  <SCORE.INTRA.SOLV.lig_0>
-4.1818

>  <SCORE.INTRA.VDW>
0

>  <SCORE.INTRA.VDW.0>
0

>  <SCORE.INTRA.norm>
0

>  <SCORE.RESTR>
0

>  <SCORE.RESTR.CAVITY>
0

>  <SCORE.RESTR.norm>
0

>  <SCORE.SYSTEM>
0

>  <SCORE.SYSTEM.CONST>
0

>  <SCORE.SYSTEM.DIHEDRAL>
0

>  <SCORE.SYSTEM.SOLV>
0

>  <SCORE.SYSTEM.norm>
0

>  <SCORE.heavy>
10

>  <SCORE.norm>
-1.55379

>  <RMSD>
10.680

$$$$
ligand
 OpenBabel11021811503D
libRbt.so/2013.1/901 2013/11/27
 10 11  0  0  0  0  0  0  0  0999 V2000
    8.5191   -4.5577    6.6018 N   0  0  0  0  0  0  0  0  0  0  0  0
    9.1698   -3.7735    5.7627 C   0  0  0  0  0  0  0  0  0  0  0  0
   10.4002   -3.2312    6.1485 N   0  0  0  0  0  0  0  0  0  0  0  0
   10.8961   -3.4987    7.3644 C   0  0  0  0  0  0  0  0  0  0  0  0
   10.2325   -4.2853    8.2084 C   0  0  0  0  0  0  0  0  0  0  0  0
    9.0692   -4.8293    7.8592 C   0  0  0  0  0  0  0  0  0  0  0  0
    8.4709   -5.5783    8.6297 O   0  0  0  0  0  0  0  0  0  0  0  0
   10.9100   -4.3159    9.3528 N   0  0  0  0  0  0  0  0  0  0  0  0
   11.9921   -3.5558    9.2172 C   0  0  0  0  0  0  0  0  0  0  0  0
   11.9859   -3.0575    7.9840 N   0  0  0  0  0  0  0  0  0  0  0  0
  1  2  1  0  0  0  0
  1  6  1  0  0  0  0
  2  3  2  0  0  0  0
  3  4  1  0  0  0  0
  4  5  2  0  0  0  0
  4 10  1  0  0  0  0
  5  6  1  0  0  0  0
  5  8  1  0  0  0  0
  6  7  2  0  0  0  0
  8  9  1  0  0  0  0
  9 10  2  0  0  0  0
M  END
>  <CHROM.1>
10.13091885,-4.09712546,7.72899985,-2.86852403,0.52016796,1.99716751

>  <Name>
ligand

>  <RI>
0

>  <Rbt.Current_Directory>
/home/itssahil/PROJECTS/Mol_Feturizer/New_Systems/rnas/4NYD

>  <Rbt.Executable>
rbdock ($Id: //depot/dev/client3/rdock/2013.1/src/exe/rbdock.cxx#4 $)

>  <Rbt.Library>
libRbt.so (2013.1, Build901 2013/11/27)

>  <Rbt.Parameter_File>
/export/apps/rDock/src/rDock_2013.1_src/data/scripts/dock_solv.prm

>  <Rbt.Receptor>
prm/blind_docking_20.prm

>  <SCORE>
-15.5893

>  <SCORE.INTER>
-15.5893

>  <SCORE.INTER.CONST>
1

>  <SCORE.INTER.POLAR>
0

>  <SCORE.INTER.ROT>
0

>  <SCORE.INTER.SOLV>
3.06491

>  <SCORE.INTER.VDW>
-15.0145

>  <SCORE.INTER.norm>
-1.55893

>  <SCORE.INTRA>
0

>  <SCORE.INTRA.DIHEDRAL>
0

>  <SCORE.INTRA.DIHEDRAL.0>
0

>  <SCORE.INTRA.POLAR>
0

>  <SCORE.INTRA.POLAR.0>
0

>  <SCORE.INTRA.REPUL>
0

>  <SCORE.INTRA.REPUL.0>
0

>  <SCORE.INTRA.SOLV>
0

>  <SCORE.INTRA.SOLV.lig_0>
-4.1818

>  <SCORE.INTRA.VDW>
0

>  <SCORE.INTRA.VDW.0>
0

>  <SCORE.INTRA.norm>
0

>  <SCORE.RESTR>
0

>  <SCORE.RESTR.CAVITY>
0

>  <SCORE.RESTR.norm>
0

>  <SCORE.SYSTEM>
0

>  <SCORE.SYSTEM.CONST>
0

>  <SCORE.SYSTEM.DIHEDRAL>
0

>  <SCORE.SYSTEM.SOLV>
0

>  <SCORE.SYSTEM.norm>
0

>  <SCORE.heavy>
10

>  <SCORE.norm>
-1.55893

>  <RMSD>
10.681

$$$$
ligand
 OpenBabel11021811503D
libRbt.so/2013.1/901 2013/11/27
 10 11  0  0  0  0  0  0  0  0999 V2000
    8.4751   -4.5405    6.6176 N   0  0  0  0  0  0  0  0  0  0  0  0
    9.1063   -3.7461    5.7733 C   0  0  0  0  0  0  0  0  0  0  0  0
   10.3477   -3.2123    6.1350 N   0  0  0  0  0  0  0  0  0  0  0  0
   10.8738   -3.4983    7.3340 C   0  0  0  0  0  0  0  0  0  0  0  0
   10.2297   -4.2950    8.1836 C   0  0  0  0  0  0  0  0  0  0  0  0
    9.0563   -4.8312    7.8565 C   0  0  0  0  0  0  0  0  0  0  0  0
    8.4758   -5.5896    8.6315 O   0  0  0  0  0  0  0  0  0  0  0  0
   10.9360   -4.3436    9.3097 N   0  0  0  0  0  0  0  0  0  0  0  0
   12.0165   -3.5843    9.1572 C   0  0  0  0  0  0  0  0  0  0  0  0
   11.9803   -3.0685    7.9318 N   0  0  0  0  0  0  0  0  0  0  0  0
  1  2  1  0  0  0  0
  1  6  1  0  0  0  0
  2  3  2  0  0  0  0
  3  4  1  0  0  0  0
  4  5  2  0  0  0  0
  4 10  1  0  0  0  0
  5  6  1  0  0  0  0
  5  8  1  0  0  0  0
  6  7  2  0  0  0  0
  8  9  1  0  0  0  0
  9 10  2  0  0  0  0
M  END
>  <CHROM.1>
10.11640912,-4.09989359,7.70959988,-2.89377022,0.50689927,2.02369446

>  <Name>
ligand

>  <RI>
0

>  <Rbt.Current_Directory>
/home/itssahil/PROJECTS/Mol_Feturizer/New_Systems/rnas/4NYD

>  <Rbt.Executable>
rbdock ($Id: //depot/dev/client3/rdock/2013.1/src/exe/rbdock.cxx#4 $)

>  <Rbt.Library>
libRbt.so (2013.1, Build901 2013/11/27)

>  <Rbt.Parameter_File>
/export/apps/rDock/src/rDock_2013.1_src/data/scripts/dock_solv.prm

>  <Rbt.Receptor>
prm/blind_docking_20.prm

>  <SCORE>
-15.5469

>  <SCORE.INTER>
-15.5469

>  <SCORE.INTER.CONST>
1

>  <SCORE.INTER.POLAR>
0

>  <SCORE.INTER.ROT>
0

>  <SCORE.INTER.SOLV>
3.03229

>  <SCORE.INTER.VDW>
-14.9754

>  <SCORE.INTER.norm>
-1.55469

>  <SCORE.INTRA>
0

>  <SCORE.INTRA.DIHEDRAL>
0

>  <SCORE.INTRA.DIHEDRAL.0>
0

>  <SCORE.INTRA.POLAR>
0

>  <SCORE.INTRA.POLAR.0>
0

>  <SCORE.INTRA.REPUL>
0

>  <SCORE.INTRA.REPUL.0>
0

>  <SCORE.INTRA.SOLV>
0

>  <SCORE.INTRA.SOLV.lig_0>
-4.1818

>  <SCORE.INTRA.VDW>
0

>  <SCORE.INTRA.VDW.0>
0

>  <SCORE.INTRA.norm>
0

>  <SCORE.RESTR>
0

>  <SCORE.RESTR.CAVITY>
0

>  <SCORE.RESTR.norm>
0

>  <SCORE.SYSTEM>
0

>  <SCORE.SYSTEM.CONST>
0

>  <SCORE.SYSTEM.DIHEDRAL>
0

>  <SCORE.SYSTEM.SOLV>
0

>  <SCORE.SYSTEM.norm>
0

>  <SCORE.heavy>
10

>  <SCORE.norm>
-1.55469

>  <RMSD>
10.688

$$$$
ligand
 OpenBabel11021811503D
libRbt.so/2013.1/901 2013/11/27
 10 11  0  0  0  0  0  0  0  0999 V2000
    8.5069   -4.5375    6.6283 N   0  0  0  0  0  0  0  0  0  0  0  0
    9.1614   -3.7669    5.7798 C   0  0  0  0  0  0  0  0  0  0  0  0
   10.3997   -3.2349    6.1547 N   0  0  0  0  0  0  0  0  0  0  0  0
   10.8993   -3.4985    7.3701 C   0  0  0  0  0  0  0  0  0  0  0  0
   10.2318   -4.2712    8.2237 C   0  0  0  0  0  0  0  0  0  0  0  0
    9.0608   -4.8053    7.8849 C   0  0  0  0  0  0  0  0  0  0  0  0
    8.4587   -5.5418    8.6644 O   0  0  0  0  0  0  0  0  0  0  0  0
   10.9151   -4.3004    9.3646 N   0  0  0  0  0  0  0  0  0  0  0  0
   12.0046   -3.5532    9.2173 C   0  0  0  0  0  0  0  0  0  0  0  0
   11.9972   -3.0643    7.9804 N   0  0  0  0  0  0  0  0  0  0  0  0
  1  2  1  0  0  0  0
  1  6  1  0  0  0  0
  2  3  2  0  0  0  0
  3  4  1  0  0  0  0
  4  5  2  0  0  0  0
  4 10  1  0  0  0  0
  5  6  1  0  0  0  0
  5  8  1  0  0  0  0
  6  7  2  0  0  0  0
  8  9  1  0  0  0  0
  9 10  2  0  0  0  0
M  END
>  <CHROM.1>
10.12965791,-4.08572267,7.74334967,-2.86906256,0.50809659,1.98969342

>  <Name>
ligand

>  <RI>
0

>  <Rbt.Current_Directory>
/home/itssahil/PROJECTS/Mol_Feturizer/New_Systems/rnas/4NYD

>  <Rbt.Executable>
rbdock ($Id: //depot/dev/client3/rdock/2013.1/src/exe/rbdock.cxx#4 $)

>  <Rbt.Library>
libRbt.so (2013.1, Build901 2013/11/27)

>  <Rbt.Parameter_File>
/export/apps/rDock/src/rDock_2013.1_src/data/scripts/dock_solv.prm

>  <Rbt.Receptor>
prm/blind_docking_20.prm

>  <SCORE>
-15.5512

>  <SCORE.INTER>
-15.5512

>  <SCORE.INTER.CONST>
1

>  <SCORE.INTER.POLAR>
0

>  <SCORE.INTER.ROT>
0

>  <SCORE.INTER.SOLV>
3.08918

>  <SCORE.INTER.VDW>
-14.9972

>  <SCORE.INTER.norm>
-1.55512

>  <SCORE.INTRA>
0

>  <SCORE.INTRA.DIHEDRAL>
0

>  <SCORE.INTRA.DIHEDRAL.0>
0

>  <SCORE.INTRA.POLAR>
0

>  <SCORE.INTRA.POLAR.0>
0

>  <SCORE.INTRA.REPUL>
0

>  <SCORE.INTRA.REPUL.0>
0

>  <SCORE.INTRA.SOLV>
0

>  <SCORE.INTRA.SOLV.lig_0>
-4.1818

>  <SCORE.INTRA.VDW>
0

>  <SCORE.INTRA.VDW.0>
0

>  <SCORE.INTRA.norm>
0

>  <SCORE.RESTR>
0

>  <SCORE.RESTR.CAVITY>
0

>  <SCORE.RESTR.norm>
0

>  <SCORE.SYSTEM>
0

>  <SCORE.SYSTEM.CONST>
0

>  <SCORE.SYSTEM.DIHEDRAL>
0

>  <SCORE.SYSTEM.SOLV>
0

>  <SCORE.SYSTEM.norm>
0

>  <SCORE.heavy>
10

>  <SCORE.norm>
-1.55512

>  <RMSD>
10.689

$$$$
ligand
 OpenBabel11021811503D
libRbt.so/2013.1/901 2013/11/27
 10 11  0  0  0  0  0  0  0  0999 V2000
    8.4608   -4.5584    6.6639 N   0  0  0  0  0  0  0  0  0  0  0  0
    9.0803   -3.7832    5.7935 C   0  0  0  0  0  0  0  0  0  0  0  0
   10.3271   -3.2429    6.1256 N   0  0  0  0  0  0  0  0  0  0  0  0
   10.8702   -3.5031    7.3229 C   0  0  0  0  0  0  0  0  0  0  0  0
   10.2379   -4.2805    8.1988 C   0  0  0  0  0  0  0  0  0  0  0  0
    9.0596   -4.8226    7.9004 C   0  0  0  0  0  0  0  0  0  0  0  0
    8.4898   -5.5633    8.7001 O   0  0  0  0  0  0  0  0  0  0  0  0
   10.9604   -4.3051    9.3154 N   0  0  0  0  0  0  0  0  0  0  0  0
   12.0390   -3.5504    9.1308 C   0  0  0  0  0  0  0  0  0  0  0  0
   11.9855   -3.0614    7.8951 N   0  0  0  0  0  0  0  0  0  0  0  0
  1  2  1  0  0  0  0
  1  6  1  0  0  0  0
  2  3  2  0  0  0  0
  3  4  1  0  0  0  0
  4  5  2  0  0  0  0
  4 10  1  0  0  0  0
  5  6  1  0  0  0  0
  5  8  1  0  0  0  0
  6  7  2  0  0  0  0
  8  9  1  0  0  0  0
  9 10  2  0  0  0  0
M  END
>  <CHROM.1>
10.11795399,-4.09565807,7.72233984,-2.90822612,0.49997303,2.00884428

>  <Name>
ligand

>  <RI>
0

>  <Rbt.Current_Directory>
/home/itssahil/PROJECTS/Mol_Feturizer/New_Systems/rnas/4NYD

>  <Rbt.Executable>
rbdock ($Id: //depot/dev/client3/rdock/2013.1/src/exe/rbdock.cxx#4 $)

>  <Rbt.Library>
libRbt.so (2013.1, Build901 2013/11/27)

>  <Rbt.Parameter_File>
/export/apps/rDock/src/rDock_2013.1_src/data/scripts/dock_solv.prm

>  <Rbt.Receptor>
prm/blind_docking_20.prm

>  <SCORE>
-15.5472

>  <SCORE.INTER>
-15.5472

>  <SCORE.INTER.CONST>
1

>  <SCORE.INTER.POLAR>
0

>  <SCORE.INTER.ROT>
0

>  <SCORE.INTER.SOLV>
3.06845

>  <SCORE.INTER.VDW>
-14.9876

>  <SCORE.INTER.norm>
-1.55472

>  <SCORE.INTRA>
0

>  <SCORE.INTRA.DIHEDRAL>
0

>  <SCORE.INTRA.DIHEDRAL.0>
0

>  <SCORE.INTRA.POLAR>
0

>  <SCORE.INTRA.POLAR.0>
0

>  <SCORE.INTRA.REPUL>
0

>  <SCORE.INTRA.REPUL.0>
0

>  <SCORE.INTRA.SOLV>
0

>  <SCORE.INTRA.SOLV.lig_0>
-4.1818

>  <SCORE.INTRA.VDW>
0

>  <SCORE.INTRA.VDW.0>
0

>  <SCORE.INTRA.norm>
0

>  <SCORE.RESTR>
0

>  <SCORE.RESTR.CAVITY>
0

>  <SCORE.RESTR.norm>
0

>  <SCORE.SYSTEM>
0

>  <SCORE.SYSTEM.CONST>
0

>  <SCORE.SYSTEM.DIHEDRAL>
0

>  <SCORE.SYSTEM.SOLV>
0

>  <SCORE.SYSTEM.norm>
0

>  <SCORE.heavy>
10

>  <SCORE.norm>
-1.55472

>  <RMSD>
10.691

$$$$
ligand
 OpenBabel11021811503D
libRbt.so/2013.1/901 2013/11/27
 10 11  0  0  0  0  0  0  0  0999 V2000
    8.4798   -4.5942    6.6590 N   0  0  0  0  0  0  0  0  0  0  0  0
    9.0990   -3.8019    5.8039 C   0  0  0  0  0  0  0  0  0  0  0  0
   10.3373   -3.2533    6.1538 N   0  0  0  0  0  0  0  0  0  0  0  0
   10.8725   -3.5232    7.3525 C   0  0  0  0  0  0  0  0  0  0  0  0
   10.2405   -4.3179    8.2129 C   0  0  0  0  0  0  0  0  0  0  0  0
    9.0704   -4.8680    7.8974 C   0  0  0  0  0  0  0  0  0  0  0  0
    8.5011   -5.6243    8.6825 O   0  0  0  0  0  0  0  0  0  0  0  0
   10.9533   -4.3494    9.3355 N   0  0  0  0  0  0  0  0  0  0  0  0
   12.0258   -3.5816    9.1700 C   0  0  0  0  0  0  0  0  0  0  0  0
   11.9782   -3.0777    7.9401 N   0  0  0  0  0  0  0  0  0  0  0  0
  1  2  1  0  0  0  0
  1  6  1  0  0  0  0
  2  3  2  0  0  0  0
  3  4  1  0  0  0  0
  4  5  2  0  0  0  0
  4 10  1  0  0  0  0
  5  6  1  0  0  0  0
  5  8  1  0  0  0  0
  6  7  2  0  0  0  0
  8  9  1  0  0  0  0
  9 10  2  0  0  0  0
M  END
>  <CHROM.1>
10.12282633,-4.12826421,7.73779838,-2.90403133,0.51285824,2.01938178

>  <Name>
ligand

>  <RI>
0

>  <Rbt.Current_Directory>
/home/itssahil/PROJECTS/Mol_Feturizer/New_Systems/rnas/4NYD

>  <Rbt.Executable>
rbdock ($Id: //depot/dev/client3/rdock/2013.1/src/exe/rbdock.cxx#4 $)

>  <Rbt.Library>
libRbt.so (2013.1, Build901 2013/11/27)

>  <Rbt.Parameter_File>
/export/apps/rDock/src/rDock_2013.1_src/data/scripts/dock_solv.prm

>  <Rbt.Receptor>
prm/blind_docking_20.prm

>  <SCORE>
-15.5169

>  <SCORE.INTER>
-15.5169

>  <SCORE.INTER.CONST>
1

>  <SCORE.INTER.POLAR>
0

>  <SCORE.INTER.ROT>
0

>  <SCORE.INTER.SOLV>
3.01413

>  <SCORE.INTER.VDW>
-14.9493

>  <SCORE.INTER.norm>
-1.55169

>  <SCORE.INTRA>
0

>  <SCORE.INTRA.DIHEDRAL>
0

>  <SCORE.INTRA.DIHEDRAL.0>
0

>  <SCORE.INTRA.POLAR>
0

>  <SCORE.INTRA.POLAR.0>
0

>  <SCORE.INTRA.REPUL>
0

>  <SCORE.INTRA.REPUL.0>
0

>  <SCORE.INTRA.SOLV>
0

>  <SCORE.INTRA.SOLV.lig_0>
-4.1818

>  <SCORE.INTRA.VDW>
0

>  <SCORE.INTRA.VDW.0>
0

>  <SCORE.INTRA.norm>
0

>  <SCORE.RESTR>
0

>  <SCORE.RESTR.CAVITY>
0

>  <SCORE.RESTR.norm>
0

>  <SCORE.SYSTEM>
0

>  <SCORE.SYSTEM.CONST>
0

>  <SCORE.SYSTEM.DIHEDRAL>
0

>  <SCORE.SYSTEM.SOLV>
0

>  <SCORE.SYSTEM.norm>
0

>  <SCORE.heavy>
10

>  <SCORE.norm>
-1.55169

>  <RMSD>
10.697

$$$$
ligand
 OpenBabel11021811503D
libRbt.so/2013.1/901 2013/11/27
 10 11  0  0  0  0  0  0  0  0999 V2000
    8.5028   -4.5372    6.6053 N   0  0  0  0  0  0  0  0  0  0  0  0
    9.1646   -3.7617    5.7669 C   0  0  0  0  0  0  0  0  0  0  0  0
   10.3995   -3.2318    6.1557 N   0  0  0  0  0  0  0  0  0  0  0  0
   10.8885   -3.5022    7.3738 C   0  0  0  0  0  0  0  0  0  0  0  0
   10.2137   -4.2799    8.2171 C   0  0  0  0  0  0  0  0  0  0  0  0
    9.0458   -4.8121    7.8651 C   0  0  0  0  0  0  0  0  0  0  0  0
    8.4370   -5.5531    8.6351 O   0  0  0  0  0  0  0  0  0  0  0  0
   10.8870   -4.3155    9.3638 N   0  0  0  0  0  0  0  0  0  0  0  0
   11.9776   -3.5673    9.2303 C   0  0  0  0  0  0  0  0  0  0  0  0
   11.9809   -3.0714    7.9962 N   0  0  0  0  0  0  0  0  0  0  0  0
  1  2  1  0  0  0  0
  1  6  1  0  0  0  0
  2  3  2  0  0  0  0
  3  4  1  0  0  0  0
  4  5  2  0  0  0  0
  4 10  1  0  0  0  0
  5  6  1  0  0  0  0
  5  8  1  0  0  0  0
  6  7  2  0  0  0  0
  8  9  1  0  0  0  0
  9 10  2  0  0  0  0
M  END
>  <CHROM.1>
10.11571729,-4.09162884,7.73702464,-2.85998485,0.51176588,1.99096865

>  <Name>
ligand

>  <RI>
0

>  <Rbt.Current_Directory>
/home/itssahil/PROJECTS/Mol_Feturizer/New_Systems/rnas/4NYD

>  <Rbt.Executable>
rbdock ($Id: //depot/dev/client3/rdock/2013.1/src/exe/rbdock.cxx#4 $)

>  <Rbt.Library>
libRbt.so (2013.1, Build901 2013/11/27)

>  <Rbt.Parameter_File>
/export/apps/rDock/src/rDock_2013.1_src/data/scripts/dock_solv.prm

>  <Rbt.Receptor>
prm/blind_docking_20.prm

>  <SCORE>
-15.5525

>  <SCORE.INTER>
-15.5525

>  <SCORE.INTER.CONST>
1

>  <SCORE.INTER.POLAR>
0

>  <SCORE.INTER.ROT>
0

>  <SCORE.INTER.SOLV>
3.06523

>  <SCORE.INTER.VDW>
-14.9901

>  <SCORE.INTER.norm>
-1.55525

>  <SCORE.INTRA>
0

>  <SCORE.INTRA.DIHEDRAL>
0

>  <SCORE.INTRA.DIHEDRAL.0>
0

>  <SCORE.INTRA.POLAR>
0

>  <SCORE.INTRA.POLAR.0>
0

>  <SCORE.INTRA.REPUL>
0

>  <SCORE.INTRA.REPUL.0>
0

>  <SCORE.INTRA.SOLV>
0

>  <SCORE.INTRA.SOLV.lig_0>
-4.1818

>  <SCORE.INTRA.VDW>
0

>  <SCORE.INTRA.VDW.0>
0

>  <SCORE.INTRA.norm>
0

>  <SCORE.RESTR>
0

>  <SCORE.RESTR.CAVITY>
0

>  <SCORE.RESTR.norm>
0

>  <SCORE.SYSTEM>
0

>  <SCORE.SYSTEM.CONST>
0

>  <SCORE.SYSTEM.DIHEDRAL>
0

>  <SCORE.SYSTEM.SOLV>
0

>  <SCORE.SYSTEM.norm>
0

>  <SCORE.heavy>
10

>  <SCORE.norm>
-1.55525

>  <RMSD>
10.698

$$$$
ligand
 OpenBabel11021811503D
libRbt.so/2013.1/901 2013/11/27
 10 11  0  0  0  0  0  0  0  0999 V2000
   10.2758   -3.3334    6.0164 N   0  0  0  0  0  0  0  0  0  0  0  0
   11.0039   -3.3919    7.1159 C   0  0  0  0  0  0  0  0  0  0  0  0
   10.5098   -4.0835    8.2269 N   0  0  0  0  0  0  0  0  0  0  0  0
    9.3028   -4.6633    8.1701 C   0  0  0  0  0  0  0  0  0  0  0  0
    8.5706   -4.5957    7.0607 C   0  0  0  0  0  0  0  0  0  0  0  0
    9.0254   -3.9602    5.9834 C   0  0  0  0  0  0  0  0  0  0  0  0
    8.3595   -3.9227    4.9500 O   0  0  0  0  0  0  0  0  0  0  0  0
    7.4036   -5.1839    7.3081 N   0  0  0  0  0  0  0  0  0  0  0  0
    7.4140   -5.6194    8.5640 C   0  0  0  0  0  0  0  0  0  0  0  0
    8.5926   -5.3033    9.0932 N   0  0  0  0  0  0  0  0  0  0  0  0
  1  2  1  0  0  0  0
  1  6  1  0  0  0  0
  2  3  2  0  0  0  0
  3  4  1  0  0  0  0
  4  5  2  0  0  0  0
  4 10  1  0  0  0  0
  5  6  1  0  0  0  0
  5  8  1  0  0  0  0
  6  7  2  0  0  0  0
  8  9  1  0  0  0  0
  9 10  2  0  0  0  0
M  END
>  <CHROM.1>
9.03412337,-4.39539004,7.20435703,-0.97544254,0.42117608,1.91959094

>  <Name>
ligand

>  <RI>
0

>  <Rbt.Current_Directory>
/home/itssahil/PROJECTS/Mol_Feturizer/New_Systems/rnas/4NYD

>  <Rbt.Executable>
rbdock ($Id: //depot/dev/client3/rdock/2013.1/src/exe/rbdock.cxx#4 $)

>  <Rbt.Library>
libRbt.so (2013.1, Build901 2013/11/27)

>  <Rbt.Parameter_File>
/export/apps/rDock/src/rDock_2013.1_src/data/scripts/dock_solv.prm

>  <Rbt.Receptor>
prm/blind_docking_20.prm

>  <SCORE>
-10.524

>  <SCORE.INTER>
-10.524

>  <SCORE.INTER.CONST>
1

>  <SCORE.INTER.POLAR>
0

>  <SCORE.INTER.ROT>
0

>  <SCORE.INTER.SOLV>
3.86216

>  <SCORE.INTER.VDW>
-11.9034

>  <SCORE.INTER.norm>
-1.0524

>  <SCORE.INTRA>
0

>  <SCORE.INTRA.DIHEDRAL>
0

>  <SCORE.INTRA.DIHEDRAL.0>
0

>  <SCORE.INTRA.POLAR>
0

>  <SCORE.INTRA.POLAR.0>
0

>  <SCORE.INTRA.REPUL>
0

>  <SCORE.INTRA.REPUL.0>
0

>  <SCORE.INTRA.SOLV>
0

>  <SCORE.INTRA.SOLV.lig_0>
-4.1818

>  <SCORE.INTRA.VDW>
0

>  <SCORE.INTRA.VDW.0>
0

>  <SCORE.INTRA.norm>
0

>  <SCORE.RESTR>
0

>  <SCORE.RESTR.CAVITY>
0

>  <SCORE.RESTR.norm>
0

>  <SCORE.SYSTEM>
0

>  <SCORE.SYSTEM.CONST>
0

>  <SCORE.SYSTEM.DIHEDRAL>
0

>  <SCORE.SYSTEM.SOLV>
0

>  <SCORE.SYSTEM.norm>
0

>  <SCORE.heavy>
10

>  <SCORE.norm>
-1.0524

>  <RMSD>
11.307

$$$$
ligand
 OpenBabel11021811503D
libRbt.so/2013.1/901 2013/11/27
 10 11  0  0  0  0  0  0  0  0999 V2000
   11.5222   -3.2880   -8.9317 N   0  0  0  0  0  0  0  0  0  0  0  0
   12.7495   -3.7724   -8.9715 C   0  0  0  0  0  0  0  0  0  0  0  0
   13.1426   -4.5489  -10.0666 N   0  0  0  0  0  0  0  0  0  0  0  0
   12.2703   -4.8050  -11.0513 C   0  0  0  0  0  0  0  0  0  0  0  0
   11.0323   -4.3189  -11.0026 C   0  0  0  0  0  0  0  0  0  0  0  0
   10.6387   -3.5615   -9.9814 C   0  0  0  0  0  0  0  0  0  0  0  0
    9.5031   -3.0901   -9.9517 O   0  0  0  0  0  0  0  0  0  0  0  0
   10.3706   -4.7868  -12.0574 N   0  0  0  0  0  0  0  0  0  0  0  0
   11.1964   -5.5556  -12.7602 C   0  0  0  0  0  0  0  0  0  0  0  0
   12.3733   -5.5594  -12.1406 N   0  0  0  0  0  0  0  0  0  0  0  0
  1  2  1  0  0  0  0
  1  6  1  0  0  0  0
  2  3  2  0  0  0  0
  3  4  1  0  0  0  0
  4  5  2  0  0  0  0
  4 10  1  0  0  0  0
  5  6  1  0  0  0  0
  5  8  1  0  0  0  0
  6  7  2  0  0  0  0
  8  9  1  0  0  0  0
  9 10  2  0  0  0  0
M  END
>  <CHROM.1>
11.44269813,-4.30437547,-10.67566960,-1.67777524,0.31152192,-2.12817230

>  <Name>
ligand

>  <RI>
0

>  <Rbt.Current_Directory>
/home/itssahil/PROJECTS/Mol_Feturizer/New_Systems/rnas/4NYD

>  <Rbt.Executable>
rbdock ($Id: //depot/dev/client3/rdock/2013.1/src/exe/rbdock.cxx#4 $)

>  <Rbt.Library>
libRbt.so (2013.1, Build901 2013/11/27)

>  <Rbt.Parameter_File>
/export/apps/rDock/src/rDock_2013.1_src/data/scripts/dock_solv.prm

>  <Rbt.Receptor>
prm/blind_docking_20.prm

>  <SCORE>
-9.47257

>  <SCORE.INTER>
-9.47257

>  <SCORE.INTER.CONST>
1

>  <SCORE.INTER.POLAR>
0

>  <SCORE.INTER.ROT>
0

>  <SCORE.INTER.SOLV>
1.64405

>  <SCORE.INTER.VDW>
-10.4631

>  <SCORE.INTER.norm>
-0.947257

>  <SCORE.INTRA>
0

>  <SCORE.INTRA.DIHEDRAL>
0

>  <SCORE.INTRA.DIHEDRAL.0>
0

>  <SCORE.INTRA.POLAR>
0

>  <SCORE.INTRA.POLAR.0>
0

>  <SCORE.INTRA.REPUL>
0

>  <SCORE.INTRA.REPUL.0>
0

>  <SCORE.INTRA.SOLV>
0

>  <SCORE.INTRA.SOLV.lig_0>
-4.1818

>  <SCORE.INTRA.VDW>
0

>  <SCORE.INTRA.VDW.0>
0

>  <SCORE.INTRA.norm>
0

>  <SCORE.RESTR>
0

>  <SCORE.RESTR.CAVITY>
0

>  <SCORE.RESTR.norm>
0

>  <SCORE.SYSTEM>
0

>  <SCORE.SYSTEM.CONST>
0

>  <SCORE.SYSTEM.DIHEDRAL>
0

>  <SCORE.SYSTEM.SOLV>
0

>  <SCORE.SYSTEM.norm>
0

>  <SCORE.heavy>
10

>  <SCORE.norm>
-0.947257

>  <RMSD>
15.567

$$$$
ligand
 OpenBabel11021811503D
libRbt.so/2013.1/901 2013/11/27
 10 11  0  0  0  0  0  0  0  0999 V2000
   11.9586  -14.7595  -12.6611 N   0  0  0  0  0  0  0  0  0  0  0  0
   11.1085  -13.7746  -12.4386 C   0  0  0  0  0  0  0  0  0  0  0  0
   10.9476  -13.2919  -11.1355 N   0  0  0  0  0  0  0  0  0  0  0  0
   11.6422  -13.8410  -10.1294 C   0  0  0  0  0  0  0  0  0  0  0  0
   12.4934  -14.8380  -10.3592 C   0  0  0  0  0  0  0  0  0  0  0  0
   12.6794  -15.3030  -11.5922 C   0  0  0  0  0  0  0  0  0  0  0  0
   13.4870  -16.2054  -11.8067 O   0  0  0  0  0  0  0  0  0  0  0  0
   12.9803  -15.2345   -9.1865 N   0  0  0  0  0  0  0  0  0  0  0  0
   12.4373  -14.4829   -8.2340 C   0  0  0  0  0  0  0  0  0  0  0  0
   11.6158  -13.6163   -8.8198 N   0  0  0  0  0  0  0  0  0  0  0  0
  1  2  1  0  0  0  0
  1  6  1  0  0  0  0
  2  3  2  0  0  0  0
  3  4  1  0  0  0  0
  4  5  2  0  0  0  0
  4 10  1  0  0  0  0
  5  6  1  0  0  0  0
  5  8  1  0  0  0  0
  6  7  2  0  0  0  0
  8  9  1  0  0  0  0
  9 10  2  0  0  0  0
M  END
>  <CHROM.1>
12.16016436,-14.56647498,-10.66044290,1.54718259,0.82564308,-1.75177209

>  <Name>
ligand

>  <RI>
0

>  <Rbt.Current_Directory>
/home/itssahil/PROJECTS/Mol_Feturizer/New_Systems/rnas/4NYD

>  <Rbt.Executable>
rbdock ($Id: //depot/dev/client3/rdock/2013.1/src/exe/rbdock.cxx#4 $)

>  <Rbt.Library>
libRbt.so (2013.1, Build901 2013/11/27)

>  <Rbt.Parameter_File>
/export/apps/rDock/src/rDock_2013.1_src/data/scripts/dock_solv.prm

>  <Rbt.Receptor>
prm/blind_docking_100.prm

>  <SCORE>
-17.6169

>  <SCORE.INTER>
-17.6169

>  <SCORE.INTER.CONST>
1

>  <SCORE.INTER.POLAR>
0

>  <SCORE.INTER.ROT>
0

>  <SCORE.INTER.SOLV>
2.90917

>  <SCORE.INTER.VDW>
-16.3143

>  <SCORE.INTER.norm>
-1.76169

>  <SCORE.INTRA>
0

>  <SCORE.INTRA.DIHEDRAL>
0

>  <SCORE.INTRA.DIHEDRAL.0>
0

>  <SCORE.INTRA.POLAR>
0

>  <SCORE.INTRA.POLAR.0>
0

>  <SCORE.INTRA.REPUL>
0

>  <SCORE.INTRA.REPUL.0>
0

>  <SCORE.INTRA.SOLV>
0

>  <SCORE.INTRA.SOLV.lig_0>
-4.1818

>  <SCORE.INTRA.VDW>
0

>  <SCORE.INTRA.VDW.0>
0

>  <SCORE.INTRA.norm>
0

>  <SCORE.RESTR>
0

>  <SCORE.RESTR.CAVITY>
0

>  <SCORE.RESTR.norm>
0

>  <SCORE.SYSTEM>
0

>  <SCORE.SYSTEM.CONST>
0

>  <SCORE.SYSTEM.DIHEDRAL>
0

>  <SCORE.SYSTEM.SOLV>
0

>  <SCORE.SYSTEM.norm>
0

>  <SCORE.heavy>
10

>  <SCORE.norm>
-1.76169

>  <RMSD>
18.904

$$$$
ligand
 OpenBabel11021811503D
libRbt.so/2013.1/901 2013/11/27
 10 11  0  0  0  0  0  0  0  0999 V2000
   12.0278  -14.8436  -12.6585 N   0  0  0  0  0  0  0  0  0  0  0  0
   11.1539  -13.8730  -12.4675 C   0  0  0  0  0  0  0  0  0  0  0  0
   10.9456  -13.3859  -11.1728 N   0  0  0  0  0  0  0  0  0  0  0  0
   11.6196  -13.9167  -10.1431 C   0  0  0  0  0  0  0  0  0  0  0  0
   12.4950  -14.8994  -10.3412 C   0  0  0  0  0  0  0  0  0  0  0  0
   12.7259  -15.3679  -11.5653 C   0  0  0  0  0  0  0  0  0  0  0  0
   13.5556  -16.2568  -11.7501 O   0  0  0  0  0  0  0  0  0  0  0  0
   12.9537  -15.2804   -9.1522 N   0  0  0  0  0  0  0  0  0  0  0  0
   12.3691  -14.5333   -8.2209 C   0  0  0  0  0  0  0  0  0  0  0  0
   11.5501  -13.6851   -8.8363 N   0  0  0  0  0  0  0  0  0  0  0  0
  1  2  1  0  0  0  0
  1  6  1  0  0  0  0
  2  3  2  0  0  0  0
  3  4  1  0  0  0  0
  4  5  2  0  0  0  0
  4 10  1  0  0  0  0
  5  6  1  0  0  0  0
  5  8  1  0  0  0  0
  6  7  2  0  0  0  0
  8  9  1  0  0  0  0
  9 10  2  0  0  0  0
M  END
>  <CHROM.1>
12.16605912,-14.63564639,-10.65396620,1.49976493,0.81284103,-1.72304068

>  <Name>
ligand

>  <RI>
0

>  <Rbt.Current_Directory>
/home/itssahil/PROJECTS/Mol_Feturizer/New_Systems/rnas/4NYD

>  <Rbt.Executable>
rbdock ($Id: //depot/dev/client3/rdock/2013.1/src/exe/rbdock.cxx#4 $)

>  <Rbt.Library>
libRbt.so (2013.1, Build901 2013/11/27)

>  <Rbt.Parameter_File>
/export/apps/rDock/src/rDock_2013.1_src/data/scripts/dock_solv.prm

>  <Rbt.Receptor>
prm/blind_docking_40.prm

>  <SCORE>
-17.5664

>  <SCORE.INTER>
-17.5664

>  <SCORE.INTER.CONST>
1

>  <SCORE.INTER.POLAR>
0

>  <SCORE.INTER.ROT>
0

>  <SCORE.INTER.SOLV>
2.93616

>  <SCORE.INTER.VDW>
-16.2896

>  <SCORE.INTER.norm>
-1.75664

>  <SCORE.INTRA>
0

>  <SCORE.INTRA.DIHEDRAL>
0

>  <SCORE.INTRA.DIHEDRAL.0>
0

>  <SCORE.INTRA.POLAR>
0

>  <SCORE.INTRA.POLAR.0>
0

>  <SCORE.INTRA.REPUL>
0

>  <SCORE.INTRA.REPUL.0>
0

>  <SCORE.INTRA.SOLV>
0

>  <SCORE.INTRA.SOLV.lig_0>
-4.1818

>  <SCORE.INTRA.VDW>
0

>  <SCORE.INTRA.VDW.0>
0

>  <SCORE.INTRA.norm>
0

>  <SCORE.RESTR>
0

>  <SCORE.RESTR.CAVITY>
0

>  <SCORE.RESTR.norm>
0

>  <SCORE.SYSTEM>
0

>  <SCORE.SYSTEM.CONST>
0

>  <SCORE.SYSTEM.DIHEDRAL>
0

>  <SCORE.SYSTEM.SOLV>
0

>  <SCORE.SYSTEM.norm>
0

>  <SCORE.heavy>
10

>  <SCORE.norm>
-1.75664

>  <RMSD>
18.938

$$$$
ligand
 OpenBabel11021811503D
libRbt.so/2013.1/901 2013/11/27
 10 11  0  0  0  0  0  0  0  0999 V2000
   12.6883  -15.3242   -8.6451 N   0  0  0  0  0  0  0  0  0  0  0  0
   13.3615  -16.1442   -9.4305 C   0  0  0  0  0  0  0  0  0  0  0  0
   13.2291  -16.0244  -10.8179 N   0  0  0  0  0  0  0  0  0  0  0  0
   12.4132  -15.0943  -11.3330 C   0  0  0  0  0  0  0  0  0  0  0  0
   11.7322  -14.2744  -10.5359 C   0  0  0  0  0  0  0  0  0  0  0  0
   11.8548  -14.3547   -9.2131 C   0  0  0  0  0  0  0  0  0  0  0  0
   11.2463  -13.5779   -8.4788 O   0  0  0  0  0  0  0  0  0  0  0  0
   10.9548  -13.5151  -11.3031 N   0  0  0  0  0  0  0  0  0  0  0  0
   11.1569  -13.8590  -12.5711 C   0  0  0  0  0  0  0  0  0  0  0  0
   12.0651  -14.8306  -12.5883 N   0  0  0  0  0  0  0  0  0  0  0  0
  1  2  1  0  0  0  0
  1  6  1  0  0  0  0
  2  3  2  0  0  0  0
  3  4  1  0  0  0  0
  4  5  2  0  0  0  0
  4 10  1  0  0  0  0
  5  6  1  0  0  0  0
  5  8  1  0  0  0  0
  6  7  2  0  0  0  0
  8  9  1  0  0  0  0
  9 10  2  0  0  0  0
M  END
>  <CHROM.1>
12.05525790,-14.67950759,-10.45185874,-1.20737182,0.85168435,-1.64259088

>  <Name>
ligand

>  <RI>
0

>  <Rbt.Current_Directory>
/home/itssahil/PROJECTS/Mol_Feturizer/New_Systems/rnas/4NYD

>  <Rbt.Executable>
rbdock ($Id: //depot/dev/client3/rdock/2013.1/src/exe/rbdock.cxx#4 $)

>  <Rbt.Library>
libRbt.so (2013.1, Build901 2013/11/27)

>  <Rbt.Parameter_File>
/export/apps/rDock/src/rDock_2013.1_src/data/scripts/dock_solv.prm

>  <Rbt.Receptor>
prm/blind_docking_40.prm

>  <SCORE>
-17.1632

>  <SCORE.INTER>
-17.1632

>  <SCORE.INTER.CONST>
1

>  <SCORE.INTER.POLAR>
0

>  <SCORE.INTER.ROT>
0

>  <SCORE.INTER.SOLV>
3.84541

>  <SCORE.INTER.VDW>
-16.3239

>  <SCORE.INTER.norm>
-1.71632

>  <SCORE.INTRA>
0

>  <SCORE.INTRA.DIHEDRAL>
0

>  <SCORE.INTRA.DIHEDRAL.0>
0

>  <SCORE.INTRA.POLAR>
0

>  <SCORE.INTRA.POLAR.0>
0

>  <SCORE.INTRA.REPUL>
0

>  <SCORE.INTRA.REPUL.0>
0

>  <SCORE.INTRA.SOLV>
0

>  <SCORE.INTRA.SOLV.lig_0>
-4.1818

>  <SCORE.INTRA.VDW>
0

>  <SCORE.INTRA.VDW.0>
0

>  <SCORE.INTRA.norm>
0

>  <SCORE.RESTR>
0

>  <SCORE.RESTR.CAVITY>
0

>  <SCORE.RESTR.norm>
0

>  <SCORE.SYSTEM>
0

>  <SCORE.SYSTEM.CONST>
0

>  <SCORE.SYSTEM.DIHEDRAL>
0

>  <SCORE.SYSTEM.SOLV>
0

>  <SCORE.SYSTEM.norm>
0

>  <SCORE.heavy>
10

>  <SCORE.norm>
-1.71632

>  <RMSD>
18.946

$$$$
ligand
 OpenBabel11021811503D
libRbt.so/2013.1/901 2013/11/27
 10 11  0  0  0  0  0  0  0  0999 V2000
   13.0232  -15.3968   -8.8893 N   0  0  0  0  0  0  0  0  0  0  0  0
   12.3021  -14.4119   -8.3870 C   0  0  0  0  0  0  0  0  0  0  0  0
   11.4917  -13.6545   -9.2393 N   0  0  0  0  0  0  0  0  0  0  0  0
   11.4671  -13.9244  -10.5518 C   0  0  0  0  0  0  0  0  0  0  0  0
   12.2011  -14.9150  -11.0534 C   0  0  0  0  0  0  0  0  0  0  0  0
   12.9660  -15.6629  -10.2616 C   0  0  0  0  0  0  0  0  0  0  0  0
   13.6220  -16.5955  -10.7226 O   0  0  0  0  0  0  0  0  0  0  0  0
   12.0438  -14.9083  -12.3742 N   0  0  0  0  0  0  0  0  0  0  0  0
   11.2114  -13.9212  -12.6900 C   0  0  0  0  0  0  0  0  0  0  0  0
   10.8496  -13.3187  -11.5608 N   0  0  0  0  0  0  0  0  0  0  0  0
  1  2  1  0  0  0  0
  1  6  1  0  0  0  0
  2  3  2  0  0  0  0
  3  4  1  0  0  0  0
  4  5  2  0  0  0  0
  4 10  1  0  0  0  0
  5  6  1  0  0  0  0
  5  8  1  0  0  0  0
  6  7  2  0  0  0  0
  8  9  1  0  0  0  0
  9 10  2  0  0  0  0
M  END
>  <CHROM.1>
12.14718093,-14.70781064,-10.57404773,0.69421825,-0.88062678,1.37096424

>  <Name>
ligand

>  <RI>
0

>  <Rbt.Current_Directory>
/home/itssahil/PROJECTS/Mol_Feturizer/New_Systems/rnas/4NYD

>  <Rbt.Executable>
rbdock ($Id: //depot/dev/client3/rdock/2013.1/src/exe/rbdock.cxx#4 $)

>  <Rbt.Library>
libRbt.so (2013.1, Build901 2013/11/27)

>  <Rbt.Parameter_File>
/export/apps/rDock/src/rDock_2013.1_src/data/scripts/dock_solv.prm

>  <Rbt.Receptor>
prm/blind_docking_100.prm

>  <SCORE>
-17.7056

>  <SCORE.INTER>
-17.7056

>  <SCORE.INTER.CONST>
1

>  <SCORE.INTER.POLAR>
0

>  <SCORE.INTER.ROT>
0

>  <SCORE.INTER.SOLV>
3.10198

>  <SCORE.INTER.VDW>
-16.4378

>  <SCORE.INTER.norm>
-1.77056

>  <SCORE.INTRA>
0

>  <SCORE.INTRA.DIHEDRAL>
0

>  <SCORE.INTRA.DIHEDRAL.0>
0

>  <SCORE.INTRA.POLAR>
0

>  <SCORE.INTRA.POLAR.0>
0

>  <SCORE.INTRA.REPUL>
0

>  <SCORE.INTRA.REPUL.0>
0

>  <SCORE.INTRA.SOLV>
0

>  <SCORE.INTRA.SOLV.lig_0>
-4.1818

>  <SCORE.INTRA.VDW>
0

>  <SCORE.INTRA.VDW.0>
0

>  <SCORE.INTRA.norm>
0

>  <SCORE.RESTR>
0

>  <SCORE.RESTR.CAVITY>
0

>  <SCORE.RESTR.norm>
0

>  <SCORE.SYSTEM>
0

>  <SCORE.SYSTEM.CONST>
0

>  <SCORE.SYSTEM.DIHEDRAL>
0

>  <SCORE.SYSTEM.SOLV>
0

>  <SCORE.SYSTEM.norm>
0

>  <SCORE.heavy>
10

>  <SCORE.norm>
-1.77056

>  <RMSD>
18.952

$$$$
ligand
 OpenBabel11021811503D
libRbt.so/2013.1/901 2013/11/27
 10 11  0  0  0  0  0  0  0  0999 V2000
   13.0161  -15.4218   -8.8957 N   0  0  0  0  0  0  0  0  0  0  0  0
   12.2946  -14.4410   -8.3863 C   0  0  0  0  0  0  0  0  0  0  0  0
   11.4866  -13.6754   -9.2337 N   0  0  0  0  0  0  0  0  0  0  0  0
   11.4649  -13.9336  -10.5486 C   0  0  0  0  0  0  0  0  0  0  0  0
   12.1993  -14.9201  -11.0573 C   0  0  0  0  0  0  0  0  0  0  0  0
   12.9619  -15.6756  -10.2705 C   0  0  0  0  0  0  0  0  0  0  0  0
   13.6183  -16.6045  -10.7383 O   0  0  0  0  0  0  0  0  0  0  0  0
   12.0451  -14.9015  -12.3784 N   0  0  0  0  0  0  0  0  0  0  0  0
   11.2141  -13.9109  -12.6872 C   0  0  0  0  0  0  0  0  0  0  0  0
   10.8501  -13.3183  -11.5535 N   0  0  0  0  0  0  0  0  0  0  0  0
  1  2  1  0  0  0  0
  1  6  1  0  0  0  0
  2  3  2  0  0  0  0
  3  4  1  0  0  0  0
  4  5  2  0  0  0  0
  4 10  1  0  0  0  0
  5  6  1  0  0  0  0
  5  8  1  0  0  0  0
  6  7  2  0  0  0  0
  8  9  1  0  0  0  0
  9 10  2  0  0  0  0
M  END
>  <CHROM.1>
12.14444893,-14.71716580,-10.57629310,0.69754952,-0.88174945,1.38249604

>  <Name>
ligand

>  <RI>
0

>  <Rbt.Current_Directory>
/home/itssahil/PROJECTS/Mol_Feturizer/New_Systems/rnas/4NYD

>  <Rbt.Executable>
rbdock ($Id: //depot/dev/client3/rdock/2013.1/src/exe/rbdock.cxx#4 $)

>  <Rbt.Library>
libRbt.so (2013.1, Build901 2013/11/27)

>  <Rbt.Parameter_File>
/export/apps/rDock/src/rDock_2013.1_src/data/scripts/dock_solv.prm

>  <Rbt.Receptor>
prm/blind_docking_40.prm

>  <SCORE>
-17.6847

>  <SCORE.INTER>
-17.6847

>  <SCORE.INTER.CONST>
1

>  <SCORE.INTER.POLAR>
0

>  <SCORE.INTER.ROT>
0

>  <SCORE.INTER.SOLV>
3.09248

>  <SCORE.INTER.VDW>
-16.4207

>  <SCORE.INTER.norm>
-1.76847

>  <SCORE.INTRA>
0

>  <SCORE.INTRA.DIHEDRAL>
0

>  <SCORE.INTRA.DIHEDRAL.0>
0

>  <SCORE.INTRA.POLAR>
0

>  <SCORE.INTRA.POLAR.0>
0

>  <SCORE.INTRA.REPUL>
0

>  <SCORE.INTRA.REPUL.0>
0

>  <SCORE.INTRA.SOLV>
0

>  <SCORE.INTRA.SOLV.lig_0>
-4.1818

>  <SCORE.INTRA.VDW>
0

>  <SCORE.INTRA.VDW.0>
0

>  <SCORE.INTRA.norm>
0

>  <SCORE.RESTR>
0

>  <SCORE.RESTR.CAVITY>
0

>  <SCORE.RESTR.norm>
0

>  <SCORE.SYSTEM>
0

>  <SCORE.SYSTEM.CONST>
0

>  <SCORE.SYSTEM.DIHEDRAL>
0

>  <SCORE.SYSTEM.SOLV>
0

>  <SCORE.SYSTEM.norm>
0

>  <SCORE.heavy>
10

>  <SCORE.norm>
-1.76847

>  <RMSD>
18.959

$$$$
ligand
 OpenBabel11021811503D
libRbt.so/2013.1/901 2013/11/27
 10 11  0  0  0  0  0  0  0  0999 V2000
   13.0287  -15.4987   -8.9149 N   0  0  0  0  0  0  0  0  0  0  0  0
   12.3398  -14.5137   -8.3696 C   0  0  0  0  0  0  0  0  0  0  0  0
   11.5271  -13.7162   -9.1822 N   0  0  0  0  0  0  0  0  0  0  0  0
   11.4682  -13.9486  -10.5008 C   0  0  0  0  0  0  0  0  0  0  0  0
   12.1699  -14.9395  -11.0459 C   0  0  0  0  0  0  0  0  0  0  0  0
   12.9359  -15.7249  -10.2925 C   0  0  0  0  0  0  0  0  0  0  0  0
   13.5618  -16.6575  -10.7936 O   0  0  0  0  0  0  0  0  0  0  0  0
   11.9839  -14.8925  -12.3621 N   0  0  0  0  0  0  0  0  0  0  0  0
   11.1659  -13.8800  -12.6318 C   0  0  0  0  0  0  0  0  0  0  0  0
   10.8417  -13.3022  -11.4785 N   0  0  0  0  0  0  0  0  0  0  0  0
  1  2  1  0  0  0  0
  1  6  1  0  0  0  0
  2  3  2  0  0  0  0
  3  4  1  0  0  0  0
  4  5  2  0  0  0  0
  4 10  1  0  0  0  0
  5  6  1  0  0  0  0
  5  8  1  0  0  0  0
  6  7  2  0  0  0  0
  8  9  1  0  0  0  0
  9 10  2  0  0  0  0
M  END
>  <CHROM.1>
12.13082845,-14.74482955,-10.55993898,0.65315595,-0.89660814,1.36696507

>  <Name>
ligand

>  <RI>
0

>  <Rbt.Current_Directory>
/home/itssahil/PROJECTS/Mol_Feturizer/New_Systems/rnas/4NYD

>  <Rbt.Executable>
rbdock ($Id: //depot/dev/client3/rdock/2013.1/src/exe/rbdock.cxx#4 $)

>  <Rbt.Library>
libRbt.so (2013.1, Build901 2013/11/27)

>  <Rbt.Parameter_File>
/export/apps/rDock/src/rDock_2013.1_src/data/scripts/dock_solv.prm

>  <Rbt.Receptor>
prm/blind_docking_100.prm

>  <SCORE>
-17.6629

>  <SCORE.INTER>
-17.6629

>  <SCORE.INTER.CONST>
1

>  <SCORE.INTER.POLAR>
0

>  <SCORE.INTER.ROT>
0

>  <SCORE.INTER.SOLV>
3.01809

>  <SCORE.INTER.VDW>
-16.3813

>  <SCORE.INTER.norm>
-1.76629

>  <SCORE.INTRA>
0

>  <SCORE.INTRA.DIHEDRAL>
0

>  <SCORE.INTRA.DIHEDRAL.0>
0

>  <SCORE.INTRA.POLAR>
0

>  <SCORE.INTRA.POLAR.0>
0

>  <SCORE.INTRA.REPUL>
0

>  <SCORE.INTRA.REPUL.0>
0

>  <SCORE.INTRA.SOLV>
0

>  <SCORE.INTRA.SOLV.lig_0>
-4.1818

>  <SCORE.INTRA.VDW>
0

>  <SCORE.INTRA.VDW.0>
0

>  <SCORE.INTRA.norm>
0

>  <SCORE.RESTR>
0

>  <SCORE.RESTR.CAVITY>
0

>  <SCORE.RESTR.norm>
0

>  <SCORE.SYSTEM>
0

>  <SCORE.SYSTEM.CONST>
0

>  <SCORE.SYSTEM.DIHEDRAL>
0

>  <SCORE.SYSTEM.SOLV>
0

>  <SCORE.SYSTEM.norm>
0

>  <SCORE.heavy>
10

>  <SCORE.norm>
-1.76629

>  <RMSD>
18.965

$$$$
ligand
 OpenBabel11021811503D
libRbt.so/2013.1/901 2013/11/27
 10 11  0  0  0  0  0  0  0  0999 V2000
   11.5755  -13.6802   -8.8191 N   0  0  0  0  0  0  0  0  0  0  0  0
   12.4257  -14.5191   -8.2572 C   0  0  0  0  0  0  0  0  0  0  0  0
   13.1149  -15.4339   -9.0603 N   0  0  0  0  0  0  0  0  0  0  0  0
   12.8952  -15.4602  -10.3822 C   0  0  0  0  0  0  0  0  0  0  0  0
   12.0322  -14.6158  -10.9421 C   0  0  0  0  0  0  0  0  0  0  0  0
   11.3777  -13.7229  -10.2035 C   0  0  0  0  0  0  0  0  0  0  0  0
   10.6016  -12.9248  -10.7263 O   0  0  0  0  0  0  0  0  0  0  0  0
   11.9567  -14.9116  -12.2368 N   0  0  0  0  0  0  0  0  0  0  0  0
   12.7736  -15.9318  -12.4797 C   0  0  0  0  0  0  0  0  0  0  0  0
   13.3592  -16.2646  -11.3329 N   0  0  0  0  0  0  0  0  0  0  0  0
  1  2  1  0  0  0  0
  1  6  1  0  0  0  0
  2  3  2  0  0  0  0
  3  4  1  0  0  0  0
  4  5  2  0  0  0  0
  4 10  1  0  0  0  0
  5  6  1  0  0  0  0
  5  8  1  0  0  0  0
  6  7  2  0  0  0  0
  8  9  1  0  0  0  0
  9 10  2  0  0  0  0
M  END
>  <CHROM.1>
12.18015848,-14.71119157,-10.44760473,-2.17063071,0.84240765,-1.80290084

>  <Name>
ligand

>  <RI>
0

>  <Rbt.Current_Directory>
/home/itssahil/PROJECTS/Mol_Feturizer/New_Systems/rnas/4NYD

>  <Rbt.Executable>
rbdock ($Id: //depot/dev/client3/rdock/2013.1/src/exe/rbdock.cxx#4 $)

>  <Rbt.Library>
libRbt.so (2013.1, Build901 2013/11/27)

>  <Rbt.Parameter_File>
/export/apps/rDock/src/rDock_2013.1_src/data/scripts/dock_solv.prm

>  <Rbt.Receptor>
prm/blind_docking_100.prm

>  <SCORE>
-16.5444

>  <SCORE.INTER>
-16.5444

>  <SCORE.INTER.CONST>
1

>  <SCORE.INTER.POLAR>
0

>  <SCORE.INTER.ROT>
0

>  <SCORE.INTER.SOLV>
3.93632

>  <SCORE.INTER.VDW>
-15.9417

>  <SCORE.INTER.norm>
-1.65444

>  <SCORE.INTRA>
0

>  <SCORE.INTRA.DIHEDRAL>
0

>  <SCORE.INTRA.DIHEDRAL.0>
0

>  <SCORE.INTRA.POLAR>
0

>  <SCORE.INTRA.POLAR.0>
0

>  <SCORE.INTRA.REPUL>
0

>  <SCORE.INTRA.REPUL.0>
0

>  <SCORE.INTRA.SOLV>
0

>  <SCORE.INTRA.SOLV.lig_0>
-4.1818

>  <SCORE.INTRA.VDW>
0

>  <SCORE.INTRA.VDW.0>
0

>  <SCORE.INTRA.norm>
0

>  <SCORE.RESTR>
0

>  <SCORE.RESTR.CAVITY>
0

>  <SCORE.RESTR.norm>
0

>  <SCORE.SYSTEM>
0

>  <SCORE.SYSTEM.CONST>
0

>  <SCORE.SYSTEM.DIHEDRAL>
0

>  <SCORE.SYSTEM.SOLV>
0

>  <SCORE.SYSTEM.norm>
0

>  <SCORE.heavy>
10

>  <SCORE.norm>
-1.65444

>  <RMSD>
18.988

$$$$
ligand
 OpenBabel11021811503D
libRbt.so/2013.1/901 2013/11/27
 10 11  0  0  0  0  0  0  0  0999 V2000
   12.9828  -15.4475   -8.9243 N   0  0  0  0  0  0  0  0  0  0  0  0
   12.2577  -14.4667   -8.4198 C   0  0  0  0  0  0  0  0  0  0  0  0
   11.4607  -13.6970   -9.2737 N   0  0  0  0  0  0  0  0  0  0  0  0
   11.4529  -13.9511  -10.5896 C   0  0  0  0  0  0  0  0  0  0  0  0
   12.1909  -14.9376  -11.0932 C   0  0  0  0  0  0  0  0  0  0  0  0
   12.9432  -15.6971  -10.3003 C   0  0  0  0  0  0  0  0  0  0  0  0
   13.6028  -16.6260  -10.7637 O   0  0  0  0  0  0  0  0  0  0  0  0
   12.0512  -14.9148  -12.4158 N   0  0  0  0  0  0  0  0  0  0  0  0
   11.2257  -13.9216  -12.7307 C   0  0  0  0  0  0  0  0  0  0  0  0
   10.8504  -13.3316  -11.5993 N   0  0  0  0  0  0  0  0  0  0  0  0
  1  2  1  0  0  0  0
  1  6  1  0  0  0  0
  2  3  2  0  0  0  0
  3  4  1  0  0  0  0
  4  5  2  0  0  0  0
  4 10  1  0  0  0  0
  5  6  1  0  0  0  0
  5  8  1  0  0  0  0
  6  7  2  0  0  0  0
  8  9  1  0  0  0  0
  9 10  2  0  0  0  0
M  END
>  <CHROM.1>
12.13109020,-14.73605120,-10.61215924,0.71403125,-0.88572878,1.39823407

>  <Name>
ligand

>  <RI>
0

>  <Rbt.Current_Directory>
/home/itssahil/PROJECTS/Mol_Feturizer/New_Systems/rnas/4NYD

>  <Rbt.Executable>
rbdock ($Id: //depot/dev/client3/rdock/2013.1/src/exe/rbdock.cxx#4 $)

>  <Rbt.Library>
libRbt.so (2013.1, Build901 2013/11/27)

>  <Rbt.Parameter_File>
/export/apps/rDock/src/rDock_2013.1_src/data/scripts/dock_solv.prm

>  <Rbt.Receptor>
prm/blind_docking_100.prm

>  <SCORE>
-17.6497

>  <SCORE.INTER>
-17.6497

>  <SCORE.INTER.CONST>
1

>  <SCORE.INTER.POLAR>
0

>  <SCORE.INTER.ROT>
0

>  <SCORE.INTER.SOLV>
3.05594

>  <SCORE.INTER.VDW>
-16.3851

>  <SCORE.INTER.norm>
-1.76497

>  <SCORE.INTRA>
0

>  <SCORE.INTRA.DIHEDRAL>
0

>  <SCORE.INTRA.DIHEDRAL.0>
0

>  <SCORE.INTRA.POLAR>
0

>  <SCORE.INTRA.POLAR.0>
0

>  <SCORE.INTRA.REPUL>
0

>  <SCORE.INTRA.REPUL.0>
0

>  <SCORE.INTRA.SOLV>
0

>  <SCORE.INTRA.SOLV.lig_0>
-4.1818

>  <SCORE.INTRA.VDW>
0

>  <SCORE.INTRA.VDW.0>
0

>  <SCORE.INTRA.norm>
0

>  <SCORE.RESTR>
0

>  <SCORE.RESTR.CAVITY>
0

>  <SCORE.RESTR.norm>
0

>  <SCORE.SYSTEM>
0

>  <SCORE.SYSTEM.CONST>
0

>  <SCORE.SYSTEM.DIHEDRAL>
0

>  <SCORE.SYSTEM.SOLV>
0

>  <SCORE.SYSTEM.norm>
0

>  <SCORE.heavy>
10

>  <SCORE.norm>
-1.76497

>  <RMSD>
19.001

$$$$
ligand
 OpenBabel11021811503D
libRbt.so/2013.1/901 2013/11/27
 10 11  0  0  0  0  0  0  0  0999 V2000
   13.0339  -15.4334   -8.9637 N   0  0  0  0  0  0  0  0  0  0  0  0
   12.2838  -14.4805   -8.4425 C   0  0  0  0  0  0  0  0  0  0  0  0
   11.4520  -13.7302   -9.2803 N   0  0  0  0  0  0  0  0  0  0  0  0
   11.4362  -13.9740  -10.5980 C   0  0  0  0  0  0  0  0  0  0  0  0
   12.1993  -14.9321  -11.1186 C   0  0  0  0  0  0  0  0  0  0  0  0
   12.9854  -15.6732  -10.3412 C   0  0  0  0  0  0  0  0  0  0  0  0
   13.6689  -16.5765  -10.8202 O   0  0  0  0  0  0  0  0  0  0  0  0
   12.0427  -14.9033  -12.4392 N   0  0  0  0  0  0  0  0  0  0  0  0
   11.1818  -13.9349  -12.7359 C   0  0  0  0  0  0  0  0  0  0  0  0
   10.8017  -13.3663  -11.5952 N   0  0  0  0  0  0  0  0  0  0  0  0
  1  2  1  0  0  0  0
  1  6  1  0  0  0  0
  2  3  2  0  0  0  0
  3  4  1  0  0  0  0
  4  5  2  0  0  0  0
  4 10  1  0  0  0  0
  5  6  1  0  0  0  0
  5  8  1  0  0  0  0
  6  7  2  0  0  0  0
  8  9  1  0  0  0  0
  9 10  2  0  0  0  0
M  END
>  <CHROM.1>
12.13900437,-14.73643316,-10.63527040,0.70401856,-0.85184749,1.39872748

>  <Name>
ligand

>  <RI>
0

>  <Rbt.Current_Directory>
/home/itssahil/PROJECTS/Mol_Feturizer/New_Systems/rnas/4NYD

>  <Rbt.Executable>
rbdock ($Id: //depot/dev/client3/rdock/2013.1/src/exe/rbdock.cxx#4 $)

>  <Rbt.Library>
libRbt.so (2013.1, Build901 2013/11/27)

>  <Rbt.Parameter_File>
/export/apps/rDock/src/rDock_2013.1_src/data/scripts/dock_solv.prm

>  <Rbt.Receptor>
prm/blind_docking_40.prm

>  <SCORE>
-17.7094

>  <SCORE.INTER>
-17.7094

>  <SCORE.INTER.CONST>
1

>  <SCORE.INTER.POLAR>
0

>  <SCORE.INTER.ROT>
0

>  <SCORE.INTER.SOLV>
3.13914

>  <SCORE.INTER.VDW>
-16.4526

>  <SCORE.INTER.norm>
-1.77094

>  <SCORE.INTRA>
0

>  <SCORE.INTRA.DIHEDRAL>
0

>  <SCORE.INTRA.DIHEDRAL.0>
0

>  <SCORE.INTRA.POLAR>
0

>  <SCORE.INTRA.POLAR.0>
0

>  <SCORE.INTRA.REPUL>
0

>  <SCORE.INTRA.REPUL.0>
0

>  <SCORE.INTRA.SOLV>
0

>  <SCORE.INTRA.SOLV.lig_0>
-4.1818

>  <SCORE.INTRA.VDW>
0

>  <SCORE.INTRA.VDW.0>
0

>  <SCORE.INTRA.norm>
0

>  <SCORE.RESTR>
0

>  <SCORE.RESTR.CAVITY>
0

>  <SCORE.RESTR.norm>
0

>  <SCORE.SYSTEM>
0

>  <SCORE.SYSTEM.CONST>
0

>  <SCORE.SYSTEM.DIHEDRAL>
0

>  <SCORE.SYSTEM.SOLV>
0

>  <SCORE.SYSTEM.norm>
0

>  <SCORE.heavy>
10

>  <SCORE.norm>
-1.77094

>  <RMSD>
19.011

$$$$
ligand
 OpenBabel11021811503D
libRbt.so/2013.1/901 2013/11/27
 10 11  0  0  0  0  0  0  0  0999 V2000
   13.1057  -15.5983   -9.0007 N   0  0  0  0  0  0  0  0  0  0  0  0
   12.3905  -14.6453   -8.4327 C   0  0  0  0  0  0  0  0  0  0  0  0
   11.5651  -13.8438   -9.2284 N   0  0  0  0  0  0  0  0  0  0  0  0
   11.5204  -14.0397  -10.5535 C   0  0  0  0  0  0  0  0  0  0  0  0
   12.2485  -14.9983  -11.1212 C   0  0  0  0  0  0  0  0  0  0  0  0
   13.0274  -15.7872  -10.3848 C   0  0  0  0  0  0  0  0  0  0  0  0
   13.6780  -16.6905  -10.9076 O   0  0  0  0  0  0  0  0  0  0  0  0
   12.0703  -14.9181  -12.4370 N   0  0  0  0  0  0  0  0  0  0  0  0
   11.2309  -13.9173  -12.6838 C   0  0  0  0  0  0  0  0  0  0  0  0
   10.8857  -13.3802  -11.5170 N   0  0  0  0  0  0  0  0  0  0  0  0
  1  2  1  0  0  0  0
  1  6  1  0  0  0  0
  2  3  2  0  0  0  0
  3  4  1  0  0  0  0
  4  5  2  0  0  0  0
  4 10  1  0  0  0  0
  5  6  1  0  0  0  0
  5  8  1  0  0  0  0
  6  7  2  0  0  0  0
  8  9  1  0  0  0  0
  9 10  2  0  0  0  0
M  END
>  <CHROM.1>
12.20168009,-14.81856829,-10.63026770,0.67070869,-0.87526155,1.40902650

>  <Name>
ligand

>  <RI>
0

>  <Rbt.Current_Directory>
/home/itssahil/PROJECTS/Mol_Feturizer/New_Systems/rnas/4NYD

>  <Rbt.Executable>
rbdock ($Id: //depot/dev/client3/rdock/2013.1/src/exe/rbdock.cxx#4 $)

>  <Rbt.Library>
libRbt.so (2013.1, Build901 2013/11/27)

>  <Rbt.Parameter_File>
/export/apps/rDock/src/rDock_2013.1_src/data/scripts/dock_solv.prm

>  <Rbt.Receptor>
prm/blind_docking_100.prm

>  <SCORE>
-17.6494

>  <SCORE.INTER>
-17.6494

>  <SCORE.INTER.CONST>
1

>  <SCORE.INTER.POLAR>
0

>  <SCORE.INTER.ROT>
0

>  <SCORE.INTER.SOLV>
3.03434

>  <SCORE.INTER.VDW>
-16.3777

>  <SCORE.INTER.norm>
-1.76494

>  <SCORE.INTRA>
0

>  <SCORE.INTRA.DIHEDRAL>
0

>  <SCORE.INTRA.DIHEDRAL.0>
0

>  <SCORE.INTRA.POLAR>
0

>  <SCORE.INTRA.POLAR.0>
0

>  <SCORE.INTRA.REPUL>
0

>  <SCORE.INTRA.REPUL.0>
0

>  <SCORE.INTRA.SOLV>
0

>  <SCORE.INTRA.SOLV.lig_0>
-4.1818

>  <SCORE.INTRA.VDW>
0

>  <SCORE.INTRA.VDW.0>
0

>  <SCORE.INTRA.norm>
0

>  <SCORE.RESTR>
0

>  <SCORE.RESTR.CAVITY>
0

>  <SCORE.RESTR.norm>
0

>  <SCORE.SYSTEM>
0

>  <SCORE.SYSTEM.CONST>
0

>  <SCORE.SYSTEM.DIHEDRAL>
0

>  <SCORE.SYSTEM.SOLV>
0

>  <SCORE.SYSTEM.norm>
0

>  <SCORE.heavy>
10

>  <SCORE.norm>
-1.76494

>  <RMSD>
19.030

$$$$
ligand
 OpenBabel11021811503D
libRbt.so/2013.1/901 2013/11/27
 10 11  0  0  0  0  0  0  0  0999 V2000
   11.0043  -13.4699  -10.0781 N   0  0  0  0  0  0  0  0  0  0  0  0
   11.4563  -13.8050   -8.8840 C   0  0  0  0  0  0  0  0  0  0  0  0
   12.4226  -14.8108   -8.7764 N   0  0  0  0  0  0  0  0  0  0  0  0
   12.8662  -15.4313   -9.8784 C   0  0  0  0  0  0  0  0  0  0  0  0
   12.4022  -15.0933  -11.0791 C   0  0  0  0  0  0  0  0  0  0  0  0
   11.4967  -14.1268  -11.2110 C   0  0  0  0  0  0  0  0  0  0  0  0
   11.0897  -13.7966  -12.3236 O   0  0  0  0  0  0  0  0  0  0  0  0
   12.9517  -15.9119  -11.9720 N   0  0  0  0  0  0  0  0  0  0  0  0
   13.7574  -16.7506  -11.3283 C   0  0  0  0  0  0  0  0  0  0  0  0
   13.7092  -16.4468  -10.0343 N   0  0  0  0  0  0  0  0  0  0  0  0
  1  2  1  0  0  0  0
  1  6  1  0  0  0  0
  2  3  2  0  0  0  0
  3  4  1  0  0  0  0
  4  5  2  0  0  0  0
  4 10  1  0  0  0  0
  5  6  1  0  0  0  0
  5  8  1  0  0  0  0
  6  7  2  0  0  0  0
  8  9  1  0  0  0  0
  9 10  2  0  0  0  0
M  END
>  <CHROM.1>
12.29109353,-14.94085785,-10.58925568,-2.93629724,0.83988459,-1.70930237

>  <Name>
ligand

>  <RI>
0

>  <Rbt.Current_Directory>
/home/itssahil/PROJECTS/Mol_Feturizer/New_Systems/rnas/4NYD

>  <Rbt.Executable>
rbdock ($Id: //depot/dev/client3/rdock/2013.1/src/exe/rbdock.cxx#4 $)

>  <Rbt.Library>
libRbt.so (2013.1, Build901 2013/11/27)

>  <Rbt.Parameter_File>
/export/apps/rDock/src/rDock_2013.1_src/data/scripts/dock_solv.prm

>  <Rbt.Receptor>
prm/blind_docking_40.prm

>  <SCORE>
-16.4677

>  <SCORE.INTER>
-16.4677

>  <SCORE.INTER.CONST>
1

>  <SCORE.INTER.POLAR>
0

>  <SCORE.INTER.ROT>
0

>  <SCORE.INTER.SOLV>
3.65842

>  <SCORE.INTER.VDW>
-15.7979

>  <SCORE.INTER.norm>
-1.64677

>  <SCORE.INTRA>
0

>  <SCORE.INTRA.DIHEDRAL>
0

>  <SCORE.INTRA.DIHEDRAL.0>
0

>  <SCORE.INTRA.POLAR>
0

>  <SCORE.INTRA.POLAR.0>
0

>  <SCORE.INTRA.REPUL>
0

>  <SCORE.INTRA.REPUL.0>
0

>  <SCORE.INTRA.SOLV>
0

>  <SCORE.INTRA.SOLV.lig_0>
-4.1818

>  <SCORE.INTRA.VDW>
0

>  <SCORE.INTRA.VDW.0>
0

>  <SCORE.INTRA.norm>
0

>  <SCORE.RESTR>
0

>  <SCORE.RESTR.CAVITY>
0

>  <SCORE.RESTR.norm>
0

>  <SCORE.SYSTEM>
0

>  <SCORE.SYSTEM.CONST>
0

>  <SCORE.SYSTEM.DIHEDRAL>
0

>  <SCORE.SYSTEM.SOLV>
0

>  <SCORE.SYSTEM.norm>
0

>  <SCORE.heavy>
10

>  <SCORE.norm>
-1.64677

>  <RMSD>
19.183

$$$$
ligand
 OpenBabel11021811503D
libRbt.so/2013.1/901 2013/11/27
 10 11  0  0  0  0  0  0  0  0999 V2000
    5.6296   -7.6327  -18.1273 N   0  0  0  0  0  0  0  0  0  0  0  0
    5.6378   -8.8226  -17.5560 C   0  0  0  0  0  0  0  0  0  0  0  0
    6.5284   -9.0705  -16.5061 N   0  0  0  0  0  0  0  0  0  0  0  0
    7.3701   -8.1086  -16.1031 C   0  0  0  0  0  0  0  0  0  0  0  0
    7.3613   -6.9127  -16.6872 C   0  0  0  0  0  0  0  0  0  0  0  0
    6.5110   -6.6447  -17.6754 C   0  0  0  0  0  0  0  0  0  0  0  0
    6.4850   -5.5303  -18.1951 O   0  0  0  0  0  0  0  0  0  0  0  0
    8.3378   -6.1894  -16.1462 N   0  0  0  0  0  0  0  0  0  0  0  0
    8.9462   -6.9319  -15.2266 C   0  0  0  0  0  0  0  0  0  0  0  0
    8.3413   -8.1160  -15.1959 N   0  0  0  0  0  0  0  0  0  0  0  0
  1  2  1  0  0  0  0
  1  6  1  0  0  0  0
  2  3  2  0  0  0  0
  3  4  1  0  0  0  0
  4  5  2  0  0  0  0
  4 10  1  0  0  0  0
  5  6  1  0  0  0  0
  5  8  1  0  0  0  0
  6  7  2  0  0  0  0
  8  9  1  0  0  0  0
  9 10  2  0  0  0  0
M  END
>  <CHROM.1>
7.10153552,-7.36114267,-16.77078024,2.82480626,-0.72357185,-0.43710981

>  <Name>
ligand

>  <RI>
0

>  <Rbt.Current_Directory>
/home/itssahil/PROJECTS/Mol_Feturizer/New_Systems/rnas/4NYD

>  <Rbt.Executable>
rbdock ($Id: //depot/dev/client3/rdock/2013.1/src/exe/rbdock.cxx#4 $)

>  <Rbt.Library>
libRbt.so (2013.1, Build901 2013/11/27)

>  <Rbt.Parameter_File>
/export/apps/rDock/src/rDock_2013.1_src/data/scripts/dock_solv.prm

>  <Rbt.Receptor>
prm/blind_docking_60.prm

>  <SCORE>
-12.2271

>  <SCORE.INTER>
-12.2271

>  <SCORE.INTER.CONST>
1

>  <SCORE.INTER.POLAR>
0

>  <SCORE.INTER.ROT>
0

>  <SCORE.INTER.SOLV>
3.2386

>  <SCORE.INTER.VDW>
-12.8309

>  <SCORE.INTER.norm>
-1.22271

>  <SCORE.INTRA>
0

>  <SCORE.INTRA.DIHEDRAL>
0

>  <SCORE.INTRA.DIHEDRAL.0>
0

>  <SCORE.INTRA.POLAR>
0

>  <SCORE.INTRA.POLAR.0>
0

>  <SCORE.INTRA.REPUL>
0

>  <SCORE.INTRA.REPUL.0>
0

>  <SCORE.INTRA.SOLV>
0

>  <SCORE.INTRA.SOLV.lig_0>
-4.1818

>  <SCORE.INTRA.VDW>
0

>  <SCORE.INTRA.VDW.0>
0

>  <SCORE.INTRA.norm>
0

>  <SCORE.RESTR>
0

>  <SCORE.RESTR.CAVITY>
0

>  <SCORE.RESTR.norm>
0

>  <SCORE.SYSTEM>
0

>  <SCORE.SYSTEM.CONST>
0

>  <SCORE.SYSTEM.DIHEDRAL>
0

>  <SCORE.SYSTEM.SOLV>
0

>  <SCORE.SYSTEM.norm>
0

>  <SCORE.heavy>
10

>  <SCORE.norm>
-1.22271

>  <RMSD>
23.135

$$$$
ligand
 OpenBabel11021811503D
libRbt.so/2013.1/901 2013/11/27
 10 11  0  0  0  0  0  0  0  0999 V2000
    8.2740   -8.4512  -15.8409 N   0  0  0  0  0  0  0  0  0  0  0  0
    8.6940   -7.2656  -15.4405 C   0  0  0  0  0  0  0  0  0  0  0  0
    8.1060   -6.1151  -15.9768 N   0  0  0  0  0  0  0  0  0  0  0  0
    7.1386   -6.2268  -16.8976 C   0  0  0  0  0  0  0  0  0  0  0  0
    6.7235   -7.4250  -17.3019 C   0  0  0  0  0  0  0  0  0  0  0  0
    7.2529   -8.5353  -16.7937 C   0  0  0  0  0  0  0  0  0  0  0  0
    6.8487   -9.6416  -17.1478 O   0  0  0  0  0  0  0  0  0  0  0  0
    5.8223   -7.2396  -18.2625 N   0  0  0  0  0  0  0  0  0  0  0  0
    5.6753   -5.9318  -18.4495 C   0  0  0  0  0  0  0  0  0  0  0  0
    6.4844   -5.3067  -17.5989 N   0  0  0  0  0  0  0  0  0  0  0  0
  1  2  1  0  0  0  0
  1  6  1  0  0  0  0
  2  3  2  0  0  0  0
  3  4  1  0  0  0  0
  4  5  2  0  0  0  0
  4 10  1  0  0  0  0
  5  6  1  0  0  0  0
  5  8  1  0  0  0  0
  6  7  2  0  0  0  0
  8  9  1  0  0  0  0
  9 10  2  0  0  0  0
M  END
>  <CHROM.1>
7.09853799,-7.26084688,-16.97327537,-0.79562869,-0.77778398,-0.01714254

>  <Name>
ligand

>  <RI>
0

>  <Rbt.Current_Directory>
/home/itssahil/PROJECTS/Mol_Feturizer/New_Systems/rnas/4NYD

>  <Rbt.Executable>
rbdock ($Id: //depot/dev/client3/rdock/2013.1/src/exe/rbdock.cxx#4 $)

>  <Rbt.Library>
libRbt.so (2013.1, Build901 2013/11/27)

>  <Rbt.Parameter_File>
/export/apps/rDock/src/rDock_2013.1_src/data/scripts/dock_solv.prm

>  <Rbt.Receptor>
prm/blind_docking_80.prm

>  <SCORE>
-13.2361

>  <SCORE.INTER>
-13.2361

>  <SCORE.INTER.CONST>
1

>  <SCORE.INTER.POLAR>
0

>  <SCORE.INTER.ROT>
0

>  <SCORE.INTER.SOLV>
2.42213

>  <SCORE.INTER.VDW>
-13.2314

>  <SCORE.INTER.norm>
-1.32361

>  <SCORE.INTRA>
0

>  <SCORE.INTRA.DIHEDRAL>
0

>  <SCORE.INTRA.DIHEDRAL.0>
0

>  <SCORE.INTRA.POLAR>
0

>  <SCORE.INTRA.POLAR.0>
0

>  <SCORE.INTRA.REPUL>
0

>  <SCORE.INTRA.REPUL.0>
0

>  <SCORE.INTRA.SOLV>
0

>  <SCORE.INTRA.SOLV.lig_0>
-4.1818

>  <SCORE.INTRA.VDW>
0

>  <SCORE.INTRA.VDW.0>
0

>  <SCORE.INTRA.norm>
0

>  <SCORE.RESTR>
0

>  <SCORE.RESTR.CAVITY>
0

>  <SCORE.RESTR.norm>
0

>  <SCORE.SYSTEM>
0

>  <SCORE.SYSTEM.CONST>
0

>  <SCORE.SYSTEM.DIHEDRAL>
0

>  <SCORE.SYSTEM.SOLV>
0

>  <SCORE.SYSTEM.norm>
0

>  <SCORE.heavy>
10

>  <SCORE.norm>
-1.32361

>  <RMSD>
23.312

$$$$
ligand
 OpenBabel11021811503D
libRbt.so/2013.1/901 2013/11/27
 10 11  0  0  0  0  0  0  0  0999 V2000
    8.6074   -8.5587  -16.1855 N   0  0  0  0  0  0  0  0  0  0  0  0
    8.0807   -9.3872  -17.0679 C   0  0  0  0  0  0  0  0  0  0  0  0
    7.1662   -8.8961  -18.0057 N   0  0  0  0  0  0  0  0  0  0  0  0
    6.8239   -7.6005  -17.9895 C   0  0  0  0  0  0  0  0  0  0  0  0
    7.3537   -6.7711  -17.0935 C   0  0  0  0  0  0  0  0  0  0  0  0
    8.2403   -7.2087  -16.2026 C   0  0  0  0  0  0  0  0  0  0  0  0
    8.7499   -6.4353  -15.3933 O   0  0  0  0  0  0  0  0  0  0  0  0
    6.7856   -5.5796  -17.2574 N   0  0  0  0  0  0  0  0  0  0  0  0
    5.9111   -5.6682  -18.2546 C   0  0  0  0  0  0  0  0  0  0  0  0
    5.9418   -6.9169  -18.7114 N   0  0  0  0  0  0  0  0  0  0  0  0
  1  2  1  0  0  0  0
  1  6  1  0  0  0  0
  2  3  2  0  0  0  0
  3  4  1  0  0  0  0
  4  5  2  0  0  0  0
  4 10  1  0  0  0  0
  5  6  1  0  0  0  0
  5  8  1  0  0  0  0
  6  7  2  0  0  0  0
  8  9  1  0  0  0  0
  9 10  2  0  0  0  0
M  END
>  <CHROM.1>
7.39330026,-7.28725974,-17.18066574,0.30111711,0.81998717,-2.81657609

>  <Name>
ligand

>  <RI>
0

>  <Rbt.Current_Directory>
/home/itssahil/PROJECTS/Mol_Feturizer/New_Systems/rnas/4NYD

>  <Rbt.Executable>
rbdock ($Id: //depot/dev/client3/rdock/2013.1/src/exe/rbdock.cxx#4 $)

>  <Rbt.Library>
libRbt.so (2013.1, Build901 2013/11/27)

>  <Rbt.Parameter_File>
/export/apps/rDock/src/rDock_2013.1_src/data/scripts/dock_solv.prm

>  <Rbt.Receptor>
prm/blind_docking_60.prm

>  <SCORE>
-12.0961

>  <SCORE.INTER>
-12.0961

>  <SCORE.INTER.CONST>
1

>  <SCORE.INTER.POLAR>
0

>  <SCORE.INTER.ROT>
0

>  <SCORE.INTER.SOLV>
2.27241

>  <SCORE.INTER.VDW>
-12.4216

>  <SCORE.INTER.norm>
-1.20961

>  <SCORE.INTRA>
0

>  <SCORE.INTRA.DIHEDRAL>
0

>  <SCORE.INTRA.DIHEDRAL.0>
0

>  <SCORE.INTRA.POLAR>
0

>  <SCORE.INTRA.POLAR.0>
0

>  <SCORE.INTRA.REPUL>
0

>  <SCORE.INTRA.REPUL.0>
0

>  <SCORE.INTRA.SOLV>
0

>  <SCORE.INTRA.SOLV.lig_0>
-4.1818

>  <SCORE.INTRA.VDW>
0

>  <SCORE.INTRA.VDW.0>
0

>  <SCORE.INTRA.norm>
0

>  <SCORE.RESTR>
0

>  <SCORE.RESTR.CAVITY>
0

>  <SCORE.RESTR.norm>
0

>  <SCORE.SYSTEM>
0

>  <SCORE.SYSTEM.CONST>
0

>  <SCORE.SYSTEM.DIHEDRAL>
0

>  <SCORE.SYSTEM.SOLV>
0

>  <SCORE.SYSTEM.norm>
0

>  <SCORE.heavy>
10

>  <SCORE.norm>
-1.20961

>  <RMSD>
23.322

$$$$
ligand
 OpenBabel11021811503D
libRbt.so/2013.1/901 2013/11/27
 10 11  0  0  0  0  0  0  0  0999 V2000
    8.2211   -8.4557  -15.8595 N   0  0  0  0  0  0  0  0  0  0  0  0
    8.6571   -7.2731  -15.4674 C   0  0  0  0  0  0  0  0  0  0  0  0
    8.0787   -6.1186  -16.0054 N   0  0  0  0  0  0  0  0  0  0  0  0
    7.1044   -6.2236  -16.9196 C   0  0  0  0  0  0  0  0  0  0  0  0
    6.6732   -7.4188  -17.3156 C   0  0  0  0  0  0  0  0  0  0  0  0
    7.1932   -8.5327  -16.8054 C   0  0  0  0  0  0  0  0  0  0  0  0
    6.7742   -9.6359  -17.1518 O   0  0  0  0  0  0  0  0  0  0  0  0
    5.7681   -7.2278  -18.2715 N   0  0  0  0  0  0  0  0  0  0  0  0
    5.6347   -5.9192  -18.4637 C   0  0  0  0  0  0  0  0  0  0  0  0
    6.4562   -5.2994  -17.6212 N   0  0  0  0  0  0  0  0  0  0  0  0
  1  2  1  0  0  0  0
  1  6  1  0  0  0  0
  2  3  2  0  0  0  0
  3  4  1  0  0  0  0
  4  5  2  0  0  0  0
  4 10  1  0  0  0  0
  5  6  1  0  0  0  0
  5  8  1  0  0  0  0
  6  7  2  0  0  0  0
  8  9  1  0  0  0  0
  9 10  2  0  0  0  0
M  END
>  <CHROM.1>
7.05210274,-7.25743722,-16.99010469,-0.81124246,-0.77122993,-0.03276937

>  <Name>
ligand

>  <RI>
0

>  <Rbt.Current_Directory>
/home/itssahil/PROJECTS/Mol_Feturizer/New_Systems/rnas/4NYD

>  <Rbt.Executable>
rbdock ($Id: //depot/dev/client3/rdock/2013.1/src/exe/rbdock.cxx#4 $)

>  <Rbt.Library>
libRbt.so (2013.1, Build901 2013/11/27)

>  <Rbt.Parameter_File>
/export/apps/rDock/src/rDock_2013.1_src/data/scripts/dock_solv.prm

>  <Rbt.Receptor>
prm/blind_docking_60.prm

>  <SCORE>
-13.2601

>  <SCORE.INTER>
-13.2601

>  <SCORE.INTER.CONST>
1

>  <SCORE.INTER.POLAR>
0

>  <SCORE.INTER.ROT>
0

>  <SCORE.INTER.SOLV>
2.40341

>  <SCORE.INTER.VDW>
-13.2412

>  <SCORE.INTER.norm>
-1.32601

>  <SCORE.INTRA>
0

>  <SCORE.INTRA.DIHEDRAL>
0

>  <SCORE.INTRA.DIHEDRAL.0>
0

>  <SCORE.INTRA.POLAR>
0

>  <SCORE.INTRA.POLAR.0>
0

>  <SCORE.INTRA.REPUL>
0

>  <SCORE.INTRA.REPUL.0>
0

>  <SCORE.INTRA.SOLV>
0

>  <SCORE.INTRA.SOLV.lig_0>
-4.1818

>  <SCORE.INTRA.VDW>
0

>  <SCORE.INTRA.VDW.0>
0

>  <SCORE.INTRA.norm>
0

>  <SCORE.RESTR>
0

>  <SCORE.RESTR.CAVITY>
0

>  <SCORE.RESTR.norm>
0

>  <SCORE.SYSTEM>
0

>  <SCORE.SYSTEM.CONST>
0

>  <SCORE.SYSTEM.DIHEDRAL>
0

>  <SCORE.SYSTEM.SOLV>
0

>  <SCORE.SYSTEM.norm>
0

>  <SCORE.heavy>
10

>  <SCORE.norm>
-1.32601

>  <RMSD>
23.349

$$$$
ligand
 OpenBabel11021811503D
libRbt.so/2013.1/901 2013/11/27
 10 11  0  0  0  0  0  0  0  0999 V2000
    5.6095   -7.2420  -18.3884 N   0  0  0  0  0  0  0  0  0  0  0  0
    5.9743   -5.9766  -18.2987 C   0  0  0  0  0  0  0  0  0  0  0  0
    6.9939   -5.6205  -17.4096 N   0  0  0  0  0  0  0  0  0  0  0  0
    7.5762   -6.5592  -16.6507 C   0  0  0  0  0  0  0  0  0  0  0  0
    7.1999   -7.8326  -16.7412 C   0  0  0  0  0  0  0  0  0  0  0  0
    6.2457   -8.2010  -17.5927 C   0  0  0  0  0  0  0  0  0  0  0  0
    5.9186   -9.3822  -17.6951 O   0  0  0  0  0  0  0  0  0  0  0  0
    7.8824   -8.5233  -15.8320 N   0  0  0  0  0  0  0  0  0  0  0  0
    8.6826   -7.6825  -15.1841 C   0  0  0  0  0  0  0  0  0  0  0  0
    8.4977   -6.4695  -15.6972 N   0  0  0  0  0  0  0  0  0  0  0  0
  1  2  1  0  0  0  0
  1  6  1  0  0  0  0
  2  3  2  0  0  0  0
  3  4  1  0  0  0  0
  4  5  2  0  0  0  0
  4 10  1  0  0  0  0
  5  6  1  0  0  0  0
  5  8  1  0  0  0  0
  6  7  2  0  0  0  0
  8  9  1  0  0  0  0
  9 10  2  0  0  0  0
M  END
>  <CHROM.1>
7.03502512,-7.38705982,-16.96440278,-3.07515365,0.77912081,2.93006922

>  <Name>
ligand

>  <RI>
0

>  <Rbt.Current_Directory>
/home/itssahil/PROJECTS/Mol_Feturizer/New_Systems/rnas/4NYD

>  <Rbt.Executable>
rbdock ($Id: //depot/dev/client3/rdock/2013.1/src/exe/rbdock.cxx#4 $)

>  <Rbt.Library>
libRbt.so (2013.1, Build901 2013/11/27)

>  <Rbt.Parameter_File>
/export/apps/rDock/src/rDock_2013.1_src/data/scripts/dock_solv.prm

>  <Rbt.Receptor>
prm/blind_docking_60.prm

>  <SCORE>
-13.1186

>  <SCORE.INTER>
-13.1186

>  <SCORE.INTER.CONST>
1

>  <SCORE.INTER.POLAR>
0

>  <SCORE.INTER.ROT>
0

>  <SCORE.INTER.SOLV>
1.64134

>  <SCORE.INTER.VDW>
-12.8928

>  <SCORE.INTER.norm>
-1.31186

>  <SCORE.INTRA>
0

>  <SCORE.INTRA.DIHEDRAL>
0

>  <SCORE.INTRA.DIHEDRAL.0>
0

>  <SCORE.INTRA.POLAR>
0

>  <SCORE.INTRA.POLAR.0>
0

>  <SCORE.INTRA.REPUL>
0

>  <SCORE.INTRA.REPUL.0>
0

>  <SCORE.INTRA.SOLV>
0

>  <SCORE.INTRA.SOLV.lig_0>
-4.1818

>  <SCORE.INTRA.VDW>
0

>  <SCORE.INTRA.VDW.0>
0

>  <SCORE.INTRA.norm>
0

>  <SCORE.RESTR>
0

>  <SCORE.RESTR.CAVITY>
0

>  <SCORE.RESTR.norm>
0

>  <SCORE.SYSTEM>
0

>  <SCORE.SYSTEM.CONST>
0

>  <SCORE.SYSTEM.DIHEDRAL>
0

>  <SCORE.SYSTEM.SOLV>
0

>  <SCORE.SYSTEM.norm>
0

>  <SCORE.heavy>
10

>  <SCORE.norm>
-1.31186

>  <RMSD>
23.427

$$$$
