@<TRIPOS>MOLECULE
4NYD_rdock.pdb
 1640 1833 0 0 0
SMALL
GASTEIGER

@<TRIPOS>ATOM
      1  C5'       36.5210   -0.5610   27.4850 C.3     9  G9          0.2141
      2  O5'       36.2660    0.7970   27.8340 O.3     9  G9         -0.2176
      3  C4'       35.6130   -1.5350   28.1940 C.3     9  G9          0.1802
      4  O4'       35.5780   -1.2280   29.6130 O.3     9  G9         -0.3306
      5  C3'       34.1480   -1.5090   27.7930 C.3     9  G9          0.1861
      6  O3'       33.9370   -2.2920   26.6330 O.3     9  G9         -0.3112
      7  C2'       33.5070   -2.1840   28.9900 C.3     9  G9          0.2309
      8  O2'       33.7550   -3.5750   28.9550 O.3     9  G9         -0.2156
      9  C1'       34.3000   -1.5570   30.1350 C.3     9  G9          0.2408
     10  N1        30.7670    0.3550   33.2140 N.ar    9  G9         -0.1709
     11  C2        31.0220   -0.9540   32.8750 C.ar    9  G9          0.2606
     12  N2        30.2380   -1.8830   33.4510 N.pl3   9  G9         -0.0859
     13  N3        31.9700   -1.3260   32.0350 N.ar    9  G9         -0.1918
     14  C4        32.6500   -0.2750   31.5490 C.ar    9  G9          0.1723
     15  C5        32.4740    1.0670   31.8160 C.ar    9  G9          0.1748
     16  C6        31.4560    1.4550   32.7230 C.ar    9  G9          0.3023
     17  O6        31.1410    2.5960   33.0930 O.2     9  G9         -0.2633
     18  N7        33.3790    1.8360   31.0980 N.ar    9  G9         -0.2173
     19  C8        34.0800    0.9610   30.4300 C.ar    9  G9          0.1817
     20  N9        33.6980   -0.3390   30.6730 N.ar    9  G9         -0.2693
     21  P         32.7690   -1.9010   25.6090 P.3    10  C10         0.2141
     22  C5'       31.2740   -3.8010   26.6570 C.3    10  C10         0.1812
     23  O5'       31.4530   -2.4190   26.3470 O.3    10  C10        -0.3114
     24  C4'       30.1630   -3.9880   27.6790 C.3    10  C10         0.1773
     25  O4'       30.5240   -3.2990   28.9090 O.3    10  C10        -0.3307
     26  C3'       28.7940   -3.4080   27.3520 C.3    10  C10         0.1860
     27  O3'       28.0360   -4.2360   26.4790 O.3    10  C10        -0.3112
     28  C2'       28.1600   -3.3230   28.7340 C.3    10  C10         0.2309
     29  O2'       27.7370   -4.5750   29.2190 O.3    10  C10        -0.2156
     30  C1'       29.3480   -2.8630   29.5770 C.3    10  C10         0.2420
     31  N1        29.3920   -1.3990   29.7280 N.ar   10  C10        -0.2535
     32  C2        28.5230   -0.8020   30.6420 C.ar   10  C10         0.3532
     33  O2        27.7710   -1.5230   31.3110 O.2    10  C10        -0.2443
     34  N3        28.5210    0.5430   30.7730 N.ar   10  C10        -0.1739
     35  C4        29.3440    1.2860   30.0360 C.ar   10  C10         0.1759
     36  N4        29.2960    2.6020   30.2000 N.pl3  10  C10        -0.1070
     37  C5        30.2490    0.7080   29.1030 C.ar   10  C10         0.0566
     38  C6        30.2430   -0.6280   28.9850 C.ar   10  C10         0.0850
     39  OP1       32.9530   -2.7370   24.4060 O.2    10  C10        -0.5172
     40  OP2       32.7350   -0.4190   25.4740 O.co2  10  C10        -0.4373
     41  P         27.0460   -3.5570   25.4050 P.3    11  G11         0.2141
     42  C5'       25.0020   -3.9820   26.9800 C.3    11  G11         0.1812
     43  O5'       25.8290   -3.0520   26.2990 O.3    11  G11        -0.3114
     44  C4'       24.0690   -3.2680   27.9330 C.3    11  G11         0.1773
     45  O4'       24.8450   -2.5630   28.9350 O.3    11  G11        -0.3307
     46  C3'       23.1630   -2.1950   27.3500 C.3    11  G11         0.1860
     47  O3'       21.9870   -2.7700   26.8060 O.3    11  G11        -0.3112
     48  C2'       22.8100   -1.3770   28.5830 C.3    11  G11         0.2309
     49  O2'       21.7660   -1.9470   29.3280 O.3    11  G11        -0.2156
     50  C1'       24.1140   -1.4360   29.3820 C.3    11  G11         0.2408
     51  N1        24.6800    3.4530   30.4420 N.ar   11  G11        -0.1709
     52  C2        23.7490    2.5670   30.9050 C.ar   11  G11         0.2606
     53  N2        22.8490    3.0600   31.7700 N.pl3  11  G11        -0.0859
     54  N3        23.7060    1.2970   30.5540 N.ar   11  G11        -0.1918
     55  C4        24.6950    0.9840   29.6990 C.ar   11  G11         0.1723
     56  C5        25.6740    1.7930   29.1850 C.ar   11  G11         0.1748
     57  C6        25.7010    3.1460   29.5620 C.ar   11  G11         0.3023
     58  O6        26.4840    4.0180   29.2160 O.2    11  G11        -0.2633
     59  N7        26.5060    1.0810   28.3350 N.ar   11  G11        -0.2173
     60  C8        26.0210   -0.1250   28.3520 C.ar   11  G11         0.1817
     61  N9        24.9190   -0.2460   29.1560 N.ar   11  G11        -0.2693
     62  OP1       26.5340   -4.6070   24.4970 O.2    11  G11        -0.5172
     63  OP2       27.7430   -2.3780   24.8260 O.co2  11  G11        -0.4373
     64  P         21.1340   -1.9660   25.7020 P.3    12  A12         0.2141
     65  C5'       19.3220   -1.2630   27.4670 C.3    12  A12         0.1812
     66  O5'       20.3300   -0.8670   26.5380 O.3    12  A12        -0.3114
     67  C4'       18.9010   -0.0980   28.3280 C.3    12  A12         0.1773
     68  O4'       20.0600    0.4190   29.0330 O.3    12  A12        -0.3307
     69  C3'       18.3520    1.1080   27.5920 C.3    12  A12         0.1860
     70  O3'       16.9770    0.9220   27.2990 O.3    12  A12        -0.3112
     71  C2'       18.5880    2.2270   28.6020 C.3    12  A12         0.2309
     72  O2'       17.6450    2.2720   29.6550 O.3    12  A12        -0.2156
     73  C1'       19.9450    1.8250   29.1770 C.3    12  A12         0.2408
     74  N1        22.7860    6.0940   28.6750 N.ar   12  A12        -0.2040
     75  C2        21.6760    5.8340   29.3760 C.ar   12  A12         0.2016
     76  N3        20.9690    4.7050   29.4480 N.ar   12  A12        -0.2048
     77  C4        21.5210    3.7470   28.6760 C.ar   12  A12         0.1692
     78  C5        22.6550    3.8650   27.8970 C.ar   12  A12         0.1518
     79  C6        23.3110    5.1080   27.9100 C.ar   12  A12         0.1919
     80  N6        24.4160    5.3600   27.2130 N.pl3  12  A12        -0.1054
     81  N7        22.9220    2.6760   27.2350 N.ar   12  A12        -0.2193
     82  C8        21.9650    1.8760   27.6260 C.ar   12  A12         0.1816
     83  N9        21.0900    2.4520   28.5110 N.ar   12  A12        -0.2693
     84  OP1       20.1580   -2.9470   25.1520 O.3    12  A12        -0.4373
     85  OP2       22.0780   -1.2770   24.7790 O.co2  12  A12        -0.5172
     86  P         16.3150    1.6740   26.0450 P.3    13  C13         0.2141
     87  C5'       15.2830    3.4800   27.6030 C.3    13  C13         0.1812
     88  O5'       16.1660    3.1730   26.5420 O.3    13  C13        -0.3114
     89  C4'       15.4750    4.9050   28.0350 C.3    13  C13         0.1773
     90  O4'       16.8300    5.0750   28.5370 O.3    13  C13        -0.3307
     91  C3'       15.3500    5.9460   26.9350 C.3    13  C13         0.1860
     92  O3'       13.9700    6.2550   26.7020 O.3    13  C13        -0.3112
     93  C2'       16.1340    7.1050   27.5440 C.3    13  C13         0.2309
     94  O2'       15.4030    7.7510   28.5660 O.3    13  C13        -0.2156
     95  C1'       17.3070    6.3660   28.1970 C.3    13  C13         0.2420
     96  N1        18.4950    6.2140   27.3320 N.ar   13  C13        -0.2535
     97  C2        19.3600    7.2980   27.1850 C.ar   13  C13         0.3532
     98  O2        19.0940    8.3460   27.7710 O.2    13  C13        -0.2443
     99  N3        20.4620    7.1770   26.4060 N.ar   13  C13        -0.1739
    100  C4        20.7110    6.0240   25.7820 C.ar   13  C13         0.1759
    101  N4        21.8120    5.9450   25.0250 N.pl3  13  C13        -0.1070
    102  C5        19.8410    4.8980   25.9060 C.ar   13  C13         0.0566
    103  C6        18.7540    5.0360   26.6850 C.ar   13  C13         0.0850
    104  OP1       14.9570    1.0980   25.9420 O.3    13  C13        -0.4373
    105  OP2       17.2040    1.6500   24.8590 O.co2  13  C13        -0.5172
    106  P         13.4670    6.7050   25.2310 P.3    14  U14         0.2141
    107  C5'       13.6490    9.2180   25.9020 C.3    14  U14         0.1812
    108  O5'       14.0730    8.1630   25.0530 O.3    14  U14        -0.3114
    109  C4'       14.5640   10.4030   25.7540 C.3    14  U14         0.1773
    110  O4'       15.8980   10.0510   26.2180 O.3    14  U14        -0.3307
    111  C3'       14.8020   10.8640   24.3290 C.3    14  U14         0.1860
    112  O3'       13.7150   11.6440   23.8410 O.3    14  U14        -0.3112
    113  C2'       16.0970   11.6510   24.4830 C.3    14  U14         0.2309
    114  O2'       15.8830   12.9250   25.0590 O.3    14  U14        -0.2156
    115  C1'       16.8680   10.7590   25.4630 C.3    14  U14         0.2420
    116  N1        17.7200    9.7760   24.7800 N.ar   14  U14        -0.2534
    117  C2        18.9620   10.1950   24.3320 C.ar   14  U14         0.3546
    118  O2        19.3790   11.3270   24.4980 O.2    14  U14        -0.2443
    119  N3        19.6960    9.2370   23.6780 N.ar   14  U14        -0.1530
    120  C4        19.3230    7.9310   23.4320 C.ar   14  U14         0.2846
    121  O4        20.0900    7.1920   22.8160 O.2    14  U14        -0.2650
    122  C5        18.0300    7.5700   23.9340 C.ar   14  U14         0.0814
    123  C6        17.2930    8.4810   24.5780 C.ar   14  U14         0.0870
    124  OP1       12.0000    6.8630   25.3610 O.3    14  U14        -0.4373
    125  OP2       14.0150    5.8320   24.1550 O.co2  14  U14        -0.5172
    126  P         13.1890   11.4180   22.3360 P.3    15  C15         0.2141
    127  C5'       14.4300   13.6610   21.8890 C.3    15  C15         0.1812
    128  O5'       14.1590   12.3330   21.4790 O.3    15  C15        -0.3114
    129  C4'       15.7780   14.0830   21.3780 C.3    15  C15         0.1773
    130  O4'       16.8220   13.3150   22.0360 O.3    15  C15        -0.3307
    131  C3'       16.0310   13.7950   19.9110 C.3    15  C15         0.1860
    132  O3'       15.4090   14.7530   19.0740 O.3    15  C15        -0.3112
    133  C2'       17.5470   13.8790   19.8520 C.3    15  C15         0.2309
    134  O2'       18.0030   15.2170   19.8470 O.3    15  C15        -0.2156
    135  C1'       17.9280   13.1750   21.1570 C.3    15  C15         0.2420
    136  N1        18.1550   11.7480   20.9140 N.ar   15  C15        -0.2535
    137  C2        19.4270   11.3370   20.5390 C.ar   15  C15         0.3532
    138  O2        20.3300   12.1780   20.4990 O.2    15  C15        -0.2443
    139  N3        19.6460   10.0410   20.2300 N.ar   15  C15        -0.1739
    140  C4        18.6430    9.1670   20.2950 C.ar   15  C15         0.1759
    141  N4        18.8950    7.9030   19.9530 N.pl3  15  C15        -0.1070
    142  C5        17.3350    9.5520   20.7090 C.ar   15  C15         0.0566
    143  C6        17.1390   10.8420   21.0130 C.ar   15  C15         0.0850
    144  OP1       11.8290   12.0070   22.2410 O.3    15  C15        -0.4373
    145  OP2       13.4050   10.0040   21.9300 O.co2  15  C15        -0.5172
    146  P         15.4590   14.5630   17.4810 P.3    16  G16         0.2141
    147  C5'       17.5300   14.3550   15.9050 C.3    16  G16         0.1812
    148  O5'       16.9990   14.8020   17.1360 O.3    16  G16        -0.3114
    149  C4'       19.0190   14.1630   16.0020 C.3    16  G16         0.1773
    150  O4'       19.3570   13.3330   17.1450 O.3    16  G16        -0.3307
    151  C3'       19.5480   13.3910   14.8130 C.3    16  G16         0.1860
    152  O3'       19.7940   14.2740   13.7460 O.3    16  G16        -0.3112
    153  C2'       20.7970   12.7370   15.3690 C.3    16  G16         0.2309
    154  O2'       21.8650   13.6490   15.4550 O.3    16  G16        -0.2156
    155  C1'       20.3140   12.3560   16.7650 C.3    16  G16         0.2408
    156  N1        20.5750    7.3850   15.7310 N.ar   16  G16        -0.1709
    157  C2        21.5110    8.3650   15.5050 C.ar   16  G16         0.2606
    158  N2        22.6630    7.9710   14.9330 N.pl3  16  G16        -0.0859
    159  N3        21.3330    9.6400   15.8120 N.ar   16  G16        -0.1918
    160  C4        20.1260    9.8570   16.3620 C.ar   16  G16         0.1723
    161  C5        19.1230    8.9460   16.6180 C.ar   16  G16         0.1748
    162  C6        19.3260    7.5930   16.3000 C.ar   16  G16         0.3023
    163  O6        18.5580    6.6440   16.4700 O.2    16  G16        -0.2633
    164  N7        18.0230    9.5720   17.1790 N.ar   16  G16        -0.2173
    165  C8        18.3720   10.8260   17.2610 C.ar   16  G16         0.1817
    166  N9        19.6370   11.0660   16.7890 N.ar   16  G16        -0.2693
    167  OP1       14.6720   15.7060   16.9370 O.2    16  G16        -0.5172
    168  OP2       15.0950   13.1640   17.0960 O.co2  16  G16        -0.4373
    169  P         19.0930   14.0040   12.3320 P.3    17  G17         0.2141
    170  C5'       21.5340   13.3790   11.7100 C.3    17  G17         0.1812
    171  O5'       20.1580   13.0970   11.5800 O.3    17  G17        -0.3114
    172  C4'       22.3400   12.1940   11.2810 C.3    17  G17         0.1773
    173  O4'       22.3500   11.1590   12.3020 O.3    17  G17        -0.3307
    174  C3'       21.7730   11.4770   10.0860 C.3    17  G17         0.1860
    175  O3'       22.0310   12.2190    8.9070 O.3    17  G17        -0.3112
    176  C2'       22.5150   10.1490   10.1740 C.3    17  G17         0.2309
    177  O2'       23.8710   10.2930    9.8020 O.3    17  G17        -0.2156
    178  C1'       22.4600    9.8850   11.6790 C.3    17  G17         0.2408
    179  N1        20.3560    5.2580   11.7720 N.ar   17  G17        -0.1709
    180  C2        21.5500    5.6520   11.2400 C.ar   17  G17         0.2606
    181  N2        22.2570    4.6930   10.6510 N.pl3  17  G17        -0.0859
    182  N3        22.0110    6.8910   11.2810 N.ar   17  G17        -0.1918
    183  C4        21.1510    7.7210   11.9020 C.ar   17  G17         0.1723
    184  C5        19.9270    7.4220   12.4650 C.ar   17  G17         0.1748
    185  C6        19.4590    6.0890   12.4180 C.ar   17  G17         0.3023
    186  O6        18.4100    5.6250   12.8620 O.2    17  G17        -0.2633
    187  N7        19.3420    8.5580   13.0020 N.ar   17  G17        -0.2173
    188  C8        20.2040    9.5100   12.7620 C.ar   17  G17         0.1817
    189  N9        21.3210    9.0730   12.0960 N.ar   17  G17        -0.2693
    190  OP1       19.0000   15.3260   11.6470 O.2    17  G17        -0.5172
    191  OP2       17.8620   13.1910   12.5430 O.co2  17  G17        -0.4373
    192  P         21.2010   11.8910    7.5740 P.3    18  G18         0.2141
    193  C5'       21.1750    9.6370    6.2880 C.3    18  G18         0.1812
    194  O5'       21.8740   10.5360    7.1090 O.3    18  G18        -0.3114
    195  C4'       21.7870    8.2730    6.3860 C.3    18  G18         0.1773
    196  O4'       21.6950    7.8020    7.7500 O.3    18  G18        -0.3307
    197  C3'       21.0250    7.2590    5.5670 C.3    18  G18         0.1860
    198  O3'       21.5480    7.2730    4.2530 O.3    18  G18        -0.3112
    199  C2'       21.3100    5.9610    6.2990 C.3    18  G18         0.2309
    200  O2'       22.5600    5.4120    5.9330 O.3    18  G18        -0.2156
    201  C1'       21.3400    6.4370    7.7530 C.3    18  G18         0.2408
    202  N1        17.9260    3.2080    9.6260 N.ar   18  G18        -0.1709
    203  C2        19.0740    2.9570    8.9110 C.ar   18  G18         0.2606
    204  N2        19.3780    1.6720    8.6770 N.pl3  18  G18        -0.0859
    205  N3        19.8740    3.8970    8.4520 N.ar   18  G18        -0.1918
    206  C4        19.4370    5.1330    8.7620 C.ar   18  G18         0.1723
    207  C5        18.3090    5.4970    9.4590 C.ar   18  G18         0.1748
    208  C6        17.4550    4.4790    9.9570 C.ar   18  G18         0.3023
    209  O6        16.4120    4.6050   10.6090 O.2    18  G18        -0.2633
    210  N7        18.2110    6.8780    9.5480 N.ar   18  G18        -0.2173
    211  C8        19.2700    7.3160    8.9220 C.ar   18  G18         0.1817
    212  N9        20.0630    6.3070    8.4400 N.ar   18  G18        -0.2693
    213  OP1       21.5130   12.9310    6.5580 O.2    18  G18        -0.5172
    214  OP2       19.7850   11.6110    7.9270 O.co2  18  G18        -0.4373
    215  P         20.5720    7.5720    3.0170 P.3    19  G19         0.2141
    216  C5'       21.4170    5.2710    2.0950 C.3    19  G19         0.1812
    217  O5'       20.3300    6.1380    2.3680 O.3    19  G19        -0.3114
    218  C4'       20.9710    3.8360    2.1840 C.3    19  G19         0.1773
    219  O4'       20.7190    3.4580    3.5640 O.3    19  G19        -0.3307
    220  C3'       19.6760    3.5180    1.4660 C.3    19  G19         0.1860
    221  O3'       19.9500    3.2960    0.0890 O.3    19  G19        -0.3112
    222  C2'       19.2520    2.2300    2.1630 C.3    19  G19         0.2309
    223  O2'       19.9840    1.1230    1.6770 O.3    19  G19        -0.2156
    224  C1'       19.6760    2.5040    3.6070 C.3    19  G19         0.2408
    225  N1        16.1840    1.4470    7.1110 N.ar   19  G19        -0.1709
    226  C2        17.0220    0.6010    6.4400 C.ar   19  G19         0.2606
    227  N2        16.9290   -0.6970    6.7610 N.pl3  19  G19        -0.0859
    228  N3        17.8860    0.9930    5.5230 N.ar   19  G19        -0.1918
    229  C4        17.8370    2.3230    5.3240 C.ar   19  G19         0.1723
    230  C5        17.0330    3.2540    5.9410 C.ar   19  G19         0.1748
    231  C6        16.1230    2.8210    6.9260 C.ar   19  G19         0.3023
    232  O6        15.3380    3.4950    7.5940 O.2    19  G19        -0.2633
    233  N7        17.2880    4.5250    5.4550 N.ar   19  G19        -0.2173
    234  C8        18.2320    4.3460    4.5710 C.ar   19  G19         0.1817
    235  N9        18.6190    3.0360    4.4550 N.ar   19  G19        -0.2693
    236  OP1       21.3640    8.4270    2.0900 O.2    19  G19        -0.5172
    237  OP2       19.2500    8.0450    3.5270 O.co2  19  G19        -0.4373
    238  P         18.8940    3.7620   -1.0350 P.3    20  U20         0.2141
    239  C5'       17.5060    1.5120   -1.0640 C.3    20  U20         0.1812
    240  O5'       17.5840    2.9020   -0.7260 O.3    20  U20        -0.3114
    241  C4'       16.2420    0.9110   -0.4980 C.3    20  U20         0.1773
    242  O4'       16.2050    1.2260    0.9010 O.3    20  U20        -0.3307
    243  C3'       14.9270    1.4680   -1.0320 C.3    20  U20         0.1860
    244  O3'       14.4640    0.6260   -2.0810 O.3    20  U20        -0.3112
    245  C2'       13.9510    1.2960    0.1320 C.3    20  U20         0.2309
    246  O2'       13.1720    0.1270    0.0590 O.3    20  U20        -0.2156
    247  C1'       14.8750    1.1720    1.3390 C.3    20  U20         0.2420
    248  N1        14.6570    2.1620    2.3930 N.ar   20  U20        -0.2534
    249  C2        14.1420    1.6740    3.5600 C.ar   20  U20         0.3546
    250  O2        13.9240    0.4880    3.7220 O.2    20  U20        -0.2443
    251  N3        13.8990    2.6100    4.5310 N.ar   20  U20        -0.1530
    252  C4        14.1300    3.9600    4.4510 C.ar   20  U20         0.2846
    253  O4        13.8660    4.6730    5.4200 O.2    20  U20        -0.2650
    254  C5        14.6880    4.3980    3.2000 C.ar   20  U20         0.0814
    255  C6        14.9270    3.5010    2.2340 C.ar   20  U20         0.0870
    256  OP1       19.4580    3.2870   -2.3210 O.2    20  U20        -0.5172
    257  OP2       18.5710    5.2050   -0.8670 O.co2  20  U20        -0.4373
    258  P         14.2400    1.2090   -3.5610 P.3    21  G21         0.2141
    259  C5'       15.7900    0.2500   -5.4330 C.3    21  G21         0.1812
    260  O5'       15.6650    1.0240   -4.2550 O.3    21  G21        -0.3114
    261  C4'       17.0130   -0.6270   -5.3740 C.3    21  G21         0.1773
    262  O4'       17.1500   -1.2540   -4.0680 O.3    21  G21        -0.3307
    263  C3'       16.9010   -1.7850   -6.3400 C.3    21  G21         0.1860
    264  O3'       17.2550   -1.3630   -7.6390 O.3    21  G21        -0.3112
    265  C2'       17.7910   -2.8550   -5.7140 C.3    21  G21         0.2309
    266  O2'       19.1640   -2.7320   -6.0090 O.3    21  G21        -0.2156
    267  C1'       17.5550   -2.6080   -4.2220 C.3    21  G21         0.2408
    268  N1        15.9480   -7.3370   -3.3920 N.ar   21  G21        -0.1709
    269  C2        17.0840   -6.9060   -4.0170 C.ar   21  G21         0.2606
    270  N2        17.8980   -7.8570   -4.4680 N.pl3  21  G21        -0.0859
    271  N3        17.3970   -5.6370   -4.1870 N.ar   21  G21        -0.1918
    272  C4        16.4660   -4.8190   -3.6650 C.ar   21  G21         0.1723
    273  C5        15.2940   -5.1500   -3.0220 C.ar   21  G21         0.1748
    274  C6        14.9730   -6.5130   -2.8500 C.ar   21  G21         0.3023
    275  O6        13.9850   -7.0090   -2.3060 O.2    21  G21        -0.2633
    276  N7        14.6060   -4.0100   -2.6350 N.ar   21  G21        -0.2173
    277  C8        15.3620   -3.0270   -3.0390 C.ar   21  G21         0.1817
    278  N9        16.5050   -3.4500   -3.6670 N.ar   21  G21        -0.2693
    279  OP1       13.9570    2.6620   -3.5010 O.3    21  G21        -0.4373
    280  OP2       13.2550    0.2980   -4.2040 O.co2  21  G21        -0.5172
    281  P         16.2220   -1.5950   -8.8350 P.3    22  C22         0.2141
    282  C5'       17.7560   -3.6730   -9.3490 C.3    22  C22         0.1812
    283  O5'       16.4340   -3.1320   -9.2000 O.3    22  C22        -0.3114
    284  C4'       17.7270   -5.1870   -9.2940 C.3    22  C22         0.1773
    285  O4'       17.5420   -5.6620   -7.9330 O.3    22  C22        -0.3307
    286  C3'       16.5820   -5.8220  -10.0490 C.3    22  C22         0.1860
    287  O3'       16.8690   -5.8630  -11.4290 O.3    22  C22        -0.3112
    288  C2'       16.5060   -7.2010   -9.4120 C.3    22  C22         0.2309
    289  O2'       17.5110   -8.0660   -9.8970 O.3    22  C22        -0.2156
    290  C1'       16.7750   -6.8580   -7.9470 C.3    22  C22         0.2420
    291  N1        15.5460   -6.6240   -7.1710 N.ar   22  C22        -0.2535
    292  C2        14.8610   -7.7240   -6.6380 C.ar   22  C22         0.3532
    293  O2        15.2980   -8.8560   -6.8540 O.2    22  C22        -0.2443
    294  N3        13.7390   -7.5170   -5.9050 N.ar   22  C22        -0.1739
    295  C4        13.2940   -6.2680   -5.7060 C.ar   22  C22         0.1759
    296  N4        12.1890   -6.1010   -4.9750 N.pl3  22  C22        -0.1070
    297  C5        13.9680   -5.1330   -6.2480 C.ar   22  C22         0.0566
    298  C6        15.0790   -5.3540   -6.9650 C.ar   22  C22         0.0850
    299  OP1       16.6590   -0.7620   -9.9770 O.2    22  C22        -0.5172
    300  OP2       14.8630   -1.4210   -8.2750 O.co2  22  C22        -0.4373
    301  P         15.6980   -5.5720  -12.4800 P.3    23  C23         0.2141
    302  C5'       15.2740   -8.1060  -12.9510 C.3    23  C23         0.1812
    303  O5'       14.7810   -6.8800  -12.4210 O.3    23  C23        -0.3114
    304  C4'       14.4910   -9.2910  -12.4340 C.3    23  C23         0.1773
    305  O4'       14.4550   -9.2830  -10.9850 O.3    23  C23        -0.3307
    306  C3'       13.0280   -9.3980  -12.7890 C.3    23  C23         0.1860
    307  O3'       12.8930   -9.8680  -14.1120 O.3    23  C23        -0.3112
    308  C2'       12.5830  -10.4620  -11.7990 C.3    23  C23         0.2309
    309  O2'       13.0600  -11.7430  -12.1450 O.3    23  C23        -0.2156
    310  C1'       13.3260  -10.0170  -10.5430 C.3    23  C23         0.2420
    311  N1        12.4910   -9.1400   -9.7210 N.ar   23  C23        -0.2535
    312  C2        11.4610   -9.7130   -8.9730 C.ar   23  C23         0.3532
    313  O2        11.3110  -10.9470   -9.0070 O.2    23  C23        -0.2443
    314  N3        10.6580   -8.9130   -8.2370 N.ar   23  C23        -0.1739
    315  C4        10.8590   -7.5920   -8.2300 C.ar   23  C23         0.1759
    316  N4        10.0380   -6.8420   -7.5010 N.pl3  23  C23        -0.1070
    317  C5        11.9120   -6.9840   -8.9740 C.ar   23  C23         0.0566
    318  C6        12.6980   -7.7880   -9.6980 C.ar   23  C23         0.0850
    319  OP1       16.3910   -5.5360  -13.7950 O.2    23  C23        -0.5172
    320  OP2       14.9320   -4.3880  -12.0080 O.co2  23  C23        -0.4373
    321  P         11.7400   -9.2710  -15.0510 P.3    24  C24         0.2141
    322  C5'       10.2700  -11.3660  -14.5910 C.3    24  C24         0.1812
    323  O5'       10.4150   -9.9590  -14.5140 O.3    24  C24        -0.3114
    324  C4'        9.0380  -11.7950  -13.8500 C.3    24  C24         0.1773
    325  O4'        9.1970  -11.4650  -12.4520 O.3    24  C24        -0.3307
    326  C3'        7.7760  -11.0850  -14.2820 C.3    24  C24         0.1860
    327  O3'        7.2640  -11.6560  -15.4930 O.3    24  C24        -0.3112
    328  C2'        6.9120  -11.1100  -13.0240 C.3    24  C24         0.2309
    329  O2'        6.1100  -12.2520  -12.8350 O.3    24  C24        -0.2156
    330  C1'        7.9690  -11.0270  -11.9160 C.3    24  C24         0.2420
    331  N1         8.1710   -9.6780  -11.3810 N.ar   24  C24        -0.2535
    332  C2         7.4060   -9.2710  -10.3030 C.ar   24  C24         0.3532
    333  O2         6.6290  -10.0850   -9.7930 O.2    24  C24        -0.2443
    334  N3         7.5270   -8.0060   -9.8400 N.ar   24  C24        -0.1739
    335  C4         8.3870   -7.1670  -10.4200 C.ar   24  C24         0.1759
    336  N4         8.4500   -5.9160   -9.9660 N.pl3  24  C24        -0.1070
    337  C5         9.2140   -7.5720  -11.4980 C.ar   24  C24         0.0566
    338  C6         9.0760   -8.8270  -11.9440 C.ar   24  C24         0.0850
    339  OP1       12.0230   -9.8120  -16.4040 O.2    24  C24        -0.5172
    340  OP2       11.6360   -7.8030  -14.8460 O.co2  24  C24        -0.4373
    341  P          6.8100  -13.2070  -15.5500 P.3    25  U25         0.2141
    342  C5'        9.1340  -14.3780  -15.4650 C.3    25  U25         0.1812
    343  O5'        8.0160  -13.9870  -16.2380 O.3    25  U25        -0.3114
    344  C4'        9.1580  -15.8720  -15.2650 C.3    25  U25         0.1773
    345  O4'       10.0560  -16.1110  -14.1500 O.3    25  U25        -0.3307
    346  C3'        7.8530  -16.5540  -14.8640 C.3    25  U25         0.1871
    347  O3'        7.1310  -16.9630  -16.0310 O.3    25  U25        -0.2999
    348  C2'        8.3440  -17.7450  -14.0470 C.3    25  U25         0.2310
    349  O2'        8.7980  -18.8140  -14.8550 O.3    25  U25        -0.2156
    350  C1'        9.5470  -17.1400  -13.3240 C.3    25  U25         0.2420
    351  N1         9.2520  -16.5660  -12.0040 N.ar   25  U25        -0.2534
    352  C2         9.7650  -17.2180  -10.9050 C.ar   25  U25         0.3546
    353  O2        10.4260  -18.2390  -10.9930 O.2    25  U25        -0.2443
    354  N3         9.4820  -16.6340   -9.7000 N.ar   25  U25        -0.1530
    355  C4         8.7520  -15.4930   -9.4870 C.ar   25  U25         0.2846
    356  O4         8.5850  -15.0930   -8.3340 O.2    25  U25        -0.2650
    357  C5         8.2460  -14.8780  -10.6740 C.ar   25  U25         0.0814
    358  C6         8.5060  -15.4230  -11.8630 C.ar   25  U25         0.0870
    359  OP1        5.6610  -13.3040  -16.4890 O.2    25  U25        -0.5172
    360  OP2        6.6950  -13.7740  -14.1860 O.co2  25  U25        -0.4373
    361  P          6.3890  -18.4050  -16.0720 P.3    26  U26         0.3006
    362  O5'        5.1940  -18.2060  -17.1110 O.2    26  U26        -0.2722
    363  OP1        5.7890  -18.6730  -14.7330 O.3    26  U26        -0.1534
    364  OP2        7.3450  -19.3920  -16.6670 O.co2  26  U26        -0.7578
    365  P          4.9570  -13.1240  -22.3580 P.3    30  C30         0.1280
    366  C5'        5.6020  -11.3520  -24.1850 C.3    30  C30         0.1795
    367  O5'        4.9670  -11.6390  -22.9420 O.3    30  C30        -0.3259
    368  C4'        5.3090   -9.9330  -24.6100 C.3    30  C30         0.1772
    369  O4'        3.8760   -9.7740  -24.7630 O.3    30  C30        -0.3307
    370  C3'        5.6990   -8.8370  -23.6260 C.3    30  C30         0.1860
    371  O3'        7.0790   -8.4830  -23.7750 O.3    30  C30        -0.3112
    372  C2'        4.7800   -7.6900  -24.0420 C.3    30  C30         0.2309
    373  O2'        5.2650   -6.9680  -25.1540 O.3    30  C30        -0.2156
    374  C1'        3.5100   -8.4380  -24.4540 C.3    30  C30         0.2420
    375  N1         2.4560   -8.4520  -23.4230 N.ar   30  C30        -0.2535
    376  C2         1.7330   -7.2760  -23.1920 C.ar   30  C30         0.3532
    377  O2         2.0120   -6.2660  -23.8550 O.2    30  C30        -0.2443
    378  N3         0.7520   -7.2720  -22.2540 N.ar   30  C30        -0.1739
    379  C4         0.4840   -8.3840  -21.5620 C.ar   30  C30         0.1759
    380  N4        -0.4910   -8.3360  -20.6520 N.pl3  30  C30        -0.1070
    381  C5         1.2070   -9.5960  -21.7740 C.ar   30  C30         0.0566
    382  C6         2.1770   -9.5850  -22.7050 C.ar   30  C30         0.0850
    383  OP1        5.0920  -13.0810  -20.8740 O.3    30  C30        -0.1955
    384  OP2        5.9000  -13.9500  -23.1570 O.co2  30  C30        -0.7863
    385  P          7.8690   -7.7590  -22.5630 P.3    31  G31         0.2141
    386  C5'        7.5190   -5.3360  -21.5860 C.3    31  G31         0.1812
    387  O5'        7.5220   -6.2070  -22.7210 O.3    31  G31        -0.3114
    388  C4'        6.4090   -4.3230  -21.7140 C.3    31  G31         0.1773
    389  O4'        5.2030   -5.0290  -22.1060 O.3    31  G31        -0.3307
    390  C3'        6.0090   -3.5740  -20.4440 C.3    31  G31         0.1860
    391  O3'        6.7880   -2.4010  -20.2020 O.3    31  G31        -0.3112
    392  C2'        4.5800   -3.1660  -20.7680 C.3    31  G31         0.2309
    393  O2'        4.5170   -2.0300  -21.6050 O.3    31  G31        -0.2156
    394  C1'        4.0790   -4.3960  -21.5250 C.3    31  G31         0.2408
    395  N1         0.7790   -4.9900  -17.7080 N.ar   31  G31        -0.1709
    396  C2         1.2330   -3.8350  -18.2930 C.ar   31  G31         0.2606
    397  N2         0.7280   -2.6890  -17.8070 N.pl3  31  G31        -0.0859
    398  N3         2.1170   -3.8040  -19.2820 N.ar   31  G31        -0.1918
    399  C4         2.5170   -5.0440  -19.6450 C.ar   31  G31         0.1723
    400  C5         2.1280   -6.2580  -19.1240 C.ar   31  G31         0.1748
    401  C6         1.1780   -6.2760  -18.0640 C.ar   31  G31         0.3023
    402  O6         0.7050   -7.2490  -17.4720 O.2    31  G31        -0.2633
    403  N7         2.7780   -7.3030  -19.7700 N.ar   31  G31        -0.2173
    404  C8         3.5340   -6.7150  -20.6590 C.ar   31  G31         0.1817
    405  N9         3.4130   -5.3480  -20.6460 N.ar   31  G31        -0.2693
    406  OP1        9.3270   -7.9430  -22.8030 O.2    31  G31        -0.5172
    407  OP2        7.2760   -8.2300  -21.2790 O.co2  31  G31        -0.4373
    408  P          7.3790   -2.1090  -18.7260 P.3    32  U32         0.2141
    409  C5'        6.3440   -1.6670  -16.3370 C.3    32  U32         0.1812
    410  O5'        6.1360   -1.8300  -17.7550 O.3    32  U32        -0.3114
    411  C4'        5.0280   -1.4280  -15.6120 C.3    32  U32         0.1773
    412  O4'        4.0290   -2.3440  -16.1420 O.3    32  U32        -0.3307
    413  C3'        5.0200   -1.6690  -14.0920 C.3    32  U32         0.1860
    414  O3'        5.5120   -0.5420  -13.3200 O.3    32  U32        -0.3112
    415  C2'        3.5520   -2.0110  -13.8180 C.3    32  U32         0.2309
    416  O2'        2.7190   -0.8820  -13.6200 O.3    32  U32        -0.2156
    417  C1'        3.1450   -2.7460  -15.1030 C.3    32  U32         0.2420
    418  N1         3.1510   -4.2170  -15.0190 N.ar   32  U32        -0.2534
    419  C2         2.2260   -4.8300  -14.1830 C.ar   32  U32         0.3546
    420  O2         1.4290   -4.2110  -13.5030 O.2    32  U32        -0.2443
    421  N3         2.2710   -6.2010  -14.1760 N.ar   32  U32        -0.1530
    422  C4         3.1280   -7.0110  -14.9000 C.ar   32  U32         0.2846
    423  O4         3.0420   -8.2400  -14.7900 O.2    32  U32        -0.2650
    424  C5         4.0570   -6.3040  -15.7300 C.ar   32  U32         0.0814
    425  C6         4.0380   -4.9660  -15.7580 C.ar   32  U32         0.0870
    426  OP1        8.1520   -0.8490  -18.8310 O.2    32  U32        -0.5172
    427  OP2        8.0620   -3.3550  -18.2850 O.co2  32  U32        -0.4373
    428  P          5.2990   -0.4760  -11.6990 P.3    33  G33         0.2141
    429  C5'        6.3700   -1.7670   -9.6550 C.3    33  G33         0.1812
    430  O5'        6.3230   -1.5270  -11.0730 O.3    33  G33        -0.3114
    431  C4'        5.1090   -2.4780   -9.2150 C.3    33  G33         0.1773
    432  O4'        4.6660   -3.3290  -10.2920 O.3    33  G33        -0.3307
    433  C3'        5.1760   -3.3850   -7.9910 C.3    33  G33         0.1860
    434  O3'        4.9390   -2.6180   -6.8040 O.3    33  G33        -0.3112
    435  C2'        4.0340   -4.3800   -8.2350 C.3    33  G33         0.2309
    436  O2'        2.8130   -3.9280   -7.6860 O.3    33  G33        -0.2156
    437  C1'        3.9120   -4.3980   -9.7680 C.3    33  G33         0.2408
    438  N1         6.6070   -6.3510  -13.5910 N.ar   33  G33        -0.1709
    439  C2         6.5730   -5.0680  -13.1160 C.ar   33  G33         0.2606
    440  N2         7.3470   -4.1880  -13.7570 N.pl3  33  G33        -0.0859
    441  N3         5.8390   -4.6800  -12.0890 N.ar   33  G33        -0.1918
    442  C4         5.1320   -5.7000  -11.5580 C.ar   33  G33         0.1723
    443  C5         5.0980   -7.0180  -11.9530 C.ar   33  G33         0.1748
    444  C6         5.8890   -7.4180  -13.0630 C.ar   33  G33         0.3023
    445  O6         5.9960   -8.5380  -13.5710 O.2    33  G33        -0.2633
    446  N7         4.2460   -7.7550  -11.1410 N.ar   33  G33        -0.2173
    447  C8         3.7890   -6.8850  -10.2830 C.ar   33  G33         0.1817
    448  N9         4.2730   -5.6160  -10.4900 N.ar   33  G33        -0.2693
    449  OP1        3.9220   -0.9340  -11.3720 O.2    33  G33        -0.5172
    450  OP2        5.7420    0.8580  -11.2290 O.co2  33  G33        -0.4373
    451  P          4.7680   -3.3540   -5.3790 P.3    34  A34         0.2141
    452  C5'        2.2080   -3.1800   -4.7820 C.3    34  A34         0.1812
    453  O5'        3.2750   -3.9140   -5.3810 O.3    34  A34        -0.3114
    454  C4'        1.0000   -4.0730   -4.5850 C.3    34  A34         0.1773
    455  O4'        0.4420   -4.4570   -5.8720 O.3    34  A34        -0.3307
    456  C3'        1.2740   -5.3930   -3.8830 C.3    34  A34         0.1860
    457  O3'        1.2860   -5.1980   -2.4640 O.3    34  A34        -0.3112
    458  C2'        0.1010   -6.2600   -4.3490 C.3    34  A34         0.2309
    459  O2'       -1.0690   -6.0230   -3.5950 O.3    34  A34        -0.2156
    460  C1'       -0.1350   -5.7510   -5.7780 C.3    34  A34         0.2408
    461  N1         0.0100  -10.3850   -8.1800 N.ar   34  A34        -0.2040
    462  C2        -0.6440   -9.9740   -7.0820 C.ar   34  A34         0.2016
    463  N3        -0.6490   -8.7660   -6.4930 N.ar   34  A34        -0.2048
    464  C4         0.1390   -7.9040   -7.1660 C.ar   34  A34         0.1692
    465  C5         0.8710   -8.1840   -8.3150 C.ar   34  A34         0.1518
    466  C6         0.7910   -9.4980   -8.8330 C.ar   34  A34         0.1919
    467  N6         1.4440   -9.9050   -9.9230 N.pl3  34  A34        -0.1054
    468  N7         1.5630   -7.0600   -8.7370 N.ar   34  A34        -0.2193
    469  C8         1.2470   -6.1410   -7.8570 C.ar   34  A34         0.1816
    470  N9         0.3900   -6.5740   -6.8770 N.ar   34  A34        -0.2693
    471  OP1        4.8580   -2.3020   -4.3350 O.3    34  A34        -0.4373
    472  OP2        5.6900   -4.5200   -5.3320 O.co2  34  A34        -0.5172
    473  P          2.4000   -5.9370   -1.5540 P.3    35  A35         0.2141
    474  C5'        0.8390   -8.0300   -1.2780 C.3    35  A35         0.1812
    475  O5'        2.0730   -7.4860   -1.7370 O.3    35  A35        -0.3114
    476  C4'        0.5690   -9.3420   -1.9670 C.3    35  A35         0.1773
    477  O4'        0.3410   -9.1010   -3.3840 O.3    35  A35        -0.3307
    478  C3'        1.7370  -10.3140   -1.9560 C.3    35  A35         0.1860
    479  O3'        1.8390  -11.0340   -0.7380 O.3    35  A35        -0.3112
    480  C2'        1.4110  -11.2040   -3.1430 C.3    35  A35         0.2309
    481  O2'        0.3900  -12.1340   -2.8420 O.3    35  A35        -0.2156
    482  C1'        0.9060  -10.1630   -4.1480 C.3    35  A35         0.2408
    483  N1         4.2150  -10.9090   -8.0520 N.ar   35  A35        -0.2040
    484  C2         3.2510  -11.6840   -7.5380 C.ar   35  A35         0.2016
    485  N3         2.4120  -11.4340   -6.5260 N.ar   35  A35        -0.2048
    486  C4         2.6420  -10.2130   -6.0120 C.ar   35  A35         0.1692
    487  C5         3.5970   -9.3040   -6.4360 C.ar   35  A35         0.1518
    488  C6         4.4150   -9.6860   -7.5080 C.ar   35  A35         0.1919
    489  N6         5.3720   -8.9040   -8.0100 N.pl3  35  A35        -0.1054
    490  N7         3.5450   -8.1460   -5.6770 N.ar   35  A35        -0.2193
    491  C8         2.5770   -8.3730   -4.8230 C.ar   35  A35         0.1816
    492  N9         1.9890   -9.6080   -4.9630 N.ar   35  A35        -0.2693
    493  OP1        2.1230   -5.5980   -0.1270 O.3    35  A35        -0.4373
    494  OP2        3.7540   -5.6680   -2.1250 O.co2  35  A35        -0.5172
    495  P          3.2790  -11.1900   -0.0420 P.3    36  G36         0.2141
    496  C5'        3.6630  -13.4240   -1.3500 C.3    36  G36         0.1812
    497  O5'        4.0880  -12.0930   -1.0810 O.3    36  G36        -0.3114
    498  C4'        4.3360  -13.9840   -2.5890 C.3    36  G36         0.1773
    499  O4'        4.0340  -13.1540   -3.7480 O.3    36  G36        -0.3307
    500  C3'        5.8530  -14.1020   -2.5880 C.3    36  G36         0.1860
    501  O3'        6.2970  -15.2730   -1.8970 O.3    36  G36        -0.3112
    502  C2'        6.1480  -14.1640   -4.0870 C.3    36  G36         0.2309
    503  O2'        5.9070  -15.4280   -4.6810 O.3    36  G36        -0.2156
    504  C1'        5.1450  -13.1470   -4.6300 C.3    36  G36         0.2408
    505  N1         8.4690   -9.9730   -6.7350 N.ar   36  G36        -0.1709
    506  C2         8.2130  -11.2890   -7.0410 C.ar   36  G36         0.2606
    507  N2         8.9370  -11.8240   -8.0340 N.pl3  36  G36        -0.0859
    508  N3         7.3130  -12.0240   -6.4130 N.ar   36  G36        -0.1918
    509  C4         6.6890  -11.3280   -5.4380 C.ar   36  G36         0.1723
    510  C5         6.8800  -10.0170   -5.0540 C.ar   36  G36         0.1748
    511  C6         7.8300   -9.2420   -5.7330 C.ar   36  G36         0.3023
    512  O6         8.1250   -8.0570   -5.5370 O.2    36  G36        -0.2633
    513  N7         6.0470   -9.6830   -3.9990 N.ar   36  G36        -0.2173
    514  C8         5.3720  -10.7740   -3.7700 C.ar   36  G36         0.1817
    515  N9         5.7110  -11.8060   -4.6130 N.ar   36  G36        -0.2693
    516  OP1        3.0880  -11.9710    1.2060 O.3    36  G36        -0.4373
    517  OP2        3.9040   -9.8400    0.0300 O.co2  36  G36        -0.5172
    518  P          7.7470  -15.2890   -1.1830 P.3    37  G37         0.2141
    519  C5'        8.9500  -16.6160   -3.0910 C.3    37  G37         0.1812
    520  O5'        8.7650  -15.3920   -2.4040 O.3    37  G37        -0.3114
    521  C4'        9.9780  -16.4410   -4.1720 C.3    37  G37         0.1773
    522  O4'        9.5330  -15.3990   -5.0680 O.3    37  G37        -0.3307
    523  C3'       11.3380  -15.9630   -3.7110 C.3    37  G37         0.1860
    524  O3'       12.1300  -17.0620   -3.3180 O.3    37  G37        -0.3112
    525  C2'       11.8920  -15.3300   -4.9730 C.3    37  G37         0.2309
    526  O2'       12.3460  -16.2730   -5.9160 O.3    37  G37        -0.2156
    527  C1'       10.6430  -14.6700   -5.5320 C.3    37  G37         0.2408
    528  N1        12.6490  -10.0440   -5.6160 N.ar   37  G37        -0.1709
    529  C2        13.1410  -11.2210   -6.1300 C.ar   37  G37         0.2606
    530  N2        14.3070  -11.1510   -6.7870 N.pl3  37  G37        -0.0859
    531  N3        12.5340  -12.3830   -6.0110 N.ar   37  G37        -0.1918
    532  C4        11.3710  -12.2770   -5.3340 C.ar   37  G37         0.1723
    533  C5        10.7940  -11.1600   -4.7850 C.ar   37  G37         0.1748
    534  C6        11.4550   -9.9200   -4.9140 C.ar   37  G37         0.3023
    535  O6        11.1000   -8.8190   -4.4990 O.2    37  G37        -0.2633
    536  N7         9.5930  -11.4810   -4.1720 N.ar   37  G37        -0.2173
    537  C8         9.4660  -12.7640   -4.3590 C.ar   37  G37         0.1817
    538  N9        10.4990  -13.3000   -5.0780 N.ar   37  G37        -0.2693
    539  OP1        7.8680  -16.5640   -0.4310 O.3    37  G37        -0.4373
    540  OP2        8.0090  -14.0020   -0.4760 O.co2  37  G37        -0.5172
    541  P         12.9420  -16.9830   -1.9510 P.3    38  C38         0.2141
    542  C5'       15.0880  -16.7380   -3.4180 C.3    38  C38         0.1812
    543  O5'       14.2950  -16.2510   -2.3470 O.3    38  C38        -0.3114
    544  C4'       16.1400  -15.7200   -3.7990 C.3    38  C38         0.1773
    545  O4'       15.5310  -14.5890   -4.4710 O.3    38  C38        -0.3307
    546  C3'       16.8920  -15.0890   -2.6440 C.3    38  C38         0.1860
    547  O3'       17.9220  -15.9350   -2.1680 O.3    38  C38        -0.3112
    548  C2'       17.4350  -13.8180   -3.2770 C.3    38  C38         0.2309
    549  O2'       18.5980  -14.0190   -4.0500 O.3    38  C38        -0.2156
    550  C1'       16.2720  -13.4150   -4.1830 C.3    38  C38         0.2420
    551  N1        15.3720  -12.4510   -3.5420 N.ar   38  C38        -0.2535
    552  C2        15.8120  -11.1470   -3.3470 C.ar   38  C38         0.3532
    553  O2        16.9450  -10.8390   -3.7170 O.2    38  C38        -0.2443
    554  N3        14.9990  -10.2540   -2.7600 N.ar   38  C38        -0.1739
    555  C4        13.7840  -10.6230   -2.3670 C.ar   38  C38         0.1759
    556  N4        13.0130   -9.7080   -1.7850 N.pl3  38  C38        -0.1070
    557  C5        13.3040  -11.9500   -2.5510 C.ar   38  C38         0.0566
    558  C6        14.1250  -12.8240   -3.1410 C.ar   38  C38         0.0850
    559  OP1       13.2410  -18.3800   -1.5580 O.2    38  C38        -0.5172
    560  OP2       12.1920  -16.0960   -1.0310 O.co2  38  C38        -0.4373
    561  P         18.2250  -15.9950   -0.5970 P.3    39  U39         0.2141
    562  C5'       20.4750  -14.7170   -0.9740 C.3    39  U39         0.1812
    563  O5'       19.1990  -14.7600   -0.3510 O.3    39  U39        -0.3114
    564  C4'       21.0840  -13.3470   -0.8330 C.3    39  U39         0.1773
    565  O4'       20.3360  -12.3790   -1.6160 O.3    39  U39        -0.3307
    566  C3'       21.0680  -12.7670    0.5650 C.3    39  U39         0.1860
    567  O3'       22.1240  -13.3140    1.3460 O.3    39  U39        -0.3112
    568  C2'       21.2590  -11.2860    0.2730 C.3    39  U39         0.2309
    569  O2'       22.5980  -10.9860   -0.0400 O.3    39  U39        -0.2156
    570  C1'       20.3960  -11.1120   -0.9800 C.3    39  U39         0.2420
    571  N1        19.0260  -10.6930   -0.6480 N.ar   39  U39        -0.2534
    572  C2        18.8010   -9.3530   -0.4420 C.ar   39  U39         0.3546
    573  O2        19.6650   -8.5170   -0.5540 O.2    39  U39        -0.2443
    574  N3        17.5200   -9.0270   -0.0950 N.ar   39  U39        -0.1530
    575  C4        16.4650   -9.8790    0.0640 C.ar   39  U39         0.2846
    576  O4        15.3770   -9.4250    0.3900 O.2    39  U39        -0.2650
    577  C5        16.7650  -11.2510   -0.1760 C.ar   39  U39         0.0814
    578  C6        18.0040  -11.6050   -0.5210 C.ar   39  U39         0.0870
    579  OP1       19.0080  -17.2240   -0.3630 O.2    39  U39        -0.5172
    580  OP2       16.9590  -15.7670    0.1530 O.co2  39  U39        -0.4373
    581  P         21.8120  -13.9010    2.8100 P.3    40  G40         0.2141
    582  C5'       22.6230  -11.6190    3.7880 C.3    40  G40         0.1812
    583  O5'       21.6020  -12.5970    3.6980 O.3    40  G40        -0.3114
    584  C4'       22.0630  -10.3090    4.2830 C.3    40  G40         0.1773
    585  O4'       21.0590   -9.8130    3.3570 O.3    40  G40        -0.3307
    586  C3'       21.3330  -10.3480    5.6060 C.3    40  G40         0.1860
    587  O3'       22.2530  -10.3490    6.6920 O.3    40  G40        -0.3112
    588  C2'       20.5150   -9.0670    5.5200 C.3    40  G40         0.2309
    589  O2'       21.2900   -7.9040    5.7010 O.3    40  G40        -0.2156
    590  C1'       20.0440   -9.1330    4.0730 C.3    40  G40         0.2408
    591  N1        15.0040   -9.0670    3.7440 N.ar   40  G40        -0.1709
    592  C2        15.8850   -8.0160    3.7970 C.ar   40  G40         0.2606
    593  N2        15.3660   -6.7870    3.7650 N.pl3  40  G40        -0.0859
    594  N3        17.1840   -8.1600    3.8790 N.ar   40  G40        -0.1918
    595  C4        17.5450   -9.4560    3.9000 C.ar   40  G40         0.1723
    596  C5        16.7430  -10.5770    3.8550 C.ar   40  G40         0.1748
    597  C6        15.3610  -10.4150    3.7740 C.ar   40  G40         0.3023
    598  O6        14.4940  -11.2950    3.7320 O.2    40  G40        -0.2633
    599  N7        17.5050  -11.7340    3.8960 N.ar   40  G40        -0.2173
    600  C8        18.7350  -11.3040    3.9610 C.ar   40  G40         0.1817
    601  N9        18.8270   -9.9300    3.9750 N.ar   40  G40        -0.2693
    602  OP1       23.0300  -14.5920    3.2760 O.3    40  G40        -0.4373
    603  OP2       20.5290  -14.6400    2.7720 O.co2  40  G40        -0.5172
    604  P         21.8210  -10.9770    8.1110 P.3    41  A41         0.2141
    605  C5'       20.0940  -10.2100    9.9110 C.3    41  A41         0.1812
    606  O5'       20.6920   -9.9950    8.6490 O.3    41  A41        -0.3114
    607  C4'       19.4780   -8.9310   10.4180 C.3    41  A41         0.1773
    608  O4'       20.5180   -7.9410   10.6250 O.3    41  A41        -0.3307
    609  C3'       18.5220   -8.2540    9.4570 C.3    41  A41         0.1860
    610  O3'       17.2260   -8.8120    9.5680 O.3    41  A41        -0.3112
    611  C2'       18.5340   -6.8130    9.9410 C.3    41  A41         0.2309
    612  O2'       17.6410   -6.6650   11.0230 O.3    41  A41        -0.2156
    613  C1'       19.9830   -6.6480   10.4090 C.3    41  A41         0.2408
    614  N1        21.3110   -2.1320    8.3150 N.ar   41  A41        -0.2040
    615  C2        20.2770   -2.4890    9.0740 C.ar   41  A41         0.2016
    616  N3        19.9620   -3.6850    9.5610 N.ar   41  A41        -0.2048
    617  C4        20.8650   -4.6020    9.1850 C.ar   41  A41         0.1692
    618  C5        21.9800   -4.3850    8.4000 C.ar   41  A41         0.1518
    619  C6        22.2000   -3.0780    7.9540 C.ar   41  A41         0.1919
    620  N6        23.2340   -2.7220    7.2000 N.pl3  41  A41        -0.1054
    621  N7        22.6810   -5.5660    8.2070 N.ar   41  A41        -0.2193
    622  C8        21.9890   -6.4540    8.8770 C.ar   41  A41         0.1816
    623  N9        20.8920   -5.9340    9.5150 N.ar   41  A41        -0.2693
    624  OP1       22.9900  -10.8360    9.0050 O.3    41  A41        -0.4373
    625  OP2       21.2250  -12.3230    7.8820 O.co2  41  A41        -0.5172
    626  P         16.4260   -9.2110    8.2350 P.3    42  G42         0.2141
    627  C5'       14.8950   -7.0970    8.4590 C.3    42  G42         0.1812
    628  O5'       15.8750   -7.8090    7.7060 O.3    42  G42        -0.3114
    629  C4'       14.9290   -5.6150    8.1470 C.3    42  G42         0.1773
    630  O4'       16.2320   -5.0570    8.4480 O.3    42  G42        -0.3307
    631  C3'       14.6640   -5.2430    6.7080 C.3    42  G42         0.1860
    632  O3'       13.2580   -5.1520    6.5410 O.3    42  G42        -0.3112
    633  C2'       15.3620   -3.8890    6.5800 C.3    42  G42         0.2309
    634  O2'       14.6090   -2.8200    7.1110 O.3    42  G42        -0.2156
    635  C1'       16.5830   -4.0890    7.4750 C.3    42  G42         0.2408
    636  N1        20.9080   -2.9110    5.0700 N.ar   42  G42        -0.1709
    637  C2        19.9300   -2.0730    5.5200 C.ar   42  G42         0.2606
    638  N2        20.1530   -0.7790    5.3130 N.pl3  42  G42        -0.0859
    639  N3        18.8230   -2.4800    6.1210 N.ar   42  G42        -0.1918
    640  C4        18.7830   -3.8250    6.2210 C.ar   42  G42         0.1723
    641  C5        19.7160   -4.7430    5.7910 C.ar   42  G42         0.1748
    642  C6        20.8820   -4.2920    5.1690 C.ar   42  G42         0.3023
    643  O6        21.8170   -4.9490    4.7390 O.2    42  G42        -0.2633
    644  N7        19.2990   -6.0330    6.0630 N.ar   42  G42        -0.2173
    645  C8        18.1450   -5.8830    6.6520 C.ar   42  G42         0.1817
    646  N9        17.7800   -4.5720    6.7980 N.ar   42  G42        -0.2693
    647  OP1       15.2550  -10.0420    8.6330 O.3    42  G42        -0.4373
    648  OP2       17.4410   -9.7790    7.2990 O.co2  42  G42        -0.5172
    649  P         12.5300   -6.0780    5.4600 P.3    43  A43         0.2141
    650  C5'       12.6430   -3.8110    4.1370 C.3    43  A43         0.1812
    651  O5'       12.6050   -5.2370    4.1110 O.3    43  A43        -0.3114
    652  C4'       13.0310   -3.2820    2.7790 C.3    43  A43         0.1773
    653  O4'       14.3160   -3.7860    2.4000 O.3    43  A43        -0.3307
    654  C3'       12.1060   -3.6450    1.6260 C.3    43  A43         0.1860
    655  O3'       11.2940   -2.4880    1.4430 O.3    43  A43        -0.3112
    656  C2'       13.0290   -3.7690    0.4020 C.3    43  A43         0.2309
    657  O2'       12.8660   -2.7360   -0.5420 O.3    43  A43        -0.2156
    658  C1'       14.4250   -3.6600    1.0160 C.3    43  A43         0.2408
    659  N1        18.9560   -3.6580   -1.2010 N.ar   43  A43        -0.2040
    660  C2        18.1110   -2.6880   -0.8640 C.ar   43  A43         0.2016
    661  N3        16.9290   -2.7770   -0.2930 N.ar   43  A43        -0.2048
    662  C4        16.6170   -4.0600   -0.0620 C.ar   43  A43         0.1692
    663  C5        17.3790   -5.1680   -0.3570 C.ar   43  A43         0.1518
    664  C6        18.6120   -4.9360   -0.9530 C.ar   43  A43         0.1919
    665  N6        19.4680   -5.9050   -1.2830 N.pl3  43  A43        -0.1054
    666  N7        16.7260   -6.3310    0.0290 N.ar   43  A43        -0.2193
    667  C8        15.6000   -5.9010    0.5480 C.ar   43  A43         0.1816
    668  N9        15.4770   -4.5350    0.5290 N.ar   43  A43        -0.2693
    669  OP1       11.1130   -6.2110    5.8600 O.3    43  A43        -0.4373
    670  OP2       13.3610   -7.2850    5.3050 O.co2  43  A43        -0.5172
    671  P          9.7470   -2.6180    1.0740 P.3    44  A44         0.2141
    672  C5'        9.5320   -1.4730    3.4070 C.3    44  A44         0.1812
    673  O5'        9.0180   -2.4220    2.4790 O.3    44  A44        -0.3114
    674  C4'        8.4310   -0.8620    4.2460 C.3    44  A44         0.1773
    675  O4'        9.0290    0.2460    4.9610 O.3    44  A44        -0.3307
    676  C3'        7.2340   -0.2880    3.4890 C.3    44  A44         0.1860
    677  O3'        6.2020   -1.2900    3.3440 O.3    44  A44        -0.3112
    678  C2'        6.8590    0.9880    4.2510 C.3    44  A44         0.2309
    679  O2'        5.8840    0.8740    5.2660 O.3    44  A44        -0.2156
    680  C1'        8.1850    1.3750    4.9060 C.3    44  A44         0.2408
    681  N1        11.6910    2.6750    1.4030 N.ar   44  A44        -0.2040
    682  C2        11.0800    1.5070    1.6880 C.ar   44  A44         0.2016
    683  N3        10.1500    1.2460    2.6010 N.ar   44  A44        -0.2048
    684  C4         9.8400    2.3600    3.2840 C.ar   44  A44         0.1692
    685  C5        10.3750    3.6260    3.1120 C.ar   44  A44         0.1518
    686  C6        11.3490    3.7760    2.1150 C.ar   44  A44         0.1919
    687  N6        11.9500    4.9390    1.8340 N.pl3  44  A44        -0.1054
    688  N7         9.8110    4.5250    4.0030 N.ar   44  A44        -0.2193
    689  C8         8.9650    3.7950    4.6870 C.ar   44  A44         0.1816
    690  N9         8.9470    2.4710    4.3150 N.ar   44  A44        -0.2693
    691  OP1        9.4920   -3.9810    0.5340 O.3    44  A44        -0.4373
    692  OP2        9.4830   -1.4210    0.2370 O.co2  44  A44        -0.5172
    693  P          5.2190   -1.6730    4.5860 P.3    45  A45         0.2141
    694  C5'        5.9280   -1.2260    7.0850 C.3    45  A45         0.1812
    695  O5'        6.1870   -1.8780    5.8410 O.3    45  A45        -0.3114
    696  C4'        6.7680   -1.8350    8.1910 C.3    45  A45         0.1773
    697  O4'        8.1670   -1.8770    7.7730 O.3    45  A45        -0.3307
    698  C3'        6.8150   -1.0320    9.4850 C.3    45  A45         0.1860
    699  O3'        5.6910   -1.1860   10.3400 O.3    45  A45        -0.3112
    700  C2'        8.1150   -1.5220   10.1000 C.3    45  A45         0.2309
    701  O2'        8.0150   -2.8360   10.6190 O.3    45  A45        -0.2156
    702  C1'        9.0100   -1.5000    8.8620 C.3    45  A45         0.2408
    703  N1        12.3260    1.4640    6.2470 N.ar   45  A45        -0.2040
    704  C2        12.1010    0.1480    6.2330 C.ar   45  A45         0.2016
    705  N3        11.2250   -0.5640    6.9330 N.ar   45  A45        -0.2048
    706  C4        10.5080    0.2320    7.7420 C.ar   45  A45         0.1692
    707  C5        10.6250    1.6040    7.8660 C.ar   45  A45         0.1518
    708  C6        11.5910    2.2350    7.0680 C.ar   45  A45         0.1919
    709  N6        11.8200    3.5460    7.0780 N.pl3  45  A45        -0.1054
    710  N7         9.7210    2.0920    8.7970 N.ar   45  A45        -0.2193
    711  C8         9.0880    1.0240    9.2100 C.ar   45  A45         0.1816
    712  N9         9.5110   -0.1400    8.6140 N.ar   45  A45        -0.2693
    713  OP1        4.6510   -3.0110    4.2670 O.2    45  A45        -0.5172
    714  OP2        4.2930   -0.5450    4.8770 O.co2  45  A45        -0.4373
    715  P          5.1670    0.0850   11.1870 P.3    46  U46         0.2141
    716  C5'        5.8110   -1.0350   13.4760 C.3    46  U46         0.1811
    717  O5'        6.0030    0.0340   12.5490 O.3    46  U46        -0.3114
    718  C4'        5.8310   -0.5280   14.9040 C.3    46  U46         0.1752
    719  O4'        5.1090   -1.4840   15.7290 O.3    46  U46        -0.3483
    720  C3'        7.1980   -0.3980   15.5680 C.3    46  U46         0.1839
    721  O3'        7.8570    0.8460   15.3110 O.3    46  U46        -0.3113
    722  C2'        6.8720   -0.5780   17.0490 C.3    46  U46         0.2112
    723  O2'        6.4380    0.6030   17.7000 O.3    46  U46        -0.2177
    724  C1'        5.7420   -1.6090   16.9920 C.3    46  U46         0.1776
    725  OP1        3.7410   -0.1900   11.4970 O.3    46  U46        -0.4373
    726  OP2        5.5330    1.3400   10.4660 O.co2  46  U46        -0.5172
    727  P          9.3690    1.0830   15.8450 P.3    47  A47         0.2141
    728  C5'        9.8770   -1.4500   15.2950 C.3    47  A47         0.1812
    729  O5'       10.2340   -0.0700   15.1510 O.3    47  A47        -0.3114
    730  C4'       10.4880   -2.2790   14.1900 C.3    47  A47         0.1773
    731  O4'       10.1420   -1.7190   12.8920 O.3    47  A47        -0.3307
    732  C3'       12.0000   -2.3180   14.1930 C.3    47  A47         0.1860
    733  O3'       12.4200   -3.3210   15.0970 O.3    47  A47        -0.3112
    734  C2'       12.3110   -2.6580   12.7410 C.3    47  A47         0.2309
    735  O2'       12.1310   -4.0280   12.4320 O.3    47  A47        -0.2156
    736  C1'       11.2450   -1.8390   12.0130 C.3    47  A47         0.2408
    737  N1        14.2520    1.0200    9.0000 N.ar   47  A47        -0.2040
    738  C2        14.0810   -0.3040    9.0970 C.ar   47  A47         0.2016
    739  N3        13.2880   -0.9880    9.9060 N.ar   47  A47        -0.2048
    740  C4        12.6020   -0.1540   10.7040 C.ar   47  A47         0.1692
    741  C5        12.6740    1.2250   10.7210 C.ar   47  A47         0.1518
    742  C6        13.5440    1.8260    9.8180 C.ar   47  A47         0.1919
    743  N6        13.7110    3.1430    9.7220 N.pl3  47  A47        -0.1054
    744  N7        11.8260    1.7500   11.6820 N.ar   47  A47        -0.2193
    745  C8        11.2650    0.6930   12.2140 C.ar   47  A47         0.1816
    746  N9        11.6840   -0.4910   11.6650 N.ar   47  A47        -0.2693
    747  OP1        9.4010    0.8330   17.3140 O.3    47  A47        -0.4373
    748  OP2        9.8370    2.3960   15.3150 O.co2  47  A47        -0.5172
    749  P         13.6670   -3.0410   16.0590 P.3    48  C48         0.2141
    750  C5'       15.1040   -4.4480   14.3570 C.3    48  C48         0.1812
    751  O5'       14.9280   -3.2380   15.1000 O.3    48  C48        -0.3114
    752  C4'       16.0350   -4.2260   13.1870 C.3    48  C48         0.1773
    753  O4'       15.4030   -3.3800   12.1870 O.3    48  C48        -0.3307
    754  C3'       17.3210   -3.4980   13.5100 C.3    48  C48         0.1860
    755  O3'       18.2720   -4.3850   14.0900 O.3    48  C48        -0.3112
    756  C2'       17.7260   -2.9890   12.1320 C.3    48  C48         0.2309
    757  O2'       18.2260   -4.0240   11.3210 O.3    48  C48        -0.2156
    758  C1'       16.3750   -2.5560   11.5660 C.3    48  C48         0.2420
    759  N1        16.0630   -1.1530   11.8830 N.ar   48  C48        -0.2535
    760  C2        16.5800   -0.1380   11.0690 C.ar   48  C48         0.3532
    761  O2        17.2400   -0.4490   10.0820 O.2    48  C48        -0.2443
    762  N3        16.3400    1.1570   11.3860 N.ar   48  C48        -0.1739
    763  C4        15.6120    1.4540   12.4640 C.ar   48  C48         0.1759
    764  N4        15.4280    2.7310   12.7590 N.pl3  48  C48        -0.1070
    765  C5        15.0490    0.4440   13.2930 C.ar   48  C48         0.0566
    766  C6        15.2940   -0.8360   12.9680 C.ar   48  C48         0.0850
    767  OP1       13.6600   -4.1150   17.0860 O.3    48  C48        -0.4373
    768  OP2       13.6420   -1.6220   16.4830 O.co2  48  C48        -0.5172
    769  P         19.3150   -3.8280   15.1870 P.3    49  C49         0.2141
    770  C5'       21.0580   -3.5330   13.2520 C.3    49  C49         0.1812
    771  O5'       20.3370   -2.9570   14.3350 O.3    49  C49        -0.3114
    772  C4'       21.7150   -2.4480   12.4440 C.3    49  C49         0.1773
    773  O4'       20.6890   -1.6560   11.7870 O.3    49  C49        -0.3307
    774  C3'       22.5130   -1.4460   13.2620 C.3    49  C49         0.1860
    775  O3'       23.8310   -1.9540   13.4840 O.3    49  C49        -0.3112
    776  C2'       22.4990   -0.2290   12.3390 C.3    49  C49         0.2309
    777  O2'       23.4250   -0.3550   11.2730 O.3    49  C49        -0.2156
    778  C1'       21.0750   -0.2930   11.7710 C.3    49  C49         0.2420
    779  N1        20.0820    0.4680   12.5470 N.ar   49  C49        -0.2535
    780  C2        20.0860    1.8620   12.4810 C.ar   49  C49         0.3532
    781  O2        20.8960    2.4140   11.7410 O.2    49  C49        -0.2443
    782  N3        19.2010    2.5670   13.2220 N.ar   49  C49        -0.1739
    783  C4        18.3190    1.9240   13.9930 C.ar   49  C49         0.1759
    784  N4        17.4470    2.6490   14.7020 N.pl3  49  C49        -0.1070
    785  C5        18.2850    0.5000   14.0680 C.ar   49  C49         0.0566
    786  C6        19.1750   -0.1810   13.3340 C.ar   49  C49         0.0850
    787  OP1       20.0810   -4.9640   15.7340 O.2    49  C49        -0.5172
    788  OP2       18.5960   -2.9210   16.1110 O.co2  49  C49        -0.4373
    789  P         24.5740   -1.7200   14.8980 P.3    50  C50         0.2141
    790  C5'       26.0790    0.0640   13.7300 C.3    50  C50         0.1812
    791  O5'       25.1930   -0.2590   14.7870 O.3    50  C50        -0.3114
    792  C4'       26.0540    1.5470   13.4650 C.3    50  C50         0.1773
    793  O4'       24.7250    1.9590   13.0410 O.3    50  C50        -0.3307
    794  C3'       26.3420    2.4390   14.6570 C.3    50  C50         0.1860
    795  O3'       27.7530    2.5290   14.8540 O.3    50  C50        -0.3112
    796  C2'       25.7550    3.7630   14.1810 C.3    50  C50         0.2309
    797  O2'       26.6190    4.3740   13.2460 O.3    50  C50        -0.2156
    798  C1'       24.4920    3.2950   13.4480 C.3    50  C50         0.2420
    799  N1        23.2670    3.3290   14.2690 N.ar   50  C50        -0.2535
    800  C2        22.6800    4.5630   14.5530 C.ar   50  C50         0.3532
    801  O2        23.1830    5.5860   14.0790 O.2    50  C50        -0.2443
    802  N3        21.5740    4.6090   15.3320 N.ar   50  C50        -0.1739
    803  C4        21.0470    3.4800   15.8100 C.ar   50  C50         0.1759
    804  N4        19.9580    3.5730   16.5780 N.pl3  50  C50        -0.1070
    805  C5        21.6130    2.2060   15.5220 C.ar   50  C50         0.0566
    806  C6        22.7140    2.1770   14.7550 C.ar   50  C50         0.0850
    807  OP1       25.7040   -2.6690   14.8820 O.2    50  C50        -0.5172
    808  OP2       23.6180   -1.7270   16.0360 O.co2  50  C50        -0.4373
    809  P         28.3410    2.8730   16.3100 P.3    51  G51         0.2141
    810  C5'       28.7510    5.3820   15.6800 C.3    51  G51         0.1812
    811  O5'       28.0520    4.4290   16.4680 O.3    51  G51        -0.3114
    812  C4'       28.3420    6.7760   16.0750 C.3    51  G51         0.1773
    813  O4'       26.9420    6.9720   15.7680 O.3    51  G51        -0.3307
    814  C3'       28.4350    7.0900   17.5560 C.3    51  G51         0.1860
    815  O3'       29.7650    7.4770   17.8700 O.3    51  G51        -0.3112
    816  C2'       27.4630    8.2600   17.7040 C.3    51  G51         0.2309
    817  O2'       28.0210    9.5050   17.3350 O.3    51  G51        -0.2156
    818  C1'       26.3790    7.8920   16.6920 C.3    51  G51         0.2408
    819  N1        21.9610    8.6850   19.0440 N.ar   51  G51        -0.1709
    820  C2        22.9080    9.5870   18.6560 C.ar   51  G51         0.2606
    821  N2        22.6350   10.8620   18.9320 N.pl3  51  G51        -0.0859
    822  N3        24.0390    9.2620   18.0490 N.ar   51  G51        -0.1918
    823  C4        24.1450    7.9370   17.8690 C.ar   51  G51         0.1723
    824  C5        23.2570    6.9520   18.2260 C.ar   51  G51         0.1748
    825  C6        22.0530    7.3160   18.8710 C.ar   51  G51         0.3023
    826  O6        21.1430    6.5880   19.2670 O.2    51  G51        -0.2633
    827  N7        23.7370    5.7020   17.8620 N.ar   51  G51        -0.2173
    828  C8        24.8850    5.9500   17.3020 C.ar   51  G51         0.1817
    829  N9        25.1880    7.2860   17.2700 N.ar   51  G51        -0.2693
    830  OP1       29.8150    2.6920   16.2510 O.2    51  G51        -0.5172
    831  OP2       27.5560    2.1540   17.3420 O.co2  51  G51        -0.4373
    832  P         30.5130    6.8370   19.1420 P.3    52  U52         0.2141
    833  C5'       32.8680    6.4230   18.0770 C.3    52  U52         0.1812
    834  O5'       32.0270    7.2460   18.8800 O.3    52  U52        -0.3114
    835  C4'       33.9820    7.2440   17.4690 C.3    52  U52         0.1773
    836  O4'       33.4710    8.0810   16.4120 O.3    52  U52        -0.3307
    837  C3'       34.7330    8.1620   18.4190 C.3    52  U52         0.1860
    838  O3'       35.7640    7.4300   19.1180 O.3    52  U52        -0.3112
    839  C2'       35.1740    9.3490   17.5520 C.3    52  U52         0.2309
    840  O2'       36.5010    9.2750   17.0670 O.3    52  U52        -0.2156
    841  C1'       34.1690    9.3090   16.3880 C.3    52  U52         0.2420
    842  N1        33.1660   10.3750   16.2430 N.ar   52  U52        -0.2534
    843  C2        33.5860   11.6930   16.1350 C.ar   52  U52         0.3546
    844  O2        34.7570   12.0310   16.2120 O.2    52  U52        -0.2443
    845  N3        32.5730   12.6020   15.9260 N.ar   52  U52        -0.1530
    846  C4        31.2150   12.3350   15.8210 C.ar   52  U52         0.2846
    847  O4        30.4230   13.2590   15.6160 O.2    52  U52        -0.2650
    848  C5        30.8680   10.9570   15.9660 C.ar   52  U52         0.0814
    849  C6        31.8270   10.0500   16.1730 C.ar   52  U52         0.0870
    850  OP1       30.4450    5.3530   19.0480 O.2    52  U52        -0.5172
    851  OP2       30.0220    7.5190   20.3700 O.co2  52  U52        -0.4373
    852  P         36.8490    6.5320   18.3030 P.3    53  A53         0.2141
    853  C5'       36.6950    5.7340   15.7920 C.3    53  A53         0.1812
    854  O5'       36.0630    5.9190   17.0580 O.3    53  A53        -0.3114
    855  C4'       35.8100    4.9010   14.8900 C.3    53  A53         0.1773
    856  O4'       34.4680    5.4390   14.8790 O.3    53  A53        -0.3307
    857  C3'       36.2210    4.8220   13.4270 C.3    53  A53         0.1860
    858  O3'       37.1270    3.7240   13.2860 O.3    53  A53        -0.3112
    859  C2'       34.8990    4.5210   12.7050 C.3    53  A53         0.2309
    860  O2'       34.6360    3.1370   12.5860 O.3    53  A53        -0.2156
    861  C1'       33.8530    5.1260   13.6480 C.3    53  A53         0.2408
    862  N1        33.8950   10.1550   12.4420 N.ar   53  A53        -0.2040
    863  C2        34.8710    9.3200   12.8220 C.ar   53  A53         0.2016
    864  N3        34.8080    8.0190   13.1070 N.ar   53  A53        -0.2048
    865  C4        33.5520    7.5670   12.9670 C.ar   53  A53         0.1692
    866  C5        32.4430    8.3050   12.5850 C.ar   53  A53         0.1518
    867  C6        32.6440    9.6680   12.3130 C.ar   53  A53         0.1919
    868  N6        31.6710   10.5000   11.9370 N.pl3  53  A53        -0.1054
    869  N7        31.3110    7.5050   12.5490 N.ar   53  A53        -0.2193
    870  C8        31.7500    6.3220   12.9060 C.ar   53  A53         0.1816
    871  N9        33.0940    6.2890   13.1860 N.ar   53  A53        -0.2693
    872  OP1       37.1610    5.3760   19.1820 O.3    53  A53        -0.4373
    873  OP2       37.9540    7.3870   17.7920 O.co2  53  A53        -0.5172
    874  P         38.3500    3.7990   12.2390 P.3    54  U54         0.2141
    875  C5'       39.2620    1.4100   11.6040 C.3    54  U54         0.1811
    876  O5'       38.2530    2.4090   11.4520 O.3    54  U54        -0.3114
    877  C4'       38.8290    0.1010   10.9750 C.3    54  U54         0.1752
    878  O4'       39.9800   -0.7870   10.9410 O.3    54  U54        -0.3483
    879  C3'       37.7470   -0.6870   11.7110 C.3    54  U54         0.1839
    880  O3'       36.4300   -0.3040   11.3030 O.3    54  U54        -0.3113
    881  C2'       38.0450   -2.1240   11.2920 C.3    54  U54         0.2112
    882  O2'       37.5030   -2.4570   10.0280 O.3    54  U54        -0.2177
    883  C1'       39.5740   -2.1150   11.2230 C.3    54  U54         0.1776
    884  OP1       39.5980    3.7780   13.0570 O.3    54  U54        -0.4373
    885  OP2       38.1210    4.9130   11.2730 O.co2  54  U54        -0.5172
    886  P         35.1430   -0.8590   12.1090 P.3    55  C55         0.2141
    887  C5'       33.8020   -1.4860    9.9250 C.3    55  C55         0.1811
    888  O5'       33.9310   -0.6660   11.0890 O.3    55  C55        -0.3114
    889  C4'       32.5660   -2.3520   10.0370 C.3    55  C55         0.1752
    890  O4'       32.8050   -3.4100   11.0060 O.3    55  C55        -0.3483
    891  C3'       31.3340   -1.6290   10.5660 C.3    55  C55         0.1839
    892  O3'       30.6280   -0.9350    9.5460 O.3    55  C55        -0.3113
    893  C2'       30.5130   -2.7600   11.1730 C.3    55  C55         0.2112
    894  O2'       29.7330   -3.4450   10.2130 O.3    55  C55        -0.2177
    895  C1'       31.6120   -3.6690   11.7360 C.3    55  C55         0.1776
    896  OP1       34.9280    0.0510   13.2670 O.3    55  C55        -0.4373
    897  OP2       35.2890   -2.3210   12.3440 O.co2  55  C55        -0.5172
    898  P         30.2360    0.6030    9.7790 P.3    56  A56         0.2141
    899  C5'       27.7060   -0.1250    9.8490 C.3    56  A56         0.1812
    900  O5'       28.7180    0.7150    9.2970 O.3    56  A56        -0.3114
    901  C4'       26.3370    0.5010    9.6690 C.3    56  A56         0.1773
    902  O4'       26.2200    1.6880   10.4970 O.3    56  A56        -0.3307
    903  C3'       25.9880    0.9950    8.2780 C.3    56  A56         0.1860
    904  O3'       25.4900   -0.0560    7.4660 O.3    56  A56        -0.3112
    905  C2'       24.8680    1.9680    8.5850 C.3    56  A56         0.2309
    906  O2'       23.6870    1.2600    8.8830 O.3    56  A56        -0.2156
    907  C1'       25.3950    2.6420    9.8520 C.3    56  A56         0.2408
    908  N1        25.5560    7.8110    9.4830 N.ar   56  A56        -0.2040
    909  C2        24.5590    6.9710    9.7530 C.ar   56  A56         0.2016
    910  N3        24.5700    5.6420    9.8290 N.ar   56  A56        -0.2048
    911  C4        25.8000    5.1550    9.5870 C.ar   56  A56         0.1692
    912  C5        26.9250    5.8930    9.2920 C.ar   56  A56         0.1518
    913  C6        26.7760    7.3000    9.2390 C.ar   56  A56         0.1919
    914  N6        27.7690    8.1480    8.9610 N.pl3  56  A56        -0.1054
    915  N7        28.0190    5.0600    9.1030 N.ar   56  A56        -0.2193
    916  C8        27.5380    3.8560    9.2860 C.ar   56  A56         0.1816
    917  N9        26.2040    3.8340    9.5860 N.ar   56  A56        -0.2693
    918  OP1       31.0840    1.4190    8.8690 O.2    56  A56        -0.5172
    919  OP2       30.2880    0.8410   11.2450 O.co2  56  A56        -0.4373
    920  P         25.8580   -0.0950    5.9040 P.3    57  C57         0.2141
    921  C5'       24.3840    1.9620    5.2070 C.3    57  C57         0.1812
    922  O5'       25.6790    1.4160    5.4360 O.3    57  C57        -0.3114
    923  C4'       24.4700    3.4490    4.9390 C.3    57  C57         0.1773
    924  O4'       25.1420    4.0760    6.0610 O.3    57  C57        -0.3307
    925  C3'       25.2700    3.9110    3.7250 C.3    57  C57         0.1860
    926  O3'       24.4920    3.9010    2.5330 O.3    57  C57        -0.3112
    927  C2'       25.6090    5.3340    4.1260 C.3    57  C57         0.2309
    928  O2'       24.4880    6.1810    4.0270 O.3    57  C57        -0.2156
    929  C1'       25.9460    5.1450    5.6020 C.3    57  C57         0.2420
    930  N1        27.3500    4.7670    5.7890 N.ar   57  C57        -0.2535
    931  C2        28.3010    5.7710    5.9320 C.ar   57  C57         0.3532
    932  O2        27.9270    6.9470    5.9040 O.2    57  C57        -0.2443
    933  N3        29.6010    5.4380    6.0970 N.ar   57  C57        -0.1739
    934  C4        29.9550    4.1550    6.1230 C.ar   57  C57         0.1759
    935  N4        31.2390    3.8640    6.2910 N.pl3  57  C57        -0.1070
    936  C5        29.0030    3.1070    5.9770 C.ar   57  C57         0.0566
    937  C6        27.7240    3.4550    5.8160 C.ar   57  C57         0.0850
    938  OP1       24.8230   -0.8980    5.2200 O.2    57  C57        -0.5172
    939  OP2       27.2850   -0.4710    5.7670 O.co2  57  C57        -0.4373
    940  P         25.2190    3.9720    1.0990 P.3    58  C58         0.2141
    941  C5'       24.9240    6.5820    0.9090 C.3    58  C58         0.1812
    942  O5'       25.7940    5.4560    1.0210 O.3    58  C58        -0.3114
    943  C4'       25.7300    7.8530    0.7170 C.3    58  C58         0.1773
    944  O4'       26.5350    8.1150    1.8980 O.3    58  C58        -0.3307
    945  C3'       26.7190    7.8390   -0.4430 C.3    58  C58         0.1860
    946  O3'       26.0750    8.2740   -1.6330 O.3    58  C58        -0.3112
    947  C2'       27.7660    8.8540   -0.0010 C.3    58  C58         0.2309
    948  O2'       27.3940   10.1870   -0.2890 O.3    58  C58        -0.2156
    949  C1'       27.7960    8.6300    1.5110 C.3    58  C58         0.2420
    950  N1        28.8230    7.6730    1.9370 N.ar   58  C58        -0.2535
    951  C2        30.1490    8.0930    1.9920 C.ar   58  C58         0.3532
    952  O2        30.4180    9.2550    1.6440 O.2    58  C58        -0.2443
    953  N3        31.1030    7.2240    2.4170 N.ar   58  C58        -0.1739
    954  C4        30.7620    5.9820    2.7730 C.ar   58  C58         0.1759
    955  N4        31.7230    5.1600    3.1980 N.pl3  58  C58        -0.1070
    956  C5        29.4170    5.5270    2.7110 C.ar   58  C58         0.0566
    957  C6        28.4880    6.3950    2.2880 C.ar   58  C58         0.0850
    958  OP1       24.1750    3.8470    0.0470 O.2    58  C58        -0.5172
    959  OP2       26.3680    3.0370    1.0980 O.co2  58  C58        -0.4373
    960  P         26.5900    7.7480   -3.0570 P.3    59  U59         0.2141
    961  C5'       27.9630    9.9550   -3.4040 C.3    59  U59         0.1812
    962  O5'       27.9540    8.5390   -3.2680 O.3    59  U59        -0.3114
    963  C4'       29.3750   10.4580   -3.3360 C.3    59  U59         0.1773
    964  O4'       29.9290   10.0960   -2.0470 O.3    59  U59        -0.3307
    965  C3'       30.3070    9.8050   -4.3360 C.3    59  U59         0.1860
    966  O3'       30.2450   10.4820   -5.5770 O.3    59  U59        -0.3112
    967  C2'       31.6650    9.9350   -3.6600 C.3    59  U59         0.2309
    968  O2'       32.2410   11.2220   -3.8020 O.3    59  U59        -0.2156
    969  C1'       31.2840    9.7250   -2.1960 C.3    59  U59         0.2420
    970  N1        31.4340    8.3630   -1.6710 N.ar   59  U59        -0.2534
    971  C2        32.7080    7.8630   -1.5310 C.ar   59  U59         0.3546
    972  O2        33.6880    8.4520   -1.9320 O.2    59  U59        -0.2443
    973  N3        32.7890    6.6440   -0.9060 N.ar   59  U59        -0.1530
    974  C4        31.7420    5.8830   -0.4380 C.ar   59  U59         0.2846
    975  O4        31.9730    4.8270    0.1440 O.2    59  U59        -0.2650
    976  C5        30.4480    6.4440   -0.6750 C.ar   59  U59         0.0814
    977  C6        30.3430    7.6340   -1.2790 C.ar   59  U59         0.0870
    978  OP1       25.6320    8.2140   -4.0950 O.2    59  U59        -0.5172
    979  OP2       26.8840    6.3020   -2.9320 O.co2  59  U59        -0.4373
    980  P         30.1080    9.6320   -6.9220 P.3    60  G60         0.2141
    981  C5'       32.6690    9.8660   -7.3800 C.3    60  G60         0.1812
    982  O5'       31.5600    9.0220   -7.1210 O.3    60  G60        -0.3114
    983  C4'       33.9370    9.0870   -7.2180 C.3    60  G60         0.1773
    984  O4'       34.0380    8.6710   -5.8330 O.3    60  G60        -0.3307
    985  C3'       33.9890    7.7850   -7.9960 C.3    60  G60         0.1860
    986  O3'       34.5050    7.9960   -9.3010 O.3    60  G60        -0.3112
    987  C2'       35.0200    7.0030   -7.1970 C.3    60  G60         0.2309
    988  O2'       36.3330    7.4360   -7.4760 O.3    60  G60        -0.2156
    989  C1'       34.6720    7.4070   -5.7650 C.3    60  G60         0.2408
    990  N1        34.2870    3.5960   -2.4500 N.ar   60  G60        -0.1709
    991  C2        35.4050    4.2500   -2.8920 C.ar   60  G60         0.2606
    992  N2        36.5760    3.8420   -2.3830 N.pl3  60  G60        -0.0859
    993  N3        35.3800    5.2290   -3.7720 N.ar   60  G60        -0.1918
    994  C4        34.1280    5.4990   -4.1900 C.ar   60  G60         0.1723
    995  C5        32.9490    4.8960   -3.8170 C.ar   60  G60         0.1748
    996  C6        32.9880    3.8560   -2.8660 C.ar   60  G60         0.3023
    997  O6        32.0470    3.2000   -2.3990 O.2    60  G60        -0.2633
    998  N7        31.8740    5.4590   -4.4870 N.ar   60  G60        -0.2173
    999  C8        32.4080    6.3860   -5.2380 C.ar   60  G60         0.1817
   1000  N9        33.7710    6.4690   -5.0990 N.ar   60  G60        -0.2693
   1001  OP1       29.8160   10.5820   -8.0230 O.2    60  G60        -0.5172
   1002  OP2       29.1890    8.5000   -6.6660 O.co2  60  G60        -0.4373
   1003  P         33.5220    8.0300  -10.5750 P.3    61  A61         0.2141
   1004  C5'       31.3170    6.7990  -11.2920 C.3    61  A61         0.1812
   1005  O5'       32.3480    6.9780  -10.3070 O.3    61  A61        -0.3114
   1006  C4'       30.1870    5.9380  -10.7640 C.3    61  A61         0.1773
   1007  O4'       30.7330    4.6580  -10.3750 O.3    61  A61        -0.3307
   1008  C3'       29.5180    6.5150   -9.5220 C.3    61  A61         0.1860
   1009  O3'       28.0880    6.5190   -9.5080 O.3    61  A61        -0.3112
   1010  C2'       30.1520    5.8010   -8.3350 C.3    61  A61         0.2309
   1011  O2'       29.1720    5.4170   -7.3900 O.3    61  A61        -0.2156
   1012  C1'       30.6870    4.5140   -8.9730 C.3    61  A61         0.2408
   1013  N1        33.2450    1.8020   -5.4310 N.ar   61  A61        -0.2040
   1014  C2        31.9420    2.0130   -5.6340 C.ar   61  A61         0.2016
   1015  N3        31.3410    2.7260   -6.5840 N.ar   61  A61        -0.2048
   1016  C4        32.2440    3.2730   -7.4170 C.ar   61  A61         0.1692
   1017  C5        33.6140    3.1480   -7.3450 C.ar   61  A61         0.1518
   1018  C6        34.1310    2.3690   -6.2830 C.ar   61  A61         0.1919
   1019  N6        35.4410    2.1660   -6.0760 N.pl3  61  A61        -0.1054
   1020  N7        34.2220    3.8480   -8.3800 N.ar   61  A61        -0.2193
   1021  C8        33.2220    4.3750   -9.0380 C.ar   61  A61         0.1816
   1022  N9        31.9990    4.0760   -8.5070 N.ar   61  A61        -0.2693
   1023  OP1       34.3130    7.5070  -11.7090 O.2    61  A61        -0.5172
   1024  OP2       32.9200    9.3840  -10.6620 O.co2  61  A61        -0.4373
   1025  P         27.2540    6.8760  -10.8380 P.3    62  U62         0.2141
   1026  C5'       26.8500    4.3710  -11.4800 C.3    62  U62         0.1812
   1027  O5'       27.4700    5.6120  -11.7900 O.3    62  U62        -0.3114
   1028  C4'       26.9310    3.4010  -12.6450 C.3    62  U62         0.1773
   1029  O4'       26.1970    3.9040  -13.7920 O.3    62  U62        -0.3307
   1030  C3'       28.3470    3.1520  -13.1390 C.3    62  U62         0.1860
   1031  O3'       28.6250    1.7460  -13.1740 O.3    62  U62        -0.3112
   1032  C2'       28.5280    4.0440  -14.3750 C.3    62  U62         0.2309
   1033  O2'       29.2290    3.4010  -15.4170 O.3    62  U62        -0.2156
   1034  C1'       27.0810    4.2250  -14.8440 C.3    62  U62         0.2420
   1035  N1        26.6520    5.4920  -15.4560 N.ar   62  U62        -0.2534
   1036  C2        26.2870    5.4620  -16.8010 C.ar   62  U62         0.3546
   1037  O2        26.3490    4.4580  -17.4820 O.2    62  U62        -0.2443
   1038  N3        25.8400    6.6530  -17.3130 N.ar   62  U62        -0.1530
   1039  C4        25.7250    7.8480  -16.6450 C.ar   62  U62         0.2846
   1040  O4        25.2730    8.8270  -17.2380 O.2    62  U62        -0.2650
   1041  C5        26.1410    7.8090  -15.2710 C.ar   62  U62         0.0814
   1042  C6        26.5820    6.6600  -14.7370 C.ar   62  U62         0.0870
   1043  OP1       27.8830    8.0660  -11.4670 O.2    62  U62        -0.5172
   1044  OP2       25.8160    6.9230  -10.4560 O.co2  62  U62        -0.4373
   1045  P         30.0590    1.2060  -13.6380 P.3    63  C63         0.2141
   1046  C5'       31.7750    2.8190  -12.5520 C.3    63  C63         0.1812
   1047  O5'       30.9840    2.4950  -13.6640 O.3    63  C63        -0.3114
   1048  C4'       33.2050    2.3910  -12.7700 C.3    63  C63         0.1773
   1049  O4'       33.8700    2.6550  -11.5180 O.3    63  C63        -0.3307
   1050  C3'       33.4570    0.9130  -13.0750 C.3    63  C63         0.1860
   1051  O3'       33.6320    0.7320  -14.4850 O.3    63  C63        -0.3112
   1052  C2'       34.7570    0.6430  -12.3380 C.3    63  C63         0.2309
   1053  O2'       35.8890    1.0560  -13.0650 O.3    63  C63        -0.2156
   1054  C1'       34.5960    1.5260  -11.1060 C.3    63  C63         0.2420
   1055  N1        33.8480    0.9040  -10.0020 N.ar   63  C63        -0.2535
   1056  C2        34.5660    0.3140   -8.9590 C.ar   63  C63         0.3532
   1057  O2        35.8060    0.3100   -9.0120 O.2    63  C63        -0.2443
   1058  N3        33.8930   -0.2390   -7.9260 N.ar   63  C63        -0.1739
   1059  C4        32.5600   -0.2270   -7.9190 C.ar   63  C63         0.1759
   1060  N4        31.9440   -0.7810   -6.8780 N.pl3  63  C63        -0.1070
   1061  C5        31.8030    0.3550   -8.9800 C.ar   63  C63         0.0566
   1062  C6        32.4800    0.9060   -9.9880 C.ar   63  C63         0.0850
   1063  OP1       29.9580    0.6990  -15.0320 O.2    63  C63        -0.5172
   1064  OP2       30.5470    0.3090  -12.5720 O.co2  63  C63        -0.4373
   1065  P         34.0310   -0.7160  -15.0970 P.3    64  U64         0.2141
   1066  C5'       36.5180   -1.2500  -14.4250 C.3    64  U64         0.1812
   1067  O5'       35.1360   -1.2910  -14.1020 O.3    64  U64        -0.3114
   1068  C4'       37.2830   -2.2370  -13.5750 C.3    64  U64         0.1773
   1069  O4'       37.1450   -1.8890  -12.1700 O.3    64  U64        -0.3307
   1070  C3'       36.8150   -3.6800  -13.6540 C.3    64  U64         0.1860
   1071  O3'       37.4130   -4.3420  -14.7680 O.3    64  U64        -0.3112
   1072  C2'       37.3490   -4.2420  -12.3460 C.3    64  U64         0.2309
   1073  O2'       38.7290   -4.5090  -12.4460 O.3    64  U64        -0.2156
   1074  C1'       37.1110   -3.0720  -11.3870 C.3    64  U64         0.2420
   1075  N1        35.7960   -3.1450  -10.7330 N.ar   64  U64        -0.2534
   1076  C2        35.6120   -4.0870   -9.7430 C.ar   64  U64         0.3546
   1077  O2        36.4940   -4.8300   -9.3720 O.2    64  U64        -0.2443
   1078  N3        34.3470   -4.1230   -9.2050 N.ar   64  U64        -0.1530
   1079  C4        33.2710   -3.3250   -9.5580 C.ar   64  U64         0.2846
   1080  O4        32.1810   -3.4850   -9.0060 O.2    64  U64        -0.2650
   1081  C5        33.5530   -2.3710  -10.5790 C.ar   64  U64         0.0814
   1082  C6        34.7760   -2.3120  -11.1130 C.ar   64  U64         0.0870
   1083  OP1       34.6780   -0.4710  -16.4200 O.2    64  U64        -0.5172
   1084  OP2       32.8320   -1.6030  -15.0210 O.co2  64  U64        -0.4373
   1085  P         36.6240   -5.5310  -15.5220 P.3    65  G65         0.2141
   1086  C5'       37.8960   -7.5640  -14.4830 C.3    65  G65         0.1812
   1087  O5'       36.7260   -6.7540  -14.4990 O.3    65  G65        -0.3114
   1088  C4'       37.8390   -8.5900  -13.3750 C.3    65  G65         0.1773
   1089  O4'       37.6410   -7.9220  -12.1030 O.3    65  G65        -0.3307
   1090  C3'       36.7250   -9.6230  -13.4120 C.3    65  G65         0.1860
   1091  O3'       37.0370  -10.7040  -14.2790 O.3    65  G65        -0.3112
   1092  C2'       36.7160  -10.0940  -11.9660 C.3    65  G65         0.2309
   1093  O2'       37.7960  -10.9590  -11.6910 O.3    65  G65        -0.2156
   1094  C1'       36.9250   -8.7770  -11.2250 C.3    65  G65         0.2408
   1095  N1        32.9740   -8.6290   -8.0360 N.ar   65  G65        -0.1709
   1096  C2        34.0640   -9.4510   -8.0250 C.ar   65  G65         0.2606
   1097  N2        34.0940  -10.3490   -7.0360 N.pl3  65  G65        -0.0859
   1098  N3        35.0440   -9.3980   -8.9130 N.ar   65  G65        -0.1918
   1099  C4        34.8330   -8.4360   -9.8360 C.ar   65  G65         0.1723
   1100  C5        33.7750   -7.5600   -9.9370 C.ar   65  G65         0.1748
   1101  C6        32.7320   -7.6300   -8.9680 C.ar   65  G65         0.3023
   1102  O6        31.7010   -6.9390   -8.8760 O.2    65  G65        -0.2633
   1103  N7        33.9350   -6.7200  -11.0320 N.ar   65  G65        -0.2173
   1104  C8        35.0630   -7.0960  -11.5660 C.ar   65  G65         0.1817
   1105  N9        35.6610   -8.1300  -10.8910 N.ar   65  G65        -0.2693
   1106  OP1       37.4120   -5.9190  -16.7200 O.2    65  G65        -0.5172
   1107  OP2       35.2070   -5.1150  -15.6940 O.co2  65  G65        -0.4373
   1108  P         35.8560  -11.6470  -14.8340 P.3    66  G66         0.2141
   1109  C5'       35.9720  -13.0650  -12.6360 C.3    66  G66         0.1812
   1110  O5'       35.1980  -12.2610  -13.5180 O.3    66  G66        -0.3114
   1111  C4'       35.1240  -13.5980  -11.5050 C.3    66  G66         0.1773
   1112  O4'       34.7570  -12.5390  -10.5830 O.3    66  G66        -0.3307
   1113  C3'       33.7910  -14.2190  -11.8740 C.3    66  G66         0.1860
   1114  O3'       33.9660  -15.5250  -12.4000 O.3    66  G66        -0.3112
   1115  C2'       33.0880  -14.2240  -10.5210 C.3    66  G66         0.2309
   1116  O2'       33.5520  -15.2460   -9.6600 O.3    66  G66        -0.2156
   1117  C1'       33.5220  -12.8680   -9.9610 C.3    66  G66         0.2408
   1118  N1        29.2020  -10.6040   -8.5730 N.ar   66  G66        -0.1709
   1119  C2        29.8760  -11.6350   -7.9720 C.ar   66  G66         0.2606
   1120  N2        29.3210  -12.1280   -6.8520 N.pl3  66  G66        -0.0859
   1121  N3        31.0110  -12.1470   -8.4320 N.ar   66  G66        -0.1918
   1122  C4        31.4220  -11.5270   -9.5570 C.ar   66  G66         0.1723
   1123  C5        30.8220  -10.4870  -10.2360 C.ar   66  G66         0.1748
   1124  C6        29.6040   -9.9560   -9.7340 C.ar   66  G66         0.3023
   1125  O6        28.9150   -9.0480  -10.1970 O.2    66  G66        -0.2633
   1126  N7        31.5650  -10.1350  -11.3550 N.ar   66  G66        -0.2173
   1127  C8        32.5840  -10.9510  -11.3350 C.ar   66  G66         0.1817
   1128  N9        32.5550  -11.8230  -10.2720 N.ar   66  G66        -0.2693
   1129  OP1       36.4860  -12.7600  -15.5970 O.2    66  G66        -0.5172
   1130  OP2       34.8490  -10.7890  -15.5010 O.co2  66  G66        -0.4373
   1131  P         32.7160  -16.2930  -13.0550 P.3    67  A67         0.2141
   1132  C5'       30.3520  -16.7870  -12.0570 C.3    67  A67         0.1812
   1133  O5'       31.7030  -16.4330  -11.8420 O.3    67  A67        -0.3114
   1134  C4'       29.6390  -16.8520  -10.7380 C.3    67  A67         0.1773
   1135  O4'       29.9450  -15.6560   -9.9730 O.3    67  A67        -0.3307
   1136  C3'       28.1310  -16.8840  -10.8540 C.3    67  A67         0.1860
   1137  O3'       27.6940  -18.2270  -10.9410 O.3    67  A67        -0.3112
   1138  C2'       27.7170  -16.2530   -9.5420 C.3    67  A67         0.2309
   1139  O2'       27.9070  -17.1790   -8.5050 O.3    67  A67        -0.2156
   1140  C1'       28.7550  -15.1340   -9.4170 C.3    67  A67         0.2408
   1141  N1        25.3620  -11.3220  -10.1370 N.ar   67  A67        -0.2040
   1142  C2        25.4280  -12.3020   -9.2250 C.ar   67  A67         0.2016
   1143  N3        26.3450  -13.2560   -9.0780 N.ar   67  A67        -0.2048
   1144  C4        27.2950  -13.1430  -10.0200 C.ar   67  A67         0.1692
   1145  C5        27.3590  -12.1920  -11.0230 C.ar   67  A67         0.1518
   1146  C6        26.3330  -11.2420  -11.0680 C.ar   67  A67         0.1919
   1147  N6        26.2660  -10.2720  -11.9740 N.pl3  67  A67        -0.1054
   1148  N7        28.4800  -12.3850  -11.8110 N.ar   67  A67        -0.2193
   1149  C8        29.0620  -13.4310  -11.2780 C.ar   67  A67         0.1816
   1150  N9        28.3920  -13.9490  -10.1980 N.ar   67  A67        -0.2693
   1151  OP1       33.1680  -17.6680  -13.3980 O.3    67  A67        -0.4373
   1152  OP2       32.0800  -15.4350  -14.1000 O.co2  67  A67        -0.5172
   1153  P         26.7520  -18.6810  -12.1610 P.3    68  U68         0.2141
   1154  C5'       24.7850  -18.1500  -10.5200 C.3    68  U68         0.1812
   1155  O5'       25.3370  -18.0380  -11.8230 O.3    68  U68        -0.3114
   1156  C4'       23.6480  -17.1770  -10.3540 C.3    68  U68         0.1773
   1157  O4'       24.1410  -15.8140  -10.3020 O.3    68  U68        -0.3307
   1158  C3'       22.6610  -17.1620  -11.4950 C.3    68  U68         0.1860
   1159  O3'       21.7560  -18.2480  -11.3510 O.3    68  U68        -0.3112
   1160  C2'       21.9920  -15.8050  -11.3020 C.3    68  U68         0.2309
   1161  O2'       21.0080  -15.8300  -10.2870 O.3    68  U68        -0.2156
   1162  C1'       23.1710  -14.9400  -10.8430 C.3    68  U68         0.2420
   1163  N1        23.7980  -14.1820  -11.9310 N.ar   68  U68        -0.2534
   1164  C2        23.4000  -12.8730  -12.1220 C.ar   68  U68         0.3546
   1165  O2        22.5670  -12.3340  -11.4290 O.2    68  U68        -0.2443
   1166  N3        24.0180  -12.2200  -13.1580 N.ar   68  U68        -0.1530
   1167  C4        24.9740  -12.7330  -14.0000 C.ar   68  U68         0.2846
   1168  O4        25.4470  -12.0210  -14.8850 O.2    68  U68        -0.2650
   1169  C5        25.3320  -14.0920  -13.7370 C.ar   68  U68         0.0814
   1170  C6        24.7460  -14.7530  -12.7370 C.ar   68  U68         0.0870
   1171  OP1       26.6160  -20.1550  -12.0620 O.3    68  U68        -0.4373
   1172  OP2       27.2370  -18.0600  -13.4200 O.co2  68  U68        -0.5172
   1173  P         21.0420  -18.8620  -12.6460 P.3    69  A69         0.2141
   1174  C5'       19.9720  -17.6900  -14.7350 C.3    69  A69         0.1812
   1175  O5'       20.6710  -17.5780  -13.5090 O.3    69  A69        -0.3114
   1176  C4'       18.8470  -16.6850  -14.7740 C.3    69  A69         0.1773
   1177  O4'       17.8400  -17.0570  -13.8030 O.3    69  A69        -0.3307
   1178  C3'       19.2310  -15.2710  -14.3730 C.3    69  A69         0.1860
   1179  O3'       19.7690  -14.5480  -15.4700 O.3    69  A69        -0.3112
   1180  C2'       17.9030  -14.6690  -13.9230 C.3    69  A69         0.2309
   1181  O2'       17.1460  -14.1150  -14.9730 O.3    69  A69        -0.2156
   1182  C1'       17.1790  -15.8870  -13.3440 C.3    69  A69         0.2408
   1183  N1        15.3960  -13.5120   -9.1640 N.ar   69  A69        -0.2040
   1184  C2        15.3410  -13.2120  -10.4610 C.ar   69  A69         0.2016
   1185  N3        15.8470  -13.8700  -11.4980 N.ar   69  A69        -0.2048
   1186  C4        16.4840  -14.9790  -11.0930 C.ar   69  A69         0.1692
   1187  C5        16.6270  -15.4200   -9.7960 C.ar   69  A69         0.1518
   1188  C6        16.0430  -14.6310   -8.7880 C.ar   69  A69         0.1919
   1189  N6        16.0870  -14.9300   -7.4910 N.pl3  69  A69        -0.1054
   1190  N7        17.3480  -16.6060   -9.7580 N.ar   69  A69        -0.2193
   1191  C8        17.6230  -16.8480  -11.0150 C.ar   69  A69         0.1816
   1192  N9        17.1160  -15.9110  -11.8790 N.ar   69  A69        -0.2693
   1193  OP1       19.7780  -19.5010  -12.2000 O.3    69  A69        -0.4373
   1194  OP2       22.0610  -19.6640  -13.3550 O.co2  69  A69        -0.5172
   1195  P         21.0550  -13.6230  -15.2450 P.3    70  A70         0.2141
   1196  C5'       19.7270  -11.4130  -14.9230 C.3    70  A70         0.1812
   1197  O5'       20.5040  -12.4400  -14.3400 O.3    70  A70        -0.3114
   1198  C4'       19.2530  -10.4520  -13.8710 C.3    70  A70         0.1773
   1199  O4'       18.3890  -11.1480  -12.9410 O.3    70  A70        -0.3307
   1200  C3'       20.3080   -9.8200  -12.9870 C.3    70  A70         0.1860
   1201  O3'       20.9040   -8.7170  -13.6670 O.3    70  A70        -0.3112
   1202  C2'       19.4590   -9.3650  -11.8040 C.3    70  A70         0.2309
   1203  O2'       18.7260   -8.1920  -12.0970 O.3    70  A70        -0.2156
   1204  C1'       18.4660  -10.5230  -11.6760 C.3    70  A70         0.2408
   1205  N1        18.1790  -11.9890   -6.7700 N.ar   70  A70        -0.2040
   1206  C2        17.7420  -10.9000   -7.4040 C.ar   70  A70         0.2016
   1207  N3        17.8610  -10.5720   -8.6870 N.ar   70  A70        -0.2048
   1208  C4        18.5260  -11.5250   -9.3590 C.ar   70  A70         0.1692
   1209  C5        19.0370  -12.6980   -8.8440 C.ar   70  A70         0.1518
   1210  C6        18.8460  -12.9280   -7.4820 C.ar   70  A70         0.1919
   1211  N6        19.2840  -14.0200   -6.8580 N.pl3  70  A70        -0.1054
   1212  N7        19.6600  -13.4410   -9.8340 N.ar   70  A70        -0.2193
   1213  C8        19.5090  -12.7120  -10.9120 C.ar   70  A70         0.1816
   1214  N9        18.8260  -11.5420  -10.6960 N.ar   70  A70        -0.2693
   1215  OP1       21.4530  -13.0170  -16.5430 O.2    70  A70        -0.5172
   1216  OP2       22.0430  -14.4200  -14.4650 O.co2  70  A70        -0.4373
   1217  P         22.4600   -8.3600  -13.4300 P.3    71  U71         0.2141
   1218  C5'       21.7640   -6.2380  -12.0960 C.3    71  U71         0.1812
   1219  O5'       22.4500   -7.4820  -12.1040 O.3    71  U71        -0.3114
   1220  C4'       21.4460   -5.8050  -10.6870 C.3    71  U71         0.1773
   1221  O4'       20.5150   -6.7280  -10.0680 O.3    71  U71        -0.3307
   1222  C3'       22.6120   -5.7270   -9.7250 C.3    71  U71         0.1860
   1223  O3'       23.2680   -4.4830   -9.9370 O.3    71  U71        -0.3112
   1224  C2'       21.8990   -5.7960   -8.3750 C.3    71  U71         0.2309
   1225  O2'       21.3370   -4.5640   -7.9790 O.3    71  U71        -0.2156
   1226  C1'       20.7570   -6.7720   -8.6760 C.3    71  U71         0.2420
   1227  N1        21.0610   -8.1590   -8.3070 N.ar   71  U71        -0.2534
   1228  C2        20.7790   -8.5440   -7.0170 C.ar   71  U71         0.3546
   1229  O2        20.2780   -7.7850   -6.2010 O.2    71  U71        -0.2443
   1230  N3        21.1040   -9.8430   -6.7140 N.ar   71  U71        -0.1530
   1231  C4        21.6720  -10.7680   -7.5580 C.ar   71  U71         0.2846
   1232  O4        21.9380  -11.8920   -7.1330 O.2    71  U71        -0.2650
   1233  C5        21.9210  -10.2920   -8.8820 C.ar   71  U71         0.0814
   1234  C6        21.6130   -9.0350   -9.2030 C.ar   71  U71         0.0870
   1235  OP1       22.8440   -7.4760  -14.5520 O.2    71  U71        -0.5172
   1236  OP2       23.2510   -9.5890  -13.1620 O.co2  71  U71        -0.4373
   1237  P         24.7430   -4.2360   -9.3530 P.3    72  G72         0.2141
   1238  C5'       25.5750   -3.8130   -6.9090 C.3    72  G72         0.1812
   1239  O5'       24.5080   -4.1230   -7.7850 O.3    72  G72        -0.3114
   1240  C4'       25.4610   -4.6320   -5.6490 C.3    72  G72         0.1773
   1241  O4'       26.5750   -4.2870   -4.7910 O.3    72  G72        -0.3307
   1242  C3'       24.2070   -4.3420   -4.8340 C.3    72  G72         0.1860
   1243  O3'       23.1560   -5.3230   -4.7430 O.3    72  G72        -0.3112
   1244  C2'       24.5990   -3.3360   -3.7600 C.3    72  G72         0.2309
   1245  O2'       24.0160   -3.6140   -2.5000 O.3    72  G72        -0.2156
   1246  C1'       26.1210   -3.5260   -3.6880 C.3    72  G72         0.2408
   1247  N1        30.8150   -1.6660   -3.4360 N.ar   72  G72        -0.1709
   1248  C2        30.3930   -2.9630   -3.6210 C.ar   72  G72         0.2606
   1249  N2        31.3570   -3.9020   -3.7010 N.pl3  72  G72        -0.0859
   1250  N3        29.1200   -3.3150   -3.7140 N.ar   72  G72        -0.1918
   1251  C4        28.2910   -2.2550   -3.5960 C.ar   72  G72         0.1723
   1252  C5        28.6080   -0.9270   -3.4090 C.ar   72  G72         0.1748
   1253  C6        29.9800   -0.5590   -3.3170 C.ar   72  G72         0.3023
   1254  O6        30.4720    0.5650   -3.1500 O.2    72  G72        -0.2633
   1255  N7        27.4580   -0.1540   -3.3370 N.ar   72  G72        -0.2173
   1256  C8        26.4820   -1.0110   -3.4760 C.ar   72  G72         0.1817
   1257  N9        26.9200   -2.3050   -3.6100 N.ar   72  G72        -0.2693
   1258  OP1       25.1970   -2.9220   -9.8550 O.2    72  G72        -0.5172
   1259  OP2       25.5670   -5.4410   -9.6050 O.co2  72  G72        -0.4373
   1260  P         22.8380   -6.0850   -3.3500 P.3    73  C73         0.2141
   1261  C5'       22.4900   -8.6490   -2.8780 C.3    73  C73         0.1812
   1262  O5'       22.8820   -7.6210   -3.7730 O.3    73  C73        -0.3114
   1263  C4'       23.4530   -9.8060   -2.9670 C.3    73  C73         0.1773
   1264  O4'       23.4820  -10.3060   -4.3310 O.3    73  C73        -0.3307
   1265  C3'       24.8970   -9.4490   -2.6670 C.3    73  C73         0.1860
   1266  O3'       25.1240   -9.4890   -1.2670 O.3    73  C73        -0.3112
   1267  C2'       25.6640  -10.5320   -3.4180 C.3    73  C73         0.2309
   1268  O2'       25.7430  -11.7480   -2.7240 O.3    73  C73        -0.2156
   1269  C1'       24.7970  -10.7210   -4.6610 C.3    73  C73         0.2420
   1270  N1        25.2690   -9.9110   -5.7890 N.ar   73  C73        -0.2535
   1271  C2        26.2360  -10.4410   -6.6320 C.ar   73  C73         0.3532
   1272  O2        26.6680  -11.5660   -6.3950 O.2    73  C73        -0.2443
   1273  N3        26.6820   -9.7130   -7.6790 N.ar   73  C73        -0.1739
   1274  C4        26.2000   -8.4900   -7.8840 C.ar   73  C73         0.1759
   1275  N4        26.6730   -7.7960   -8.9080 N.pl3  73  C73        -0.1070
   1276  C5        25.2080   -7.9210   -7.0360 C.ar   73  C73         0.0566
   1277  C6        24.7740   -8.6600   -6.0090 C.ar   73  C73         0.0850
   1278  OP1       21.4380   -5.7800   -2.9810 O.2    73  C73        -0.5172
   1279  OP2       23.9180   -5.8620   -2.3600 O.co2  73  C73        -0.4373
   1280  P         26.5160   -8.9590   -0.6650 P.3    74  C74         0.2141
   1281  C5'       27.8200  -11.2300   -0.8000 C.3    74  C74         0.1812
   1282  O5'       27.6080   -9.9210   -1.3100 O.3    74  C74        -0.3114
   1283  C4'       29.0790  -11.8210   -1.3870 C.3    74  C74         0.1773
   1284  O4'       28.9270  -11.9890   -2.8240 O.3    74  C74        -0.3307
   1285  C3'       30.3150  -10.9510   -1.2590 C.3    74  C74         0.1860
   1286  O3'       30.9200  -11.1050    0.0070 O.3    74  C74        -0.3112
   1287  C2'       31.2050  -11.4900   -2.3660 C.3    74  C74         0.2309
   1288  O2'       31.8780  -12.6760   -1.9850 O.3    74  C74        -0.2156
   1289  C1'       30.1750  -11.7660   -3.4650 C.3    74  C74         0.2420
   1290  N1        30.0200  -10.6190   -4.3640 N.ar   74  C74        -0.2535
   1291  C2        31.0780  -10.2760   -5.2100 C.ar   74  C74         0.3532
   1292  O2        32.1200  -10.9550   -5.1760 O.2    74  C74        -0.2443
   1293  N3        30.9440   -9.2140   -6.0400 N.ar   74  C74        -0.1739
   1294  C4        29.8140   -8.5070   -6.0410 C.ar   74  C74         0.1759
   1295  N4        29.7250   -7.4750   -6.8750 N.pl3  74  C74        -0.1070
   1296  C5        28.7220   -8.8330   -5.1860 C.ar   74  C74         0.0566
   1297  C6        28.8650   -9.8890   -4.3740 C.ar   74  C74         0.0850
   1298  OP1       26.5040   -9.2440    0.7900 O.3    74  C74        -0.4373
   1299  OP2       26.7480   -7.5690   -1.1290 O.co2  74  C74        -0.5172
   1300  P         31.8130   -9.9210    0.5920 P.3    75  A75         0.2141
   1301  C5'       34.0620  -10.9320   -0.2970 C.3    75  A75         0.1812
   1302  O5'       33.0810   -9.9020   -0.3700 O.3    75  A75        -0.3114
   1303  C4'       35.1650  -10.6680   -1.2890 C.3    75  A75         0.1773
   1304  O4'       34.6280  -10.7630   -2.6350 O.3    75  A75        -0.3307
   1305  C3'       35.7600   -9.2720   -1.2370 C.3    75  A75         0.1860
   1306  O3'       36.7580   -9.1660   -0.2410 O.3    75  A75        -0.3112
   1307  C2'       36.3480   -9.1340   -2.6290 C.3    75  A75         0.2309
   1308  O2'       37.5510   -9.8530   -2.7820 O.3    75  A75        -0.2156
   1309  C1'       35.2580   -9.7970   -3.4640 C.3    75  A75         0.2408
   1310  N1        34.1770   -6.0070   -6.7110 N.ar   75  A75        -0.2040
   1311  C2        35.2460   -6.8020   -6.5730 C.ar   75  A75         0.2016
   1312  N3        35.4590   -7.7800   -5.6960 N.ar   75  A75        -0.2048
   1313  C4        34.4020   -7.9160   -4.8790 C.ar   75  A75         0.1692
   1314  C5        33.2360   -7.1790   -4.8970 C.ar   75  A75         0.1518
   1315  C6        33.1330   -6.1790   -5.8690 C.ar   75  A75         0.1919
   1316  N6        32.0650   -5.4000   -6.0050 N.pl3  75  A75        -0.1054
   1317  N7        32.3660   -7.6080   -3.9030 N.ar   75  A75        -0.2193
   1318  C8        33.0220   -8.5780   -3.3160 C.ar   75  A75         0.1816
   1319  N9        34.2590   -8.8150   -3.8590 N.ar   75  A75        -0.2693
   1320  OP1       32.2350  -10.3510    1.9510 O.3    75  A75        -0.4373
   1321  OP2       31.0810   -8.6360    0.4100 O.co2  75  A75        -0.5172
   1322  P         37.1360   -7.7230    0.3400 P.3    76  G76         0.2141
   1323  C5'       38.9580   -7.6380   -1.5330 C.3    76  G76         0.1812
   1324  O5'       37.8740   -7.0040   -0.8730 O.3    76  G76        -0.3114
   1325  C4'       39.3410   -6.8720   -2.7720 C.3    76  G76         0.1773
   1326  O4'       38.2450   -6.8700   -3.7250 O.3    76  G76        -0.3307
   1327  C3'       39.6580   -5.4020   -2.5660 C.3    76  G76         0.1860
   1328  O3'       40.9940   -5.2530   -2.1070 O.3    76  G76        -0.3112
   1329  C2'       39.4650   -4.8390   -3.9730 C.3    76  G76         0.2309
   1330  O2'       40.5620   -5.0340   -4.8420 O.3    76  G76        -0.2156
   1331  C1'       38.2740   -5.6620   -4.4720 C.3    76  G76         0.2408
   1332  N1        35.1450   -2.1520   -6.3210 N.ar   76  G76        -0.1709
   1333  C2        36.3240   -2.6210   -6.8290 C.ar   76  G76         0.2606
   1334  N2        36.7230   -2.0800   -7.9840 N.pl3  76  G76        -0.0859
   1335  N3        37.0560   -3.5520   -6.2500 N.ar   76  G76        -0.1918
   1336  C4        36.4970   -3.9900   -5.1030 C.ar   76  G76         0.1723
   1337  C5        35.3220   -3.5900   -4.5120 C.ar   76  G76         0.1748
   1338  C6        34.5540   -2.5870   -5.1410 C.ar   76  G76         0.3023
   1339  O6        33.4870   -2.0930   -4.7720 O.2    76  G76        -0.2633
   1340  N7        35.0970   -4.2890   -3.3360 N.ar   76  G76        -0.2173
   1341  C8        36.1240   -5.0870   -3.2370 C.ar   76  G76         0.1817
   1342  N9        37.0140   -4.9510   -4.2750 N.ar   76  G76        -0.2693
   1343  OP1       38.1030   -7.9430    1.4370 O.3    76  G76        -0.4373
   1344  OP2       35.8820   -6.9870    0.6060 O.co2  76  G76        -0.5172
   1345  P         41.3520   -4.1020   -1.0470 P.3    77  C77         0.2141
   1346  C5'       41.4790   -2.2730   -2.9290 C.3    77  C77         0.1812
   1347  O5'       40.8470   -2.7640   -1.7480 O.3    77  C77        -0.3114
   1348  C4'       40.7150   -1.0900   -3.4840 C.3    77  C77         0.1773
   1349  O4'       39.4030   -1.5350   -3.9000 O.3    77  C77        -0.3307
   1350  C3'       40.4500    0.0480   -2.5070 C.3    77  C77         0.1860
   1351  O3'       41.5530    0.9610   -2.4990 O.3    77  C77        -0.3112
   1352  C2'       39.1960    0.6950   -3.0860 C.3    77  C77         0.2309
   1353  O2'       39.4820    1.6110   -4.1190 O.3    77  C77        -0.2156
   1354  C1'       38.4590   -0.5080   -3.6750 C.3    77  C77         0.2420
   1355  N1        37.3670   -1.0410   -2.8440 N.ar   77  C77        -0.2535
   1356  C2        36.0840   -0.5410   -3.0390 C.ar   77  C77         0.3532
   1357  O2        35.9150    0.3560   -3.8740 O.2    77  C77        -0.2443
   1358  N3        35.0570   -1.0450   -2.3180 N.ar   77  C77        -0.1739
   1359  C4        35.2800   -2.0060   -1.4260 C.ar   77  C77         0.1759
   1360  N4        34.2360   -2.4790   -0.7520 N.pl3  77  C77        -0.1070
   1361  C5        36.5850   -2.5250   -1.1890 C.ar   77  C77         0.0566
   1362  C6        37.5920   -2.0160   -1.9130 C.ar   77  C77         0.0850
   1363  OP1       42.8270   -4.0390   -0.9770 O.2    77  C77        -0.5172
   1364  OP2       40.5770   -4.3310    0.1940 O.co2  77  C77        -0.4373
   1365  P         41.7350    2.0090   -1.2840 P.3    78  G78         0.2141
   1366  C5'       41.8050    1.4760    1.2810 C.3    78  G78         0.1812
   1367  O5'       41.2590    1.2000   -0.0010 O.3    78  G78        -0.3114
   1368  C4'       40.9450    0.8430    2.3450 C.3    78  G78         0.1773
   1369  O4'       39.6590    1.5080    2.3430 O.3    78  G78        -0.3307
   1370  C3'       40.6530   -0.6340    2.1230 C.3    78  G78         0.1860
   1371  O3'       41.7360   -1.4560    2.6100 O.3    78  G78        -0.3112
   1372  C2'       39.2500   -0.8310    2.6990 C.3    78  G78         0.2309
   1373  O2'       39.2030   -1.1480    4.0720 O.3    78  G78        -0.2156
   1374  C1'       38.6270    0.5580    2.5110 C.3    78  G78         0.2408
   1375  N1        33.7370    0.2670    1.2700 N.ar   78  G78        -0.1709
   1376  C2        34.3710   -0.1260    2.4160 C.ar   78  G78         0.2606
   1377  N2        33.5960   -0.6350    3.3780 N.pl3  78  G78        -0.0859
   1378  N3        35.6680   -0.0300    2.6080 N.ar   78  G78        -0.1918
   1379  C4        36.2960    0.4970    1.5420 C.ar   78  G78         0.1723
   1380  C5        35.7570    0.9200    0.3480 C.ar   78  G78         0.1748
   1381  C6        34.3600    0.8160    0.1610 C.ar   78  G78         0.3023
   1382  O6        33.6850    1.1430   -0.8180 O.2    78  G78        -0.2633
   1383  N7        36.7470    1.3990   -0.4960 N.ar   78  G78        -0.2173
   1384  C8        37.8480    1.2690    0.1920 C.ar   78  G78         0.1817
   1385  N9        37.6400    0.7490    1.4480 N.ar   78  G78        -0.2693
   1386  OP1       40.7980    3.1410   -1.5060 O.2    78  G78        -0.5172
   1387  OP2       43.1810    2.2850   -1.1230 O.co2  78  G78        -0.4373
   1388  P         41.9130   -1.7890    4.1950 P.3    79  U79         0.2141
   1389  C5'       41.1240   -0.2670    6.1990 C.3    79  U79         0.1811
   1390  O5'       41.7960   -0.3830    4.9410 O.3    79  U79        -0.3114
   1391  C4'       41.7480    0.8300    7.0460 C.3    79  U79         0.1752
   1392  O4'       43.0630    0.4080    7.5020 O.3    79  U79        -0.3483
   1393  C3'       41.9780    2.1830    6.3760 C.3    79  U79         0.1839
   1394  O3'       40.8030    2.9940    6.4250 O.3    79  U79        -0.3113
   1395  C2'       43.1100    2.7750    7.2110 C.3    79  U79         0.2112
   1396  O2'       42.6540    3.3980    8.4000 O.3    79  U79        -0.2177
   1397  C1'       43.9370    1.5280    7.5420 C.3    79  U79         0.1776
   1398  OP1       43.3250   -2.2170    4.3280 O.2    79  U79        -0.5172
   1399  OP2       40.8430   -2.6910    4.6940 O.co2  79  U79        -0.4373
   1400  P         40.8970    4.5700    6.0960 P.3    80  A80         0.2141
   1401  C5'       41.8770    4.2300    3.7070 C.3    80  A80         0.1812
   1402  O5'       42.0720    4.6890    5.0290 O.3    80  A80        -0.3114
   1403  C4'       41.9450    5.3730    2.7250 C.3    80  A80         0.1773
   1404  O4'       41.2840    4.8990    1.5250 O.3    80  A80        -0.3307
   1405  C3'       41.2090    6.6530    3.1260 C.3    80  A80         0.1860
   1406  O3'       42.1260    7.6040    3.6930 O.3    80  A80        -0.3112
   1407  C2'       40.6600    7.1570    1.7940 C.3    80  A80         0.2309
   1408  O2'       41.6130    7.8600    1.0210 O.3    80  A80        -0.2156
   1409  C1'       40.3260    5.8440    1.0910 C.3    80  A80         0.2408
   1410  N1        35.3650    5.9110   -0.2110 N.ar   80  A80        -0.2040
   1411  C2        36.4360    6.5400   -0.7030 C.ar   80  A80         0.2016
   1412  N3        37.7040    6.4740   -0.3130 N.ar   80  A80        -0.2048
   1413  C4        37.8360    5.6340    0.7260 C.ar   80  A80         0.1692
   1414  C5        36.8310    4.9090    1.3410 C.ar   80  A80         0.1518
   1415  C6        35.5320    5.0700    0.8340 C.ar   80  A80         0.1919
   1416  N6        34.4620    4.4440    1.3230 N.pl3  80  A80        -0.1054
   1417  N7        37.3410    4.1410    2.3780 N.ar   80  A80        -0.2193
   1418  C8        38.6220    4.4180    2.3720 C.ar   80  A80         0.1816
   1419  N9        38.9910    5.3160    1.3940 N.ar   80  A80        -0.2693
   1420  OP1       41.2980    5.2610    7.3530 O.3    80  A80        -0.4373
   1421  OP2       39.6490    4.9810    5.4050 O.co2  80  A80        -0.5172
   1422  P         41.5940    8.7750    4.6770 P.3    81  G81         0.2141
   1423  C5'       41.0840   10.7110    2.9960 C.3    81  G81         0.1812
   1424  O5'       40.5980    9.6370    3.7810 O.3    81  G81        -0.3114
   1425  C4'       39.9400   11.5480    2.4840 C.3    81  G81         0.1773
   1426  O4'       39.1910   10.8050    1.4780 O.3    81  G81        -0.3307
   1427  C3'       38.8800   11.9280    3.5050 C.3    81  G81         0.1860
   1428  O3'       39.2620   13.0180    4.3310 O.3    81  G81        -0.3112
   1429  C2'       37.7080   12.2620    2.5920 C.3    81  G81         0.2309
   1430  O2'       37.8670   13.4980    1.9200 O.3    81  G81        -0.2156
   1431  C1'       37.8020   11.1090    1.5900 C.3    81  G81         0.2408
   1432  N1        33.3420    8.7680    2.2330 N.ar   81  G81        -0.1709
   1433  C2        33.6190    9.9490    1.5930 C.ar   81  G81         0.2606
   1434  N2        32.5750   10.6000    1.0740 N.pl3  81  G81        -0.0859
   1435  N3        34.8310   10.4550    1.4720 N.ar   81  G81        -0.1918
   1436  C4        35.7630    9.6710    2.0520 C.ar   81  G81         0.1723
   1437  C5        35.5900    8.4730    2.7160 C.ar   81  G81         0.1748
   1438  C6        34.2870    7.9430    2.8400 C.ar   81  G81         0.3023
   1439  O6        33.9300    6.8930    3.4020 O.2    81  G81        -0.2633
   1440  N7        36.8060    7.9790    3.1700 N.ar   81  G81        -0.2173
   1441  C8        37.6790    8.8660    2.7820 C.ar   81  G81         0.1817
   1442  N9        37.1130    9.9270    2.1090 N.ar   81  G81        -0.2693
   1443  OP1       42.7580    9.6500    4.9670 O.2    81  G81        -0.5172
   1444  OP2       40.8390    8.1560    5.8090 O.co2  81  G81        -0.4373
   1445  P         38.4190   13.3350    5.6610 P.3    82  G82         0.2141
   1446  C5'       35.8950   13.9700    5.9030 C.3    82  G82         0.1812
   1447  O5'       37.0540   13.9120    5.0900 O.3    82  G82        -0.3114
   1448  C4'       34.6640   14.0140    5.0390 C.3    82  G82         0.1773
   1449  O4'       34.6780   12.8920    4.1200 O.3    82  G82        -0.3307
   1450  C3'       33.3730   13.8580    5.8120 C.3    82  G82         0.1860
   1451  O3'       32.9610   15.1190    6.3000 O.3    82  G82        -0.3112
   1452  C2'       32.4450   13.2830    4.7600 C.3    82  G82         0.2309
   1453  O2'       32.0270   14.2590    3.8350 O.3    82  G82        -0.2156
   1454  C1'       33.3910   12.3120    4.0590 C.3    82  G82         0.2408
   1455  N1        30.8050    8.2750    5.7030 N.ar   82  G82        -0.1709
   1456  C2        30.3430    9.4190    5.0980 C.ar   82  G82         0.2606
   1457  N2        29.0200    9.4920    4.8920 N.pl3  82  G82        -0.0859
   1458  N3        31.1220   10.4200    4.7220 N.ar   82  G82        -0.1918
   1459  C4        32.4210   10.1830    5.0040 C.ar   82  G82         0.1723
   1460  C5        32.9850    9.0790    5.6070 C.ar   82  G82         0.1748
   1461  C6        32.1400    8.0100    6.0010 C.ar   82  G82         0.3023
   1462  O6        32.4510    6.9440    6.5440 O.2    82  G82        -0.2633
   1463  N7        34.3590    9.2260    5.7160 N.ar   82  G82        -0.2173
   1464  C8        34.6000   10.3930    5.1860 C.ar   82  G82         0.1817
   1465  N9        33.4690   11.0200    4.7260 N.ar   82  G82        -0.2693
   1466  OP1       39.0810   14.4410    6.3990 O.3    82  G82        -0.4373
   1467  OP2       38.1530   12.0460    6.3560 O.co2  82  G82        -0.5172
   1468  P         32.7980   15.3290    7.8790 P.3    83  G83         0.2141
   1469  C5'       30.3840   14.3340    7.5860 C.3    83  G83         0.1812
   1470  O5'       31.6430   14.2990    8.2610 O.3    83  G83        -0.3114
   1471  C4'       29.5580   13.1160    7.9380 C.3    83  G83         0.1773
   1472  O4'       30.0900   11.9280    7.2950 O.3    83  G83        -0.3307
   1473  C3'       29.5300   12.7700    9.4150 C.3    83  G83         0.1860
   1474  O3'       28.5480   13.5430   10.0790 O.3    83  G83        -0.3112
   1475  C2'       29.1690   11.2920    9.3930 C.3    83  G83         0.2309
   1476  O2'       27.7820   11.0640    9.2390 O.3    83  G83        -0.2156
   1477  C1'       29.9420   10.8130    8.1610 C.3    83  G83         0.2408
   1478  N1        32.8190    6.8630    9.5950 N.ar   83  G83        -0.1709
   1479  C2        31.4670    6.9020    9.3500 C.ar   83  G83         0.2606
   1480  N2        30.8100    5.7410    9.5150 N.pl3  83  G83        -0.0859
   1481  N3        30.8140    7.9950    8.9750 N.ar   83  G83        -0.1918
   1482  C4        31.6400    9.0650    8.8710 C.ar   83  G83         0.1723
   1483  C5        33.0020    9.1260    9.0960 C.ar   83  G83         0.1748
   1484  C6        33.6870    7.9480    9.4910 C.ar   83  G83         0.3023
   1485  O6        34.8920    7.8010    9.7330 O.2    83  G83        -0.2633
   1486  N7        33.4810   10.4090    8.8730 N.ar   83  G83        -0.2173
   1487  C8        32.4270   11.0920    8.5220 C.ar   83  G83         0.1817
   1488  N9        31.2780   10.3410    8.5010 N.ar   83  G83        -0.2693
   1489  OP1       32.2790   16.7070    8.0910 O.2    83  G83        -0.5172
   1490  OP2       34.0730   14.9050    8.5250 O.co2  83  G83        -0.4373
   1491  P         29.0030   14.6280   11.1640 P.3    84  A84         0.2141
   1492  C5'       26.6980   14.8430   12.3970 C.3    84  A84         0.1812
   1493  O5'       28.0340   14.3450   12.3960 O.3    84  A84        -0.3114
   1494  C4'       25.8230   14.0060   13.2980 C.3    84  A84         0.1773
   1495  O4'       25.5940   12.7150   12.6830 O.3    84  A84        -0.3307
   1496  C3'       26.3990   13.6890   14.6720 C.3    84  A84         0.1860
   1497  O3'       26.1220   14.7440   15.5940 O.3    84  A84        -0.3112
   1498  C2'       25.6530   12.4130   15.0490 C.3    84  A84         0.2309
   1499  O2'       24.3650   12.6640   15.5710 O.3    84  A84        -0.2156
   1500  C1'       25.5170   11.7200   13.6910 C.3    84  A84         0.2408
   1501  N1        26.4570    6.8000   12.6290 N.ar   84  A84        -0.2040
   1502  C2        25.3330    7.4510   12.9150 C.ar   84  A84         0.2016
   1503  N3        25.1600    8.7250   13.2110 N.ar   84  A84        -0.2048
   1504  C4        26.3340    9.3780   13.1940 C.ar   84  A84         0.1692
   1505  C5        27.5720    8.8400   12.9250 C.ar   84  A84         0.1518
   1506  C6        27.6180    7.4810   12.6300 C.ar   84  A84         0.1919
   1507  N6        28.7400    6.8260   12.3530 N.pl3  84  A84        -0.1054
   1508  N7        28.5590    9.8100   13.0070 N.ar   84  A84        -0.2193
   1509  C8        27.9030   10.9030   13.3120 C.ar   84  A84         0.1816
   1510  N9        26.5490   10.7180   13.4220 N.ar   84  A84        -0.2693
   1511  OP1       28.6590   15.9490   10.5850 O.2    84  A84        -0.5172
   1512  OP2       30.4080   14.3360   11.5600 O.co2  84  A84        -0.4373
   1513  P         27.1850   15.1050   16.7500 P.3    85  A85         0.2141
   1514  C5'       28.1930   13.6820   18.7080 C.3    85  A85         0.1812
   1515  O5'       27.2900   13.7680   17.6080 O.3    85  A85        -0.3114
   1516  C4'       27.5610   14.2930   19.9340 C.3    85  A85         0.1773
   1517  O4'       26.3920   13.5140   20.3010 O.3    85  A85        -0.3307
   1518  C3'       28.4840   14.2610   21.1430 C.3    85  A85         0.1860
   1519  O3'       28.7260   15.5780   21.6770 O.3    85  A85        -0.3112
   1520  C2'       28.0680   13.0310   21.9640 C.3    85  A85         0.2309
   1521  O2'       28.0490   13.2250   23.3590 O.3    85  A85        -0.2156
   1522  C1'       26.6170   12.8440   21.5170 C.3    85  A85         0.2408
   1523  N1        22.2710   10.3330   22.3850 N.ar   85  A85        -0.2040
   1524  C2        22.6180   11.6250   22.4740 C.ar   85  A85         0.2016
   1525  N3        23.7860   12.2030   22.2120 N.ar   85  A85        -0.2048
   1526  C4        24.6900   11.2900   21.8110 C.ar   85  A85         0.1692
   1527  C5        24.4900    9.9320   21.6700 C.ar   85  A85         0.1518
   1528  C6        23.2000    9.4430   21.9770 C.ar   85  A85         0.1919
   1529  N6        22.8470    8.1630   21.8860 N.pl3  85  A85        -0.1054
   1530  N7        25.6550    9.3100   21.2400 N.ar   85  A85        -0.2193
   1531  C8        26.5180   10.2930   21.1300 C.ar   85  A85         0.1816
   1532  N9        26.0030   11.5160   21.4690 N.ar   85  A85        -0.2693
   1533  OP1       26.5560   16.1460   17.6100 O.3    85  A85        -0.4373
   1534  OP2       28.5210   15.3610   16.1370 O.co2  85  A85        -0.5172
   1535  P         29.2000   15.7810   23.2040 P.3    86  G86         0.2141
   1536  C5'       27.8060   15.3010   25.3650 C.3    86  G86         0.1812
   1537  O5'       27.8410   15.8030   24.0380 O.3    86  G86        -0.3114
   1538  C4'       26.4210   15.4160   25.9380 C.3    86  G86         0.1773
   1539  O4'       25.4700   14.7720   25.0490 O.3    86  G86        -0.3307
   1540  C3'       26.2530   14.6910   27.2600 C.3    86  G86         0.1860
   1541  O3'       26.6540   15.5070   28.3490 O.3    86  G86        -0.3112
   1542  C2'       24.7620   14.4000   27.2820 C.3    86  G86         0.2309
   1543  O2'       24.0120   15.5230   27.6950 O.3    86  G86        -0.2156
   1544  C1'       24.5080   14.0560   25.8110 C.3    86  G86         0.2408
   1545  N1        22.4880    9.3870   25.9870 N.ar   86  G86        -0.1709
   1546  C2        21.9450   10.5850   26.3890 C.ar   86  G86         0.2606
   1547  N2        20.7130   10.5320   26.9030 N.pl3  86  G86        -0.0859
   1548  N3        22.5690   11.7500   26.2950 N.ar   86  G86        -0.1918
   1549  C4        23.8010   11.6180   25.7600 C.ar   86  G86         0.1723
   1550  C5        24.4350   10.4690   25.3320 C.ar   86  G86         0.1748
   1551  C6        23.7550    9.2300   25.4340 C.ar   86  G86         0.3023
   1552  O6        24.1510    8.1060   25.1040 O.2    86  G86        -0.2633
   1553  N7        25.7030   10.7560   24.8520 N.ar   86  G86        -0.2173
   1554  C8        25.8140   12.0490   24.9880 C.ar   86  G86         0.1817
   1555  N9        24.6960   12.6350   25.5320 N.ar   86  G86        -0.2693
   1556  OP1       29.7900   17.1450   23.2960 O.2    86  G86        -0.5172
   1557  OP2       30.0010   14.6000   23.6430 O.co2  86  G86        -0.4373
   1558  P         27.0680   14.8210   29.7390 P.3    87  U87         0.2141
   1559  C5'       24.6880   14.8560   30.8540 C.3    87  U87         0.1812
   1560  O5'       25.7220   14.1100   30.2120 O.3    87  U87        -0.3114
   1561  C4'       23.6590   13.9230   31.4560 C.3    87  U87         0.1773
   1562  O4'       22.9700   13.2060   30.3940 O.3    87  U87        -0.3307
   1563  C3'       24.1920   12.8140   32.3510 C.3    87  U87         0.1860
   1564  O3'       24.4180   13.2450   33.6830 O.3    87  U87        -0.3112
   1565  C2'       23.0540   11.8090   32.3070 C.3    87  U87         0.2309
   1566  O2'       21.9910   12.1620   33.1650 O.3    87  U87        -0.2156
   1567  C1'       22.6340   11.8990   30.8390 C.3    87  U87         0.2420
   1568  N1        23.3860   10.9230   30.0390 N.ar   87  U87        -0.2534
   1569  C2        22.7710    9.7180   29.7650 C.ar   87  U87         0.3546
   1570  O2        21.6360    9.4640   30.1290 O.2    87  U87        -0.2443
   1571  N3        23.5350    8.8210   29.0530 N.ar   87  U87        -0.1530
   1572  C4        24.8250    9.0110   28.5930 C.ar   87  U87         0.2846
   1573  O4        25.3860    8.1090   27.9710 O.2    87  U87        -0.2650
   1574  C5        25.3860   10.2930   28.9070 C.ar   87  U87         0.0814
   1575  C6        24.6660   11.1830   29.5990 C.ar   87  U87         0.0870
   1576  OP1       27.3710   15.8990   30.7200 O.3    87  U87        -0.4373
   1577  OP2       28.0910   13.7810   29.4510 O.co2  87  U87        -0.5172
   1578  P         25.2920   12.3300   34.6720 P.3    88  C88         0.2141
   1579  C5'       23.1150   11.1010   35.4550 C.3    88  C88         0.1812
   1580  O5'       24.4070   11.0230   34.8720 O.3    88  C88        -0.3114
   1581  C4'       22.3980    9.7780   35.3200 C.3    88  C88         0.1773
   1582  O4'       22.2780    9.4420   33.9160 O.3    88  C88        -0.3307
   1583  C3'       23.0960    8.5740   35.9300 C.3    88  C88         0.1860
   1584  O3'       22.7730    8.4620   37.3100 O.3    88  C88        -0.3112
   1585  C2'       22.4600    7.4300   35.1610 C.3    88  C88         0.2309
   1586  O2'       21.1800    7.1440   35.6800 O.3    88  C88        -0.2156
   1587  C1'       22.3390    8.0320   33.7570 C.3    88  C88         0.2420
   1588  N1        23.4930    7.7060   32.9010 N.ar   88  C88        -0.2535
   1589  C2        23.5050    6.4910   32.2050 C.ar   88  C88         0.3532
   1590  O2        22.5220    5.7410   32.2910 O.2    88  C88        -0.2443
   1591  N3        24.5890    6.1710   31.4570 N.ar   88  C88        -0.1739
   1592  C4        25.6250    7.0110   31.3910 C.ar   88  C88         0.1759
   1593  N4        26.6770    6.6560   30.6670 N.pl3  88  C88        -0.1070
   1594  C5        25.6270    8.2560   32.0720 C.ar   88  C88         0.0566
   1595  C6        24.5510    8.5640   32.8050 C.ar   88  C88         0.0850
   1596  OP1       25.3470   13.0550   35.9590 O.3    88  C88        -0.4373
   1597  OP2       26.5590   11.9240   34.0040 O.co2  88  C88        -0.5172
   1598  P         23.6510    7.6060   38.2990 P.3    89  G89         0.2141
   1599  C5'       22.1090    5.4690   38.0500 C.3    89  G89         0.1812
   1600  O5'       23.3980    6.0780   37.9010 O.3    89  G89        -0.3114
   1601  C4'       22.1080    4.0690   37.4640 C.3    89  G89         0.1773
   1602  O4'       22.3530    4.1300   36.0340 O.3    89  G89        -0.3307
   1603  C3'       23.1810    3.1250   37.9710 C.3    89  G89         0.1860
   1604  O3'       22.7740    2.5120   39.1840 O.3    89  G89        -0.3112
   1605  C2'       23.2440    2.1000   36.8500 C.3    89  G89         0.2309
   1606  O2'       22.1510    1.2100   36.9020 O.3    89  G89        -0.2156
   1607  C1'       23.0720    2.9840   35.6220 C.3    89  G89         0.2408
   1608  N1        26.9010    1.7510   32.5190 N.ar   89  G89        -0.1709
   1609  C2        25.8680    0.9710   32.9820 C.ar   89  G89         0.2606
   1610  N2        25.8400   -0.2910   32.5260 N.pl3  89  G89        -0.0859
   1611  N3        24.9380    1.3950   33.8240 N.ar   89  G89        -0.1918
   1612  C4        25.1300    2.6820   34.1750 C.ar   89  G89         0.1723
   1613  C5        26.1330    3.5460   33.7760 C.ar   89  G89         0.1748
   1614  C6        27.1190    3.0790   32.8600 C.ar   89  G89         0.3023
   1615  O6        28.0740    3.6930   32.3640 O.2    89  G89        -0.2633
   1616  N7        25.9770    4.7900   34.3730 N.ar   89  G89        -0.2173
   1617  C8        24.8980    4.6670   35.1000 C.ar   89  G89         0.1817
   1618  N9        24.3210    3.4210   35.0070 N.ar   89  G89        -0.2693
   1619  OP1       23.1500    7.8130   39.6830 O.3    89  G89        -0.4373
   1620  OP2       25.0580    7.9600   37.9670 O.co2  89  G89        -0.5172
   1621  P         23.8720    1.8510   40.1520 P.3    90  C90         0.2141
   1622  C5'       23.5670   -0.5840   39.2060 C.3    90  C90         0.1813
   1623  O5'       24.4010    0.5600   39.3830 O.3    90  C90        -0.3114
   1624  C4'       24.2470   -1.5950   38.3130 C.3    90  C90         0.1801
   1625  O4'       24.5450   -0.9680   37.0380 O.3    90  C90        -0.3306
   1626  C3'       25.5990   -2.0920   38.7980 C.3    90  C90         0.2161
   1627  O3'       25.4340   -3.2000   39.6590 O.3    90  C90        -0.2175
   1628  C2'       26.2670   -2.5390   37.5060 C.3    90  C90         0.2338
   1629  O2'       25.8190   -3.8060   37.0910 O.3    90  C90        -0.2155
   1630  C1'       25.7580   -1.4920   36.5220 C.3    90  C90         0.2421
   1631  N1        26.6970   -0.3850   36.3240 N.ar   90  C90        -0.2535
   1632  C2        27.6820   -0.5300   35.3650 C.ar   90  C90         0.3532
   1633  O2        27.7520   -1.5970   34.7470 O.2    90  C90        -0.2443
   1634  N3        28.5320    0.4880   35.1310 N.ar   90  C90        -0.1739
   1635  C4        28.4250    1.6150   35.8280 C.ar   90  C90         0.1759
   1636  N4        29.2770    2.5930   35.5510 N.pl3  90  C90        -0.1070
   1637  C5        27.4370    1.7870   36.8350 C.ar   90  C90         0.0566
   1638  C6        26.6010    0.7680   37.0510 C.ar   90  C90         0.0850
   1639  OP1       23.1570    1.3880   41.3630 O.3    90  C90        -0.4373
   1640  OP2       24.9930    2.8100   40.2720 O.co2  90  C90        -0.5172
@<TRIPOS>BOND
     1   373   372    1
     2   369   368    1
     3   369   374    1
     4   368   366    1
     5   368   370    1
     6   374   372    1
     7   374   375    1
     8   366   367    1
     9   372   370    1
    10   377   376    2
    11   371   370    1
    12   371   385    1
    13   375   376   ar
    14   375   382   ar
    15   376   378   ar
    16   384   365    1
    17   367   365    1
    18   406   385    2
    19   387   385    1
    20   387   386    1
    21   382   381   ar
    22   385   407    1
    23   365   383    1
    24   378   379   ar
    25   389   388    1
    26   389   394    1
    27   381   379   ar
    28   388   386    1
    29   388   390    1
    30   393   392    1
    31   379   380    1
    32   394   392    1
    33   394   405    1
    34   392   390    1
    35   404   405   ar
    36   404   403   ar
    37   405   399   ar
    38   390   391    1
    39   391   408    1
    40   403   400   ar
    41   399   398   ar
    42   399   400   ar
    43   398   396   ar
    44   400   401   ar
    45   426   408    2
    46   408   427    1
    47   408   410    1
    48   396   397    1
    49   396   395   ar
    50   401   395   ar
    51   401   402    2
    52   410   409    1
    53  1037  1036    2
    54  1038  1036   ar
    55  1038  1039   ar
    56  1040  1039    2
    57   362   361    2
    58  1036  1035   ar
    59  1106  1085    2
    60   364   361    1
    61  1039  1041   ar
    62  1215  1195    2
    63   359   341    2
    64  1083  1065    2
    65   339   321    2
    66   409   411    1
    67   343   341    1
    68   343   342    1
    69   412   411    1
    70   412   417    1
    71   361   347    1
    72   361   363    1
    73   347   346    1
    74   425   424   ar
    75   425   418   ar
    76   424   422   ar
    77  1107  1085    1
    78   411   413    1
    79  1129  1108    2
    80   341   327    1
    81   341   360    1
    82  1085  1071    1
    83  1085  1087    1
    84  1130  1108    1
    85   327   326    1
    86  1179  1195    1
    87  1179  1178    1
    88   342   344    1
    89  1035  1034    1
    90  1035  1042   ar
    91  1033  1032    1
    92  1041  1042   ar
    93   344   346    1
    94   344   345    1
    95  1195  1216    1
    96  1195  1197    1
    97   417   418    1
    98   417   415    1
    99  1065  1084    1
   100  1065  1051    1
   101  1065  1067    1
   102   321   340    1
   103   321   323    1
   104   321   307    1
   105  1063  1045    2
   106   418   419   ar
   107  1181  1180    1
   108  1196  1197    1
   109  1196  1198    1
   110   422   423    2
   111   422   421   ar
   112  1168  1167    2
   113   346   348    1
   114   349   348    1
   115  1034  1032    1
   116  1034  1029    1
   117  1108  1091    1
   118  1108  1110    1
   119  1176  1174    1
   120  1176  1178    1
   121  1176  1177    1
   122  1071  1070    1
   123  1174  1175    1
   124   322   323    1
   125   322   324    1
   126  1235  1217    2
   127  1087  1086    1
   128  1051  1050    1
   129  1086  1088    1
   130  1066  1067    1
   131  1066  1068    1
   132  1032  1030    1
   133  1178  1180    1
   134   326   324    1
   135   326   328    1
   136  1091  1090    1
   137   419   421   ar
   138   419   420    2
   139   345   350    1
   140   307   306    1
   141  1152  1131    2
   142   413   415    1
   143   413   414    1
   144   348   350    1
   145  1167  1169   ar
   146  1167  1166   ar
   147  1180  1182    1
   148  1198  1200    1
   149  1198  1199    1
   150   324   325    1
   151   415   416    1
   152  1177  1182    1
   153   319   301    2
   154  1029  1028    1
   155   440   439    1
   156  1169  1170   ar
   157  1201  1217    1
   158  1201  1200    1
   159  1047  1045    1
   160  1047  1046    1
   161  1070  1068    1
   162  1070  1072    1
   163  1045  1031    1
   164  1045  1064    1
   165   438   439   ar
   166   438   444   ar
   167  1068  1069    1
   168   445   444    2
   169  1110  1109    1
   170  1175  1173    1
   171  1217  1236    1
   172  1217  1219    1
   173  1172  1153    2
   174  1090  1088    1
   175  1090  1092    1
   176  1151  1131    1
   177  1088  1089    1
   178  1194  1173    2
   179  1182  1192    1
   180   350   351    1
   181   414   428    1
   182  1031  1030    1
   183  1166  1164   ar
   184  1030  1028    1
   185   439   441   ar
   186  1050  1048    1
   187  1050  1052    1
   188  1053  1052    1
   189   444   443   ar
   190  1131  1114    1
   191  1131  1133    1
   192   328   329    1
   193   328   330    1
   194  1200  1202    1
   195   302   304    1
   196   302   303    1
   197  1199  1204    1
   198   306   304    1
   199   306   308    1
   200  1048  1046    1
   201  1048  1049    1
   202  1170  1163   ar
   203  1173  1193    1
   204  1173  1159    1
   205  1028  1026    1
   206  1109  1111    1
   207   301   303    1
   208   301   320    1
   209   301   287    1
   210   325   330    1
   211  1073  1072    1
   212   304   305    1
   213  1114  1113    1
   214  1072  1074    1
   215  1052  1054    1
   216  1069  1074    1
   217  1153  1171    1
   218  1153  1155    1
   219  1153  1137    1
   220   309   308    1
   221  1164  1163   ar
   222  1164  1165    2
   223  1219  1218    1
   224  1089  1094    1
   225  1203  1202    1
   226  1218  1220    1
   227   441   442   ar
   228  1132  1133    1
   229  1132  1134    1
   230   351   358   ar
   231   351   352   ar
   232  1147  1146    1
   233  1092  1093    1
   234  1092  1094    1
   235   443   442   ar
   236   443   446   ar
   237   338   337   ar
   238   338   331   ar
   239  1163  1162    1
   240   330   331    1
   241  1192  1186   ar
   242  1192  1191   ar
   243  1113  1111    1
   244  1113  1115    1
   245   358   357   ar
   246  1155  1154    1
   247  1148  1149   ar
   248  1148  1145   ar
   249  1202  1204    1
   250   308   310    1
   251  1027  1026    1
   252  1027  1025    1
   253  1023  1003    2
   254   428   449    2
   255   428   450    1
   256   428   430    1
   257  1204  1214    1
   258  1104  1103   ar
   259  1104  1105   ar
   260   442   448   ar
   261  1049  1054    1
   262  1111  1112    1
   263   337   335   ar
   264  1185  1186   ar
   265  1185  1184   ar
   266  1158  1159    1
   267  1158  1160    1
   268  1158  1156    1
   269  1043  1025    2
   270   287   286    1
   271  1074  1075    1
   272   331   332   ar
   273  1126  1127   ar
   274  1126  1123   ar
   275  1127  1128   ar
   276  1160  1162    1
   277  1160  1161    1
   278  1004  1006    1
   279  1004  1005    1
   280  1149  1150   ar
   281  1094  1105    1
   282   446   447   ar
   283  1082  1075   ar
   284  1082  1081   ar
   285  1054  1055    1
   286  1186  1187   ar
   287   430   429    1
   288  1146  1145   ar
   289  1146  1141   ar
   290  1103  1100   ar
   291  1145  1144   ar
   292  1191  1190   ar
   293   353   352    2
   294   305   310    1
   295  1137  1136    1
   296  1213  1214   ar
   297  1213  1212   ar
   298   352   354   ar
   299  1105  1099   ar
   300  1136  1134    1
   301  1136  1138    1
   302  1162  1157    1
   303  1025  1044    1
   304  1025  1009    1
   305  1006  1007    1
   306  1006  1008    1
   307  1134  1135    1
   308  1075  1076   ar
   309  1214  1208   ar
   310  1220  1221    1
   311  1220  1222    1
   312   357   355   ar
   313  1024  1003    1
   314  1112  1117    1
   315  1081  1079   ar
   316  1003  1005    1
   317  1003   986    1
   318   310   311    1
   319  1115  1117    1
   320  1115  1116    1
   321  1154  1156    1
   322   448   447   ar
   323   448   437    1
   324  1184  1183   ar
   325   335   336    1
   326   335   334   ar
   327  1007  1012    1
   328  1156  1157    1
   329   332   334   ar
   330   332   333    2
   331   432   437    1
   332   432   431    1
   333  1128  1117    1
   334  1128  1122   ar
   335  1123  1124   ar
   336  1123  1122   ar
   337  1150  1144   ar
   338  1150  1140    1
   339  1125  1124    2
   340  1141  1142   ar
   341  1221  1226    1
   342   286   288    1
   343   286   284    1
   344  1144  1143   ar
   345  1055  1062   ar
   346  1055  1056   ar
   347  1062  1061   ar
   348   299   281    2
   349  1135  1140    1
   350  1223  1222    1
   351  1223  1237    1
   352  1100  1099   ar
   353  1100  1101   ar
   354   467   466    1
   355   289   288    1
   356  1258  1237    2
   357  1099  1098   ar
   358  1212  1209   ar
   359  1187  1190   ar
   360  1187  1188   ar
   361   437   435    1
   362  1076  1077    2
   363  1076  1078   ar
   364  1124  1118   ar
   365  1222  1224    1
   366   311   318   ar
   367   311   312   ar
   368   354   355   ar
   369   318   317   ar
   370   429   431    1
   371  1259  1237    1
   372  1079  1078   ar
   373  1079  1080    2
   374  1122  1121   ar
   375  1138  1140    1
   376  1138  1139    1
   377  1008  1009    1
   378  1008  1010    1
   379   355   356    2
   380   288   290    1
   381  1208  1209   ar
   382  1208  1207   ar
   383  1237  1239    1
   384   282   284    1
   385   282   283    1
   386   986   985    1
   387   284   285    1
   388  1142  1143   ar
   389   431   433    1
   390  1234  1233   ar
   391  1234  1227   ar
   392   283   281    1
   393  1183  1188   ar
   394  1021  1022   ar
   395  1021  1020   ar
   396  1057  1056    2
   397   313   312    2
   398  1061  1059   ar
   399   317   315   ar
   400   312   314   ar
   401  1012  1022    1
   402  1012  1010    1
   403  1101  1102    2
   404  1101  1095   ar
   405  1056  1058   ar
   406  1098  1096   ar
   407  1275  1274    1
   408  1233  1231   ar
   409  1209  1210   ar
   410   281   300    1
   411   281   264    1
   412   466   465   ar
   413   466   461   ar
   414  1188  1189    1
   415   468   465   ar
   416   468   469   ar
   417  1207  1206   ar
   418  1226  1224    1
   419  1226  1227    1
   420  1118  1119   ar
   421  1022  1016   ar
   422  1121  1119   ar
   423  1020  1017   ar
   424  1224  1225    1
   425  1010  1011    1
   426   465   464   ar
   427  1227  1228   ar
   428   314   315   ar
   429   435   433    1
   430   435   436    1
   431   315   316    1
   432   461   462   ar
   433   483   484   ar
   434   483   488   ar
   435  1095  1096   ar
   436   507   506    1
   437  1096  1097    1
   438  1001   980    2
   439   489   488    1
   440   985   983    1
   441   985   987    1
   442   433   434    1
   443  1334  1333    1
   444  1119  1120    1
   445   290   285    1
   446   290   291    1
   447  1058  1059   ar
   448  1059  1060    1
   449  1274  1273   ar
   450  1274  1276   ar
   451   469   470   ar
   452  1239  1238    1
   453  1273  1271   ar
   454   264   263    1
   455  1231  1232    2
   456  1231  1230   ar
   457   484   485   ar
   458   488   487   ar
   459  1210  1211    1
   460  1210  1205   ar
   461   988   987    1
   462  1016  1017   ar
   463  1016  1015   ar
   464  1206  1205   ar
   465   981   983    1
   466   981   982    1
   467  1017  1018   ar
   468   983   984    1
   469   987   989    1
   470   291   298   ar
   471   291   292   ar
   472   464   470   ar
   473   464   463   ar
   474   982   980    1
   475   462   463   ar
   476   506   505   ar
   477   506   508   ar
   478  1276  1277   ar
   479  1228  1230   ar
   480  1228  1229    2
   481   298   297   ar
   482   980  1002    1
   483   980   966    1
   484  1238  1240    1
   485   470   460    1
   486  1295  1294    1
   487   293   292    2
   488  1333  1332   ar
   489  1333  1335   ar
   490   434   451    1
   491   530   529    1
   492   505   511   ar
   493  1310  1311   ar
   494  1310  1315   ar
   495   292   294   ar
   496  1271  1272    2
   497  1271  1270   ar
   498  1015  1014   ar
   499  1311  1312   ar
   500   485   486   ar
   501   487   486   ar
   502   487   490   ar
   503   508   509   ar
   504   263   265    1
   505   263   261    1
   506  1332  1338   ar
   507  1018  1019    1
   508  1018  1013   ar
   509  1335  1336   ar
   510   297   295   ar
   511   529   531   ar
   512   529   528   ar
   513  1294  1293   ar
   514  1294  1296   ar
   515  1293  1291   ar
   516   486   492   ar
   517   531   532   ar
   518  1277  1270   ar
   519   266   265    1
   520  1316  1315    1
   521   526   525    1
   522   294   295   ar
   523   455   460    1
   524   455   454    1
   525  1315  1314   ar
   526   984   989    1
   527  1270  1269    1
   528   460   458    1
   529   989  1000    1
   530   511   512    2
   531   511   510   ar
   532   265   267    1
   533   295   296    1
   534  1312  1313   ar
   535   490   491   ar
   536  1240  1242    1
   537  1240  1241    1
   538  1014  1013   ar
   539   528   534   ar
   540   966   965    1
   541   527   538    1
   542   527   522    1
   543   527   525    1
   544   509   510   ar
   545   509   515   ar
   546   259   261    1
   547   259   260    1
   548   453   451    1
   549   453   452    1
   550   451   472    2
   551   451   471    1
   552   261   262    1
   553   532   538   ar
   554   532   533   ar
   555   999  1000   ar
   556   999   998   ar
   557  1291  1292    2
   558  1291  1290   ar
   559  1296  1297   ar
   560  1338  1339    2
   561  1338  1337   ar
   562  1336  1337   ar
   563  1336  1342   ar
   564  1000   994   ar
   565   538   537   ar
   566   522   521    1
   567   510   513   ar
   568   525   523    1
   569   492   491   ar
   570   492   482    1
   571   534   533   ar
   572   534   535    2
   573  1314  1313   ar
   574  1314  1317   ar
   575  1313  1319   ar
   576  1330  1329    1
   577  1242  1243    1
   578  1242  1244    1
   579  1241  1246    1
   580   533   536   ar
   581   452   454    1
   582  1243  1260    1
   583   503   502    1
   584  1269  1264    1
   585  1269  1267    1
   586   504   515    1
   587   504   502    1
   588   504   499    1
   589   515   514   ar
   590   454   456    1
   591  1337  1340   ar
   592   998   995   ar
   593  1331  1342    1
   594  1331  1329    1
   595  1331  1326    1
   596   545   550    1
   597   545   544    1
   598   270   269    1
   599  1297  1290   ar
   600  1290  1289    1
   601   537   536   ar
   602   458   456    1
   603   458   459    1
   604   965   967    1
   605   965   963    1
   606  1264  1263    1
   607  1342  1341   ar
   608   260   258    1
   609   267   262    1
   610   267   278    1
   611   280   258    2
   612   994   995   ar
   613   994   993   ar
   614   271   269   ar
   615   271   272   ar
   616   550   551    1
   617   550   548    1
   618   521   523    1
   619   521   519    1
   620   482   477    1
   621   482   480    1
   622  1353  1352    1
   623   978   960    2
   624   502   500    1
   625   549   548    1
   626   269   268   ar
   627   513   514   ar
   628  1329  1327    1
   629  1317  1318   ar
   630  1349  1354    1
   631  1349  1348    1
   632   456   457    1
   633  1357  1356    2
   634  1319  1309    1
   635  1319  1318   ar
   636   995   996   ar
   637   968   967    1
   638   544   542    1
   639   544   546    1
   640  1262  1260    1
   641  1262  1261    1
   642   993   991   ar
   643  1244  1246    1
   644  1244  1245    1
   645   499   498    1
   646  1326  1325    1
   647   553   552    2
   648  1250  1248   ar
   649  1250  1251   ar
   650   523   524    1
   651  1249  1248    1
   652  1246  1257    1
   653  1354  1352    1
   654  1354  1355    1
   655   278   272   ar
   656   278   277   ar
   657   272   273   ar
   658   967   969    1
   659  1248  1247   ar
   660  1257  1251   ar
   661  1257  1256   ar
   662  1251  1252   ar
   663   258   279    1
   664   258   244    1
   665   551   552   ar
   666   551   558   ar
   667  1348  1346    1
   668  1348  1350    1
   669  1256  1255   ar
   670  1289  1284    1
   671  1289  1287    1
   672  1309  1304    1
   673  1309  1307    1
   674  1247  1253   ar
   675   542   543    1
   676  1267  1268    1
   677  1267  1265    1
   678  1252  1255   ar
   679  1252  1253   ar
   680   961   963    1
   681   961   962    1
   682   268   274   ar
   683   477   476    1
   684  1260  1278    2
   685  1260  1279    1
   686   552   554   ar
   687  1340  1341   ar
   688   963   964    1
   689   524   541    1
   690  1253  1254    2
   691   548   546    1
   692   962   960    1
   693   480   481    1
   694   480   478    1
   695   558   557   ar
   696   519   520    1
   697  1352  1350    1
   698   960   979    1
   699   960   946    1
   700   277   276   ar
   701  1356  1355   ar
   702  1356  1358   ar
   703   273   274   ar
   704   273   276   ar
   705  1263  1261    1
   706  1263  1265    1
   707  1346  1347    1
   708   991   990   ar
   709   991   992    1
   710   996   990   ar
   711   996   997    2
   712   274   275    2
   713  1355  1362   ar
   714  1284  1283    1
   715  1308  1307    1
   716  1325  1327    1
   717  1325  1323    1
   718   554   555   ar
   719  1265  1266    1
   720   546   547    1
   721  1304  1303    1
   722  1307  1305    1
   723   498   500    1
   724   498   496    1
   725   500   501    1
   726  1327  1328    1
   727   557   555   ar
   728  1350  1351    1
   729  1351  1365    1
   730   457   473    1
   731   520   518    1
   732   555   556    1
   733  1287  1288    1
   734  1287  1285    1
   735   543   541    1
   736   256   238    2
   737  1358  1359   ar
   738   969   964    1
   739   969   970    1
   740   547   561    1
   741   494   473    2
   742  1328  1345    1
   743   244   243    1
   744   476   478    1
   745   476   474    1
   746   478   479    1
   747   541   559    2
   748   541   560    1
   749   972   971    2
   750  1362  1361   ar
   751   501   518    1
   752  1347  1345    1
   753   475   473    1
   754   475   474    1
   755   970   971   ar
   756   970   977   ar
   757   946   945    1
   758   565   570    1
   759   565   564    1
   760   473   493    1
   761  1323  1324    1
   762   971   973   ar
   763  1386  1365    2
   764  1359  1361   ar
   765  1359  1360    1
   766  1283  1285    1
   767  1283  1281    1
   768   496   497    1
   769  1282  1281    1
   770  1282  1280    1
   771  1303  1305    1
   772  1303  1301    1
   773  1365  1387    1
   774  1365  1367    1
   775   665   664    1
   776   977   976   ar
   777  1266  1280    1
   778  1285  1286    1
   779  1305  1306    1
   780   659   664   ar
   781   659   660   ar
   782   518   540    2
   783   518   539    1
   784  1299  1280    2
   785   497   495    1
   786   239   240    1
   787   239   241    1
   788  1345  1363    2
   789  1345  1364    1
   790   238   257    1
   791   238   240    1
   792   238   221    1
   793   243   241    1
   794   243   245    1
   795   570   571    1
   796   570   568    1
   797   562   564    1
   798   562   563    1
   799   664   663   ar
   800   973   974   ar
   801  1324  1322    1
   802   660   661   ar
   803   564   566    1
   804  1382  1381    2
   805   479   495    1
   806  1411  1412   ar
   807  1411  1410   ar
   808   976   974   ar
   809  1280  1298    1
   810   571   578   ar
   811   571   572   ar
   812   561   579    2
   813   561   563    1
   814   561   580    1
   815   573   572    2
   816   657   656    1
   817   578   577   ar
   818   241   242    1
   819  1383  1384   ar
   820  1383  1380   ar
   821   945   947    1
   822   945   943    1
   823   572   574   ar
   824   974   975    2
   825  1302  1301    1
   826  1302  1300    1
   827   663   662   ar
   828   663   666   ar
   829  1412  1413   ar
   830   661   662   ar
   831   948   947    1
   832  1306  1322    1
   833  1410  1415   ar
   834   577   575   ar
   835   574   575   ar
   836   662   668   ar
   837   495   517    2
   838   495   516    1
   839   569   568    1
   840  1367  1366    1
   841   947   949    1
   842  1286  1300    1
   843   666   667   ar
   844   958   940    2
   845   246   245    1
   846   575   576    2
   847   221   220    1
   848   245   247    1
   849  1381  1380   ar
   850  1381  1375   ar
   851  1384  1385   ar
   852   692   671    2
   853   568   566    1
   854  1322  1344    2
   855  1322  1343    1
   856  1380  1379   ar
   857   656   658    1
   858   656   654    1
   859  1321  1300    2
   860   668   667   ar
   861   668   658    1
   862   691   671    1
   863   566   567    1
   864  1300  1320    1
   865   943   941    1
   866   943   944    1
   867  1413  1414   ar
   868  1413  1419   ar
   869  1415  1416    1
   870  1415  1414   ar
   871   242   247    1
   872   941   942    1
   873   658   653    1
   874  1408  1407    1
   875   942   940    1
   876  1434  1433    1
   877   671   655    1
   878   671   673    1
   879  1409  1419    1
   880  1409  1404    1
   881  1409  1407    1
   882   959   940    1
   883   940   926    1
   884  1375  1376   ar
   885  1366  1368    1
   886   247   248    1
   887  1414  1417   ar
   888   567   581    1
   889  1419  1418   ar
   890   681   682   ar
   891   681   686   ar
   892   655   654    1
   893  1385  1379   ar
   894  1385  1374    1
   895   220   222    1
   896   220   218    1
   897  1435  1433   ar
   898  1435  1436   ar
   899  1426  1431    1
   900  1426  1425    1
   901   949   944    1
   902   949   950    1
   903  1404  1403    1
   904  1379  1378   ar
   905  1431  1442    1
   906  1431  1429    1
   907  1433  1432   ar
   908   654   652    1
   909   952   951    2
   910   223   222    1
   911   682   683   ar
   912  1407  1405    1
   913   687   686    1
   914  1430  1429    1
   915   950   951   ar
   916   950   957   ar
   917   951   953   ar
   918  1436  1442   ar
   919  1436  1437   ar
   920   236   215    2
   921   216   218    1
   922   216   217    1
   923  1442  1441   ar
   924   686   685   ar
   925  1370  1368    1
   926  1370  1371    1
   927  1370  1372    1
   928   222   224    1
   929   218   219    1
   930  1432  1438   ar
   931   255   248   ar
   932   255   254   ar
   933   957   956   ar
   934  1369  1368    1
   935  1369  1374    1
   936   217   215    1
   937  1418  1417   ar
   938   248   249   ar
   939   653   652    1
   940  1376  1378   ar
   941  1376  1377    1
   942   953   954   ar
   943   673   672    1
   944  1425  1423    1
   945  1425  1427    1
   946  1374  1372    1
   947   926   925    1
   948  1429  1427    1
   949   683   684   ar
   950  1371  1388    1
   951  1372  1373    1
   952   956   954   ar
   953  1437  1438   ar
   954  1437  1440   ar
   955  1403  1405    1
   956  1403  1401    1
   957   603   581    2
   958   954   955    1
   959   652   650    1
   960  1441  1440   ar
   961   581   602    1
   962   581   583    1
   963  1438  1439    2
   964  1423  1424    1
   965   215   237    1
   966   215   198    1
   967   685   684   ar
   968   685   688   ar
   969  1405  1406    1
   970   254   252   ar
   971   684   690   ar
   972   677   676    1
   973   677   693    1
   974   585   590    1
   975   585   584    1
   976   672   674    1
   977   676   674    1
   978   676   678    1
   979  1427  1428    1
   980   249   250    2
   981   249   251   ar
   982   219   224    1
   983   224   235    1
   984  1406  1422    1
   985   583   582    1
   986  1401  1402    1
   987   925   927    1
   988   925   923    1
   989   598   597    2
   990   591   597   ar
   991   591   592   ar
   992   593   592    1
   993   597   596   ar
   994  1424  1422    1
   995   582   584    1
   996   592   594   ar
   997  1453  1452    1
   998   596   599   ar
   999   596   595   ar
  1000   594   595   ar
  1001   599   600   ar
  1002   595   601   ar
  1003   600   601   ar
  1004   601   590    1
  1005   688   689   ar
  1006   928   927    1
  1007  1454  1449    1
  1008  1454  1465    1
  1009  1454  1452    1
  1010   590   588    1
  1011   651   650    1
  1012   651   649    1
  1013  1449  1448    1
  1014   927   929    1
  1015  1388  1398    2
  1016  1388  1399    1
  1017  1388  1390    1
  1018   674   675    1
  1019   678   680    1
  1020   678   679    1
  1021   198   197    1
  1022   713   693    2
  1023   584   586    1
  1024   690   689   ar
  1025   690   680    1
  1026  1428  1445    1
  1027   252   251   ar
  1028   252   253    2
  1029   235   234   ar
  1030   235   229   ar
  1031   234   233   ar
  1032   693   714    1
  1033   693   695    1
  1034  1422  1443    2
  1035  1422  1444    1
  1036  1458  1459   ar
  1037  1458  1456   ar
  1038  1465  1459   ar
  1039  1465  1464   ar
  1040   643   642    2
  1041  1452  1450    1
  1042  1457  1456    1
  1043   680   675    1
  1044   923   921    1
  1045   923   924    1
  1046  1390  1389    1
  1047  1459  1460   ar
  1048  1402  1400    1
  1049  1448  1450    1
  1050  1448  1446    1
  1051   636   642   ar
  1052   636   637   ar
  1053  1447  1445    1
  1054  1447  1446    1
  1055  1456  1455   ar
  1056   642   641   ar
  1057  1464  1463   ar
  1058   921   922    1
  1059   938   920    2
  1060   670   649    2
  1061   638   637    1
  1062   229   228   ar
  1063   229   230   ar
  1064  1421  1400    2
  1065   922   920    1
  1066   233   230   ar
  1067   649   669    1
  1068   649   632    1
  1069   637   639   ar
  1070   588   586    1
  1071   588   589    1
  1072   228   226   ar
  1073   197   199    1
  1074   197   195    1
  1075   929   930    1
  1076   929   924    1
  1077   586   587    1
  1078  1460  1463   ar
  1079  1460  1461   ar
  1080  1445  1467    2
  1081  1445  1466    1
  1082  1455  1461   ar
  1083   939   920    1
  1084   930   937   ar
  1085   930   931   ar
  1086   641   644   ar
  1087   641   640   ar
  1088  1450  1451    1
  1089   937   936   ar
  1090   695   694    1
  1091   920   904    1
  1092   932   931    2
  1093   931   933   ar
  1094   200   199    1
  1095   230   231   ar
  1096   936   934   ar
  1097  1461  1462    2
  1098   644   645   ar
  1099  1400  1394    1
  1100  1400  1420    1
  1101   933   934   ar
  1102   639   640   ar
  1103   934   935    1
  1104  1389  1391    1
  1105   640   646   ar
  1106   704   703   ar
  1107   704   705   ar
  1108   703   708   ar
  1109   193   195    1
  1110   193   194    1
  1111   199   201    1
  1112  1451  1468    1
  1113  1393  1394    1
  1114  1393  1391    1
  1115  1393  1395    1
  1116   195   196    1
  1117   226   227    1
  1118   226   225   ar
  1119   632   631    1
  1120   213   192    2
  1121   633   631    1
  1122   633   634    1
  1123   633   635    1
  1124   645   646   ar
  1125   587   604    1
  1126   631   629    1
  1127   646   635    1
  1128   231   225   ar
  1129   231   232    2
  1130   705   706   ar
  1131  1391  1392    1
  1132   708   709    1
  1133   708   707   ar
  1134   694   696    1
  1135   194   192    1
  1136   620   619    1
  1137  1395  1397    1
  1138  1395  1396    1
  1139  1472  1471    1
  1140  1472  1477    1
  1141   648   626    2
  1142   904   903    1
  1143   635   630    1
  1144  1392  1397    1
  1145   192   214    1
  1146   192   175    1
  1147  1469  1471    1
  1148  1469  1470    1
  1149   628   626    1
  1150   628   627    1
  1151   706   707   ar
  1152   706   712   ar
  1153   196   201    1
  1154   201   212    1
  1155   697   696    1
  1156   697   702    1
  1157   707   710   ar
  1158  1468  1489    2
  1159  1468  1470    1
  1160  1468  1490    1
  1161   625   604    2
  1162  1471  1473    1
  1163   619   614   ar
  1164   619   618   ar
  1165   604   606    1
  1166   604   624    1
  1167   629   630    1
  1168   629   627    1
  1169  1477  1488    1
  1170  1477  1475    1
  1171   696   698    1
  1172   621   618   ar
  1173   621   622   ar
  1174   626   647    1
  1175   626   610    1
  1176   903   905    1
  1177   903   901    1
  1178   614   615   ar
  1179   618   617   ar
  1180   212   206   ar
  1181   212   211   ar
  1182   205   206   ar
  1183   205   203   ar
  1184  1488  1487   ar
  1185  1488  1482   ar
  1186  1487  1486   ar
  1187   905   906    1
  1188   905   907    1
  1189   712   702    1
  1190   712   711   ar
  1191   606   605    1
  1192   204   203    1
  1193   206   207   ar
  1194   710   711   ar
  1195   702   700    1
  1196   918   898    2
  1197  1482  1481   ar
  1198  1482  1483   ar
  1199  1486  1483   ar
  1200   622   623   ar
  1201   175   174    1
  1202   203   202   ar
  1203   211   210   ar
  1204   914   913    1
  1205  1481  1479   ar
  1206   737   738   ar
  1207   737   742   ar
  1208   615   616   ar
  1209  1483  1484   ar
  1210   738   739   ar
  1211   915   916   ar
  1212   915   912   ar
  1213   617   623   ar
  1214   617   616   ar
  1215   913   912   ar
  1216   913   908   ar
  1217  1476  1475    1
  1218   916   917   ar
  1219   912   911   ar
  1220   900   898    1
  1221   900   899    1
  1222  1479  1480    1
  1223  1479  1478   ar
  1224  1475  1473    1
  1225  1473  1474    1
  1226   609   610    1
  1227   609   611    1
  1228   609   607    1
  1229   207   210   ar
  1230   207   208   ar
  1231   908   909   ar
  1232   698   700    1
  1233   698   699    1
  1234  1484  1478   ar
  1235  1484  1485    2
  1236   623   613    1
  1237   892   898    1
  1238   892   891    1
  1239   917   911   ar
  1240   917   907    1
  1241   911   910   ar
  1242   202   208   ar
  1243   901   899    1
  1244   901   902    1
  1245   743   742    1
  1246   909   910   ar
  1247   898   919    1
  1248   177   176    1
  1249   742   741   ar
  1250   907   902    1
  1251   739   740   ar
  1252   605   607    1
  1253   887   889    1
  1254   887   888    1
  1255   611   613    1
  1256   611   612    1
  1257   208   209    2
  1258   882   881    1
  1259   889   891    1
  1260   889   890    1
  1261  1474  1491    1
  1262   761   760    2
  1263   174   176    1
  1264   174   172    1
  1265   700   701    1
  1266   176   178    1
  1267   894   893    1
  1268   699   715    1
  1269   613   608    1
  1270   607   608    1
  1271   726   715    2
  1272   891   893    1
  1273  1511  1491    2
  1274   181   180    1
  1275   740   741   ar
  1276   740   746   ar
  1277   741   744   ar
  1278   878   877    1
  1279   878   883    1
  1280   877   875    1
  1281   877   879    1
  1282   890   895    1
  1283   760   762   ar
  1284   760   759   ar
  1285   888   886    1
  1286  1491  1512    1
  1287  1491  1493    1
  1288   893   895    1
  1289   715   725    1
  1290   715   717    1
  1291   883   881    1
  1292   180   182   ar
  1293   180   179   ar
  1294   777   776    1
  1295   885   874    2
  1296   182   183   ar
  1297   172   170    1
  1298   172   173    1
  1299   881   879    1
  1300   880   879    1
  1301   880   886    1
  1302   757   756    1
  1303   762   763   ar
  1304   876   875    1
  1305   876   874    1
  1306   758   759    1
  1307   758   756    1
  1308   758   753    1
  1309   171   170    1
  1310   171   169    1
  1311   190   169    2
  1312   746   736    1
  1313   746   745   ar
  1314   178   189    1
  1315   178   173    1
  1316   744   745   ar
  1317   781   780    2
  1318   778   773    1
  1319   778   776    1
  1320   778   779    1
  1321   179   185   ar
  1322   773   772    1
  1323   759   766   ar
  1324   183   189   ar
  1325   183   184   ar
  1326   868   867    1
  1327   736   734    1
  1328   736   731    1
  1329   189   188   ar
  1330   886   897    2
  1331   886   896    1
  1332   756   754    1
  1333   753   752    1
  1334   874   884    1
  1335   874   858    1
  1336   867   862   ar
  1337   867   866   ar
  1338   169   191    1
  1339   169   152    1
  1340   776   774    1
  1341  1507  1506    1
  1342  1493  1492    1
  1343  1492  1494    1
  1344   185   184   ar
  1345   185   186    2
  1346   735   734    1
  1347   862   863   ar
  1348   772   770    1
  1349   772   774    1
  1350   763   764    1
  1351   763   765   ar
  1352   184   187   ar
  1353   780   779   ar
  1354   780   782   ar
  1355   779   786   ar
  1356   869   866   ar
  1357   869   870   ar
  1358   717   716    1
  1359   866   865   ar
  1360   860   859    1
  1361  1501  1506   ar
  1362  1501  1502   ar
  1363  1506  1505   ar
  1364  1495  1494    1
  1365  1495  1500    1
  1366   859   857    1
  1367   859   861    1
  1368   734   732    1
  1369   188   187   ar
  1370   863   864   ar
  1371   731   730    1
  1372   870   871   ar
  1373  1502  1503   ar
  1374  1505  1508   ar
  1375  1505  1504   ar
  1376   865   864   ar
  1377   865   871   ar
  1378   766   765   ar
  1379  1508  1509   ar
  1380   793   798    1
  1381   793   792    1
  1382   871   861    1
  1383   752   754    1
  1384   752   750    1
  1385  1504  1503   ar
  1386  1504  1510   ar
  1387   782   783   ar
  1388   797   796    1
  1389   770   771    1
  1390   774   775    1
  1391   858   857    1
  1392  1494  1496    1
  1393  1509  1510   ar
  1394   786   785   ar
  1395  1510  1500    1
  1396   857   855    1
  1397   798   796    1
  1398   798   799    1
  1399   792   790    1
  1400   792   794    1
  1401   716   718    1
  1402   775   789    1
  1403   754   755    1
  1404   861   856    1
  1405  1500  1498    1
  1406   790   791    1
  1407   152   151    1
  1408   783   785   ar
  1409   783   784    1
  1410   801   800    2
  1411   755   769    1
  1412   796   794    1
  1413   730   732    1
  1414   730   728    1
  1415   732   733    1
  1416   799   800   ar
  1417   799   806   ar
  1418   771   769    1
  1419   750   751    1
  1420   800   802   ar
  1421   794   795    1
  1422  1496  1498    1
  1423  1496  1497    1
  1424   806   805   ar
  1425   791   789    1
  1426   151   153    1
  1427   151   149    1
  1428   795   809    1
  1429   856   855    1
  1430   807   789    2
  1431   855   853    1
  1432   789   808    1
  1433   718   720    1
  1434   718   719    1
  1435   158   157    1
  1436  1498  1499    1
  1437   733   749    1
  1438   751   749    1
  1439   729   728    1
  1440   729   727    1
  1441   769   787    2
  1442   769   788    1
  1443   721   720    1
  1444   721   727    1
  1445   748   727    2
  1446   802   803   ar
  1447   153   154    1
  1448   153   155    1
  1449   157   156   ar
  1450   157   159   ar
  1451   805   803   ar
  1452   720   722    1
  1453  1497  1513    1
  1454   847   846    2
  1455   810   812    1
  1456   810   811    1
  1457   719   724    1
  1458   156   162   ar
  1459   813   812    1
  1460   813   818    1
  1461   853   854    1
  1462   803   804    1
  1463   159   160   ar
  1464   846   845   ar
  1465   846   848   ar
  1466   727   747    1
  1467   147   149    1
  1468   147   148    1
  1469   845   843   ar
  1470   848   849   ar
  1471   149   150    1
  1472   749   768    2
  1473   749   767    1
  1474   812   814    1
  1475   843   844    2
  1476   843   842   ar
  1477  1534  1513    2
  1478   849   842   ar
  1479   842   841    1
  1480   830   809    2
  1481   162   163    2
  1482   162   161   ar
  1483   809   811    1
  1484   809   831    1
  1485   160   161   ar
  1486   160   166   ar
  1487   841   836    1
  1488   841   839    1
  1489   836   835    1
  1490   161   164   ar
  1491   818   829    1
  1492   818   816    1
  1493  1513  1515    1
  1494  1513  1533    1
  1495   155   166    1
  1496   155   150    1
  1497   166   165   ar
  1498   167   146    2
  1499   724   722    1
  1500   722   723    1
  1501   854   852    1
  1502   840   839    1
  1503   168   146    1
  1504   148   146    1
  1505   164   165   ar
  1506   829   828   ar
  1507   829   823   ar
  1508   828   827   ar
  1509   817   816    1
  1510   835   833    1
  1511   835   837    1
  1512   146   132    1
  1513   839   837    1
  1514   814   816    1
  1515   814   815    1
  1516  1515  1514    1
  1517   873   852    2
  1518   827   824   ar
  1519   823   822   ar
  1520   823   824   ar
  1521   815   832    1
  1522   822   820   ar
  1523   833   834    1
  1524   824   825   ar
  1525   852   838    1
  1526   852   872    1
  1527   837   838    1
  1528   820   821    1
  1529   820   819   ar
  1530  1514  1516    1
  1531   825   819   ar
  1532   825   826    2
  1533   834   832    1
  1534   850   832    2
  1535   132   131    1
  1536   832   851    1
  1537   134   133    1
  1538   133   131    1
  1539   133   135    1
  1540   131   129    1
  1541  1516  1517    1
  1542  1516  1518    1
  1543   141   140    1
  1544   139   140   ar
  1545   139   137   ar
  1546   140   142   ar
  1547  1517  1522    1
  1548   138   137    2
  1549   137   136   ar
  1550   142   143   ar
  1551   136   143   ar
  1552   136   135    1
  1553  1531  1530   ar
  1554  1531  1532   ar
  1555  1518  1519    1
  1556  1518  1520    1
  1557   135   130    1
  1558  1530  1527   ar
  1559   129   127    1
  1560   129   130    1
  1561  1532  1522    1
  1562  1532  1526   ar
  1563   128   127    1
  1564   128   126    1
  1565  1522  1520    1
  1566  1527  1526   ar
  1567  1527  1528   ar
  1568  1519  1535    1
  1569  1526  1525   ar
  1570  1529  1528    1
  1571   145   126    2
  1572  1520  1521    1
  1573  1528  1523   ar
  1574  1525  1524   ar
  1575   144   126    1
  1576   126   112    1
  1577  1523  1524   ar
  1578   121   120    2
  1579  1535  1556    2
  1580  1535  1557    1
  1581  1535  1537    1
  1582   120   119   ar
  1583   120   122   ar
  1584   119   117   ar
  1585   112   111    1
  1586   122   123   ar
  1587  1537  1536    1
  1588   125   106    2
  1589   111   113    1
  1590   111   109    1
  1591   117   118    2
  1592   117   116   ar
  1593    39    21    2
  1594   113   114    1
  1595   113   115    1
  1596    62    41    2
  1597   123   116   ar
  1598    85    64    2
  1599   116   115    1
  1600    63    41    1
  1601  1553  1554   ar
  1602  1553  1550   ar
  1603   105    86    2
  1604  1554  1555   ar
  1605   101   100    1
  1606  1539  1544    1
  1607  1539  1538    1
  1608   108   106    1
  1609   108   107    1
  1610  1552  1551    2
  1611    84    64    1
  1612   106   124    1
  1613   106    92    1
  1614  1550  1551   ar
  1615  1550  1549   ar
  1616  1536  1538    1
  1617    41    43    1
  1618    41    27    1
  1619  1551  1545   ar
  1620   115   110    1
  1621    40    21    1
  1622  1555  1549   ar
  1623  1555  1544    1
  1624    21    23    1
  1625    21     6    1
  1626    64    66    1
  1627    64    47    1
  1628   109   107    1
  1629   109   110    1
  1630  1549  1548   ar
  1631   100   102   ar
  1632   100    99   ar
  1633  1544  1542    1
  1634   102   103   ar
  1635  1538  1540    1
  1636   104    86    1
  1637  1545  1546   ar
  1638    86    88    1
  1639    86    70    1
  1640  1548  1546   ar
  1641    43    42    1
  1642    23    22    1
  1643  1546  1547    1
  1644    99    97   ar
  1645    27    26    1
  1646    66    65    1
  1647    88    87    1
  1648     6     5    1
  1649    22    24    1
  1650   103    96   ar
  1651    92    91    1
  1652    47    46    1
  1653    91    93    1
  1654    91    89    1
  1655    42    44    1
  1656    97    96   ar
  1657    97    98    2
  1658    80    79    1
  1659    81    82   ar
  1660    81    78   ar
  1661  1540  1542    1
  1662  1540  1541    1
  1663  1542  1543    1
  1664    70    69    1
  1665    96    95    1
  1666    46    44    1
  1667    46    48    1
  1668    26    24    1
  1669    26    28    1
  1670    65    67    1
  1671     1     2    1
  1672     1     3    1
  1673    93    95    1
  1674    93    94    1
  1675    69    67    1
  1676    69    71    1
  1677    87    89    1
  1678    82    83   ar
  1679    24    25    1
  1680     5     3    1
  1681     5     7    1
  1682    78    79   ar
  1683    78    77   ar
  1684    79    74   ar
  1685    44    45    1
  1686  1573  1572    2
  1687    89    90    1
  1688     3     4    1
  1689    95    90    1
  1690    67    68    1
  1691    59    60   ar
  1692    59    56   ar
  1693  1541  1558    1
  1694    60    61   ar
  1695    83    77   ar
  1696    83    73    1
  1697    48    49    1
  1698    48    50    1
  1699  1572  1574   ar
  1700  1572  1571   ar
  1701    71    73    1
  1702    71    72    1
  1703    74    75   ar
  1704    77    76   ar
  1705    28    29    1
  1706    28    30    1
  1707  1574  1575   ar
  1708    25    30    1
  1709    45    50    1
  1710     8     7    1
  1711    38    37   ar
  1712    38    31   ar
  1713     7     9    1
  1714    68    73    1
  1715  1571  1569   ar
  1716    37    35   ar
  1717    61    50    1
  1718    61    55   ar
  1719    56    57   ar
  1720    56    55   ar
  1721    58    57    2
  1722    75    76   ar
  1723  1577  1558    2
  1724    57    51   ar
  1725    30    31    1
  1726  1575  1568   ar
  1727     4     9    1
  1728    55    54   ar
  1729    31    32   ar
  1730  1558  1560    1
  1731  1558  1576    1
  1732  1569  1568   ar
  1733  1569  1570    2
  1734    35    36    1
  1735    35    34   ar
  1736  1568  1567    1
  1737     9    20    1
  1738  1560  1559    1
  1739  1562  1567    1
  1740  1562  1561    1
  1741    19    20   ar
  1742    19    18   ar
  1743    51    52   ar
  1744    54    52   ar
  1745    32    34   ar
  1746    32    33    2
  1747  1593  1592    1
  1748    20    14   ar
  1749  1567  1565    1
  1750  1559  1561    1
  1751    52    53    1
  1752    18    15   ar
  1753  1592  1591   ar
  1754  1592  1594   ar
  1755  1561  1563    1
  1756  1591  1589   ar
  1757    14    15   ar
  1758    14    13   ar
  1759    15    16   ar
  1760    13    11   ar
  1761  1594  1595   ar
  1762  1589  1590    2
  1763  1589  1588   ar
  1764  1565  1563    1
  1765  1565  1566    1
  1766  1563  1564    1
  1767  1615  1614    2
  1768  1608  1614   ar
  1769  1608  1609   ar
  1770  1610  1609    1
  1771    16    17    2
  1772    16    10   ar
  1773  1595  1588   ar
  1774  1614  1613   ar
  1775    11    10   ar
  1776    11    12    1
  1777  1588  1587    1
  1778  1609  1611   ar
  1779  1564  1578    1
  1780  1587  1582    1
  1781  1587  1585    1
  1782  1613  1612   ar
  1783  1613  1616   ar
  1784  1611  1612   ar
  1785  1582  1581    1
  1786  1597  1578    2
  1787  1612  1618   ar
  1788  1616  1617   ar
  1789  1578  1580    1
  1790  1578  1596    1
  1791  1633  1632    2
  1792  1580  1579    1
  1793  1618  1617   ar
  1794  1618  1607    1
  1795  1634  1632   ar
  1796  1634  1635   ar
  1797  1585  1586    1
  1798  1585  1583    1
  1799  1581  1579    1
  1800  1581  1583    1
  1801  1632  1631   ar
  1802  1636  1635    1
  1803  1607  1602    1
  1804  1607  1605    1
  1805  1635  1637   ar
  1806  1583  1584    1
  1807  1602  1601    1
  1808  1631  1630    1
  1809  1631  1638   ar
  1810  1630  1625    1
  1811  1630  1628    1
  1812  1637  1638   ar
  1813  1605  1606    1
  1814  1605  1603    1
  1815  1625  1624    1
  1816  1629  1628    1
  1817  1584  1598    1
  1818  1601  1603    1
  1819  1601  1599    1
  1820  1628  1626    1
  1821  1600  1599    1
  1822  1600  1598    1
  1823  1620  1598    2
  1824  1603  1604    1
  1825  1598  1619    1
  1826  1624  1626    1
  1827  1624  1622    1
  1828  1626  1627    1
  1829  1604  1621    1
  1830  1622  1623    1
  1831  1623  1621    1
  1832  1621  1640    2
  1833  1621  1639    1
