ligand
  PyMOL2.2          3D                             0

 24 26  0  0  0  0  0  0  0  0999 V2000
   -6.8920   -7.7800   15.1290 P   0  0  0  0  0  0  0  0  0  0  0  0
   -6.4180   -6.4210   15.5980 O   0  0  0  0  0  0  0  0  0  0  0  0
   -6.1110   -8.9720   15.6300 O   0  5  0  0  0  0  0  0  0  0  0  0
   -8.3970   -7.9790   15.2290 O   0  0  0  0  0  0  0  0  0  0  0  0
   -6.1090   -6.6380   12.8060 C   0  0  0  0  0  0  0  0  0  0  0  0
   -6.5050   -7.8020   13.5520 O   0  0  0  0  0  0  0  0  0  0  0  0
   -7.0830   -6.4060   11.6470 C   0  0  0  0  0  0  0  0  0  0  0  0
   -7.2100   -5.0150   11.3260 O   0  0  0  0  0  0  0  0  0  0  0  0
   -6.7030   -7.0940   10.3470 C   0  0  0  0  0  0  0  0  0  0  0  0
   -7.3060   -8.3910   10.3160 O   0  0  0  0  0  0  0  0  0  0  0  0
   -7.2900   -6.1810    9.2830 C   0  0  0  0  0  0  0  0  0  0  0  0
   -8.6840   -6.4620    9.0930 O   0  0  0  0  0  0  0  0  0  0  0  0
   -7.2250   -4.8020    9.9090 C   0  0  0  0  0  0  0  0  0  0  0  0
   -5.1280   -0.1540    9.6740 N   0  0  0  0  0  0  0  0  0  0  0  0
   -6.3960   -0.5100    9.9820 C   0  0  0  0  0  0  0  0  0  0  0  0
   -7.2950    0.4520   10.2900 N   0  0  0  0  0  0  0  0  0  0  0  0
   -6.7730   -1.8100    9.9850 N   0  0  0  0  0  0  0  0  0  0  0  0
   -5.8680   -2.7690    9.6750 C   0  0  0  0  0  0  0  0  0  0  0  0
   -4.5670   -2.4340    9.3550 C   0  0  0  0  0  0  0  0  0  0  0  0
   -4.2050   -1.0920    9.3600 C   0  0  0  0  0  0  0  0  0  0  0  0
   -3.0410   -0.7460    9.0770 O   0  0  0  0  0  0  0  0  0  0  0  0
   -3.9120   -3.5830    9.0910 N   0  0  0  0  0  0  0  0  0  0  0  0
   -4.7870   -4.6030    9.2520 C   0  0  0  0  0  0  0  0  0  0  0  0
   -5.9690   -4.0900    9.6080 N   0  0  0  0  0  0  0  0  0  0  0  0
  1  2  1  0  0  0  0
  1  3  1  0  0  0  0
  1  4  2  0  0  0  0
  1  6  1  0  0  0  0
  5  7  1  0  0  0  0
  5  6  1  0  0  0  0
  7  8  1  0  0  0  0
  7  9  1  0  0  0  0
  8 13  1  0  0  0  0
  9 10  1  0  0  0  0
  9 11  1  0  0  0  0
 11 12  1  0  0  0  0
 11 13  1  0  0  0  0
 13 24  1  0  0  0  0
 14 15  4  0  0  0  0
 15 16  1  0  0  0  0
 15 17  4  0  0  0  0
 17 18  4  0  0  0  0
 18 19  4  0  0  0  0
 19 20  4  0  0  0  0
 14 20  4  0  0  0  0
 20 21  2  0  0  0  0
 19 22  4  0  0  0  0
 22 23  4  0  0  0  0
 18 24  4  0  0  0  0
 23 24  4  0  0  0  0
M  END
$$$$
