ligand
 OpenBabel11021811483D
libRbt.so/2013.1/901 2013/11/27
 24 26  0  0  0  0  0  0  0  0999 V2000
   -7.2535   -7.6877   14.7311 P   0  0  1  0  0  0  0  0  0  0  0  0
   -7.2322   -6.6814   15.8618 O   0  0  0  0  0  0  0  0  0  0  0  0
   -6.8035   -9.0888   15.0721 O   0  5  0  0  0  0  0  0  0  0  0  0
   -8.5319   -7.6651   13.9066 O   0  0  0  0  0  0  0  0  0  0  0  0
   -6.0309   -5.9527   13.0553 C   0  0  0  0  0  0  0  0  0  0  0  0
   -6.0437   -7.2057   13.7610 O   0  0  0  0  0  0  0  0  0  0  0  0
   -6.9142   -6.0486   11.8077 C   0  0  1  0  0  0  0  0  0  0  0  0
   -7.0903   -4.7731   11.1783 O   0  0  0  0  0  0  0  0  0  0  0  0
   -6.3875   -6.9722   10.7227 C   0  0  1  0  0  0  0  0  0  0  0  0
   -6.9129   -8.2855   10.9373 O   0  0  0  0  0  0  0  0  0  0  0  0
   -6.9315   -6.3565    9.4440 C   0  0  1  0  0  0  0  0  0  0  0  0
   -8.2866   -6.7725    9.2228 O   0  0  0  0  0  0  0  0  0  0  0  0
   -6.9965   -4.8736    9.7519 C   0  0  2  0  0  0  0  0  0  0  0  0
   -4.8954   -0.2261    9.5455 N   0  0  0  0  0  0  0  0  0  0  0  0
   -6.1406   -0.5899    9.9284 C   0  0  1  0  0  0  0  0  0  0  0  0
   -7.0104    0.3622   10.3350 N   0  0  0  0  0  0  0  0  0  0  0  0
   -6.5237   -1.8880    9.9088 N   0  0  0  0  0  0  0  0  0  0  0  0
   -5.6480   -2.8371    9.4998 C   0  0  1  0  0  0  0  0  0  0  0  0
   -4.3709   -2.4939    9.1019 C   0  0  2  0  0  0  0  0  0  0  0  0
   -4.0020   -1.1541    9.1321 C   0  0  0  0  0  0  0  0  0  0  0  0
   -2.8589   -0.8009    8.7811 O   0  0  0  0  0  0  0  0  0  0  0  0
   -3.7424   -3.6339    8.7492 N   0  0  0  0  0  0  0  0  0  0  0  0
   -4.6096   -4.6568    8.9328 C   0  0  0  0  0  0  0  0  0  0  0  0
   -5.7608   -4.1543    9.3903 N   0  0  1  0  0  0  0  0  0  0  0  0
  1  2  1  1  0  0  0
  1  3  1  0  0  0  0
  1  4  2  0  0  0  0
  1  6  1  0  0  0  0
  5  6  1  0  0  0  0
  7  5  1  1  0  0  0
  7  8  1  0  0  0  0
  7  9  1  0  0  0  0
  9 10  1  1  0  0  0
  9 11  1  0  0  0  0
 11 12  1  1  0  0  0
 11 13  1  0  0  0  0
 13  8  1  1  0  0  0
 13 24  1  0  0  0  0
 14 15  1  0  0  0  0
 14 20  1  0  0  0  0
 15 16  1  6  0  0  0
 15 17  1  0  0  0  0
 18 17  1  1  0  0  0
 18 19  1  0  0  0  0
 18 24  1  0  0  0  0
 19 20  1  6  0  0  0
 19 22  1  0  0  0  0
 20 21  2  0  0  0  0
 22 23  1  0  0  0  0
 24 23  1  1  0  0  0
M  CHG  1   3  -1
M  END
>  <CHROM.1>
-64.57633973,171.50860342,-78.80515111,-69.29529414,-6.23003846,-4.87726424
11.24307601,-3.02405830,-1.28384931,-2.09542684

>  <Name>
ligand

>  <RI>
0

>  <Rbt.Current_Directory>
/home/itssahil/PROJECTS/Mol_Feturizer/New_Systems/rnas/3SLQ

>  <Rbt.Executable>
rbdock ($Id: //depot/dev/client3/rdock/2013.1/src/exe/rbdock.cxx#4 $)

>  <Rbt.Library>
libRbt.so (2013.1, Build901 2013/11/27)

>  <Rbt.Parameter_File>
/export/apps/rDock/src/rDock_2013.1_src/data/scripts/dock_solv.prm

>  <Rbt.Receptor>
prm/pocket_docking_2.prm

>  <SCORE>
-19.5332

>  <SCORE.INTER>
-15.0449

>  <SCORE.INTER.CONST>
1

>  <SCORE.INTER.POLAR>
0

>  <SCORE.INTER.ROT>
4

>  <SCORE.INTER.SOLV>
18.6229

>  <SCORE.INTER.VDW>
-22.5043

>  <SCORE.INTER.norm>
-0.626872

>  <SCORE.INTRA>
-4.50695

>  <SCORE.INTRA.DIHEDRAL>
-10.1613

>  <SCORE.INTRA.DIHEDRAL.0>
13.2525

>  <SCORE.INTRA.POLAR>
0

>  <SCORE.INTRA.POLAR.0>
0

>  <SCORE.INTRA.REPUL>
0

>  <SCORE.INTRA.REPUL.0>
0

>  <SCORE.INTRA.SOLV>
2.66881

>  <SCORE.INTRA.SOLV.lig_0>
-70.7221

>  <SCORE.INTRA.VDW>
-0.760688

>  <SCORE.INTRA.VDW.0>
-1.46337

>  <SCORE.INTRA.norm>
-0.187789

>  <SCORE.RESTR>
0.01863

>  <SCORE.RESTR.CAVITY>
0.01863

>  <SCORE.RESTR.norm>
0.000776251

>  <SCORE.SYSTEM>
0

>  <SCORE.SYSTEM.CONST>
0

>  <SCORE.SYSTEM.DIHEDRAL>
0

>  <SCORE.SYSTEM.SOLV>
0

>  <SCORE.SYSTEM.norm>
0

>  <SCORE.heavy>
24

>  <SCORE.norm>
-0.813885

>  <RMSD>
0.564

$$$$
ligand
 OpenBabel11021811483D
libRbt.so/2013.1/901 2013/11/27
 24 26  0  0  0  0  0  0  0  0999 V2000
   -6.8737   -7.1502   14.7557 P   0  0  1  0  0  0  0  0  0  0  0  0
   -6.7337   -6.3914   16.0581 O   0  0  0  0  0  0  0  0  0  0  0  0
   -6.4729   -8.6064   14.7819 O   0  5  0  0  0  0  0  0  0  0  0  0
   -8.1975   -6.9175   14.0430 O   0  0  0  0  0  0  0  0  0  0  0  0
   -5.4153   -6.9843   12.4844 C   0  0  0  0  0  0  0  0  0  0  0  0
   -5.7034   -6.5281   13.8174 O   0  0  0  0  0  0  0  0  0  0  0  0
   -6.5716   -6.6207   11.5482 C   0  0  1  0  0  0  0  0  0  0  0  0
   -6.6972   -5.2030   11.3798 O   0  0  0  0  0  0  0  0  0  0  0  0
   -6.4602   -7.1922   10.1451 C   0  0  1  0  0  0  0  0  0  0  0  0
   -7.1116   -8.4655   10.1106 O   0  0  0  0  0  0  0  0  0  0  0  0
   -7.1912   -6.1691    9.2911 C   0  0  1  0  0  0  0  0  0  0  0  0
   -8.6069   -6.3971    9.3353 O   0  0  0  0  0  0  0  0  0  0  0  0
   -6.9581   -4.8572   10.0138 C   0  0  2  0  0  0  0  0  0  0  0  0
   -4.8698   -0.2224    9.5508 N   0  0  0  0  0  0  0  0  0  0  0  0
   -6.0869   -0.5729   10.0255 C   0  0  1  0  0  0  0  0  0  0  0  0
   -6.9261    0.3916   10.4659 N   0  0  0  0  0  0  0  0  0  0  0  0
   -6.4720   -1.8700   10.0641 N   0  0  0  0  0  0  0  0  0  0  0  0
   -5.6271   -2.8315    9.6210 C   0  0  1  0  0  0  0  0  0  0  0  0
   -4.3792   -2.5020    9.1296 C   0  0  2  0  0  0  0  0  0  0  0  0
   -4.0074   -1.1630    9.1015 C   0  0  0  0  0  0  0  0  0  0  0  0
   -2.8901   -0.8220    8.6657 O   0  0  0  0  0  0  0  0  0  0  0  0
   -3.7774   -3.6522    8.7640 N   0  0  0  0  0  0  0  0  0  0  0  0
   -4.6315   -4.6677    9.0309 C   0  0  0  0  0  0  0  0  0  0  0  0
   -5.7487   -4.1507    9.5521 N   0  0  1  0  0  0  0  0  0  0  0  0
  1  2  1  1  0  0  0
  1  3  1  0  0  0  0
  1  4  2  0  0  0  0
  1  6  1  0  0  0  0
  5  6  1  0  0  0  0
  7  5  1  1  0  0  0
  7  8  1  0  0  0  0
  7  9  1  0  0  0  0
  9 10  1  1  0  0  0
  9 11  1  0  0  0  0
 11 12  1  1  0  0  0
 11 13  1  0  0  0  0
 13  8  1  1  0  0  0
 13 24  1  0  0  0  0
 14 15  1  0  0  0  0
 14 20  1  0  0  0  0
 15 16  1  6  0  0  0
 15 17  1  0  0  0  0
 18 17  1  1  0  0  0
 18 19  1  0  0  0  0
 18 24  1  0  0  0  0
 19 20  1  6  0  0  0
 19 22  1  0  0  0  0
 20 21  2  0  0  0  0
 22 23  1  0  0  0  0
 24 23  1  1  0  0  0
M  CHG  1   3  -1
M  END
>  <CHROM.1>
177.45981966,66.40547784,68.19464460,-92.25990029,-6.10337178,-4.80396054
11.20121468,-2.68790692,-1.28067725,-1.75013798

>  <Name>
ligand

>  <RI>
0

>  <Rbt.Current_Directory>
/home/itssahil/PROJECTS/Mol_Feturizer/New_Systems/rnas/3SLQ

>  <Rbt.Executable>
rbdock ($Id: //depot/dev/client3/rdock/2013.1/src/exe/rbdock.cxx#4 $)

>  <Rbt.Library>
libRbt.so (2013.1, Build901 2013/11/27)

>  <Rbt.Parameter_File>
/export/apps/rDock/src/rDock_2013.1_src/data/scripts/dock_solv.prm

>  <Rbt.Receptor>
prm/pocket_docking_2.prm

>  <SCORE>
-20.3851

>  <SCORE.INTER>
-15.4408

>  <SCORE.INTER.CONST>
1

>  <SCORE.INTER.POLAR>
0

>  <SCORE.INTER.ROT>
4

>  <SCORE.INTER.SOLV>
20.0736

>  <SCORE.INTER.VDW>
-23.2517

>  <SCORE.INTER.norm>
-0.643367

>  <SCORE.INTRA>
-4.94433

>  <SCORE.INTRA.DIHEDRAL>
-11.5888

>  <SCORE.INTRA.DIHEDRAL.0>
13.2525

>  <SCORE.INTRA.POLAR>
0

>  <SCORE.INTRA.POLAR.0>
0

>  <SCORE.INTRA.REPUL>
0

>  <SCORE.INTRA.REPUL.0>
0

>  <SCORE.INTRA.SOLV>
2.76955

>  <SCORE.INTRA.SOLV.lig_0>
-70.7221

>  <SCORE.INTRA.VDW>
-0.53469

>  <SCORE.INTRA.VDW.0>
-1.46337

>  <SCORE.INTRA.norm>
-0.206014

>  <SCORE.RESTR>
0

>  <SCORE.RESTR.CAVITY>
0

>  <SCORE.RESTR.norm>
0

>  <SCORE.SYSTEM>
0

>  <SCORE.SYSTEM.CONST>
0

>  <SCORE.SYSTEM.DIHEDRAL>
0

>  <SCORE.SYSTEM.SOLV>
0

>  <SCORE.SYSTEM.norm>
0

>  <SCORE.heavy>
24

>  <SCORE.norm>
-0.849381

>  <RMSD>
0.633

$$$$
ligand
 OpenBabel11021811483D
libRbt.so/2013.1/901 2013/11/27
 24 26  0  0  0  0  0  0  0  0999 V2000
   -7.0181   -7.1257   14.7246 P   0  0  1  0  0  0  0  0  0  0  0  0
   -6.8876   -6.4235   16.0594 O   0  0  0  0  0  0  0  0  0  0  0  0
   -6.6085   -8.5792   14.6890 O   0  5  0  0  0  0  0  0  0  0  0  0
   -8.3406   -6.8700   14.0174 O   0  0  0  0  0  0  0  0  0  0  0  0
   -5.4953   -6.9087   12.5003 C   0  0  0  0  0  0  0  0  0  0  0  0
   -5.8480   -6.4562   13.8190 O   0  0  0  0  0  0  0  0  0  0  0  0
   -6.6204   -6.5738   11.5165 C   0  0  1  0  0  0  0  0  0  0  0  0
   -6.7524   -5.1608   11.3166 O   0  0  0  0  0  0  0  0  0  0  0  0
   -6.4535   -7.1706   10.1295 C   0  0  1  0  0  0  0  0  0  0  0  0
   -7.0919   -8.4505   10.0962 O   0  0  0  0  0  0  0  0  0  0  0  0
   -7.1624   -6.1708    9.2305 C   0  0  1  0  0  0  0  0  0  0  0  0
   -8.5768   -6.4115    9.2284 O   0  0  0  0  0  0  0  0  0  0  0  0
   -6.9672   -4.8433    9.9358 C   0  0  2  0  0  0  0  0  0  0  0  0
   -4.8809   -0.2033    9.5190 N   0  0  0  0  0  0  0  0  0  0  0  0
   -6.1087   -0.5566    9.9628 C   0  0  1  0  0  0  0  0  0  0  0  0
   -6.9618    0.4062   10.3798 N   0  0  0  0  0  0  0  0  0  0  0  0
   -6.4911   -1.8547    9.9936 N   0  0  0  0  0  0  0  0  0  0  0  0
   -5.6323   -2.8144    9.5739 C   0  0  1  0  0  0  0  0  0  0  0  0
   -4.3731   -2.4822    9.1143 C   0  0  2  0  0  0  0  0  0  0  0  0
   -4.0045   -1.1421    9.0935 C   0  0  0  0  0  0  0  0  0  0  0  0
   -2.8773   -0.7986    8.6861 O   0  0  0  0  0  0  0  0  0  0  0  0
   -3.7588   -3.6312    8.7662 N   0  0  0  0  0  0  0  0  0  0  0  0
   -4.6166   -4.6487    9.0127 C   0  0  0  0  0  0  0  0  0  0  0  0
   -5.7483   -4.1341    9.5042 N   0  0  1  0  0  0  0  0  0  0  0  0
  1  2  1  1  0  0  0
  1  3  1  0  0  0  0
  1  4  2  0  0  0  0
  1  6  1  0  0  0  0
  5  6  1  0  0  0  0
  7  5  1  1  0  0  0
  7  8  1  0  0  0  0
  7  9  1  0  0  0  0
  9 10  1  1  0  0  0
  9 11  1  0  0  0  0
 11 12  1  1  0  0  0
 11 13  1  0  0  0  0
 13  8  1  1  0  0  0
 13 24  1  0  0  0  0
 14 15  1  0  0  0  0
 14 20  1  0  0  0  0
 15 16  1  6  0  0  0
 15 17  1  0  0  0  0
 18 17  1  1  0  0  0
 18 19  1  0  0  0  0
 18 24  1  0  0  0  0
 19 20  1  6  0  0  0
 19 22  1  0  0  0  0
 20 21  2  0  0  0  0
 22 23  1  0  0  0  0
 24 23  1  1  0  0  0
M  CHG  1   3  -1
M  END
>  <CHROM.1>
173.32123528,67.66376910,69.68814589,-91.04952207,-6.14757303,-4.78117791
11.16536066,-2.79726318,-1.27851603,-1.86536793

>  <Name>
ligand

>  <RI>
0

>  <Rbt.Current_Directory>
/home/itssahil/PROJECTS/Mol_Feturizer/New_Systems/rnas/3SLQ

>  <Rbt.Executable>
rbdock ($Id: //depot/dev/client3/rdock/2013.1/src/exe/rbdock.cxx#4 $)

>  <Rbt.Library>
libRbt.so (2013.1, Build901 2013/11/27)

>  <Rbt.Parameter_File>
/export/apps/rDock/src/rDock_2013.1_src/data/scripts/dock_solv.prm

>  <Rbt.Receptor>
prm/pocket_docking_2.prm

>  <SCORE>
-20.4849

>  <SCORE.INTER>
-15.6074

>  <SCORE.INTER.CONST>
1

>  <SCORE.INTER.POLAR>
0

>  <SCORE.INTER.ROT>
4

>  <SCORE.INTER.SOLV>
20.2149

>  <SCORE.INTER.VDW>
-23.4099

>  <SCORE.INTER.norm>
-0.650306

>  <SCORE.INTRA>
-4.88183

>  <SCORE.INTRA.DIHEDRAL>
-11.3384

>  <SCORE.INTRA.DIHEDRAL.0>
13.2525

>  <SCORE.INTRA.POLAR>
0

>  <SCORE.INTRA.POLAR.0>
0

>  <SCORE.INTRA.REPUL>
0

>  <SCORE.INTRA.REPUL.0>
0

>  <SCORE.INTRA.SOLV>
2.66218

>  <SCORE.INTRA.SOLV.lig_0>
-70.7221

>  <SCORE.INTRA.VDW>
-0.543695

>  <SCORE.INTRA.VDW.0>
-1.46337

>  <SCORE.INTRA.norm>
-0.203409

>  <SCORE.RESTR>
0.00430723

>  <SCORE.RESTR.CAVITY>
0.00430723

>  <SCORE.RESTR.norm>
0.000179468

>  <SCORE.SYSTEM>
0

>  <SCORE.SYSTEM.CONST>
0

>  <SCORE.SYSTEM.DIHEDRAL>
0

>  <SCORE.SYSTEM.SOLV>
0

>  <SCORE.SYSTEM.norm>
0

>  <SCORE.heavy>
24

>  <SCORE.norm>
-0.853536

>  <RMSD>
0.640

$$$$
ligand
 OpenBabel11021811483D
libRbt.so/2013.1/901 2013/11/27
 24 26  0  0  0  0  0  0  0  0999 V2000
   -6.9554   -7.1234   14.7257 P   0  0  1  0  0  0  0  0  0  0  0  0
   -6.8253   -6.4001   16.0491 O   0  0  0  0  0  0  0  0  0  0  0  0
   -6.5690   -8.5837   14.7190 O   0  5  0  0  0  0  0  0  0  0  0  0
   -8.2675   -6.8591   14.0023 O   0  0  0  0  0  0  0  0  0  0  0  0
   -5.4272   -6.9530   12.5010 C   0  0  0  0  0  0  0  0  0  0  0  0
   -5.7670   -6.4887   13.8190 O   0  0  0  0  0  0  0  0  0  0  0  0
   -6.5633   -6.6296   11.5260 C   0  0  1  0  0  0  0  0  0  0  0  0
   -6.7120   -5.2180   11.3280 O   0  0  0  0  0  0  0  0  0  0  0  0
   -6.4006   -7.2237   10.1374 C   0  0  1  0  0  0  0  0  0  0  0  0
   -7.0254   -8.5104   10.1081 O   0  0  0  0  0  0  0  0  0  0  0  0
   -7.1269   -6.2311    9.2445 C   0  0  1  0  0  0  0  0  0  0  0  0
   -8.5386   -6.4869    9.2529 O   0  0  0  0  0  0  0  0  0  0  0  0
   -6.9406   -4.9020    9.9491 C   0  0  2  0  0  0  0  0  0  0  0  0
   -4.8815   -0.2457    9.5804 N   0  0  0  0  0  0  0  0  0  0  0  0
   -6.0996   -0.6127   10.0397 C   0  0  1  0  0  0  0  0  0  0  0  0
   -6.9490    0.3385   10.4897 N   0  0  0  0  0  0  0  0  0  0  0  0
   -6.4760   -1.9128   10.0535 N   0  0  0  0  0  0  0  0  0  0  0  0
   -5.6209   -2.8608    9.6008 C   0  0  1  0  0  0  0  0  0  0  0  0
   -4.3717   -2.5145    9.1247 C   0  0  2  0  0  0  0  0  0  0  0  0
   -4.0091   -1.1726    9.1220 C   0  0  0  0  0  0  0  0  0  0  0  0
   -2.8909   -0.8166    8.7007 O   0  0  0  0  0  0  0  0  0  0  0  0
   -3.7590   -3.6542    8.7445 N   0  0  0  0  0  0  0  0  0  0  0  0
   -4.6080   -4.6799    8.9876 C   0  0  0  0  0  0  0  0  0  0  0  0
   -5.7327   -4.1795    9.5088 N   0  0  1  0  0  0  0  0  0  0  0  0
  1  2  1  1  0  0  0
  1  3  1  0  0  0  0
  1  4  2  0  0  0  0
  1  6  1  0  0  0  0
  5  6  1  0  0  0  0
  7  5  1  1  0  0  0
  7  8  1  0  0  0  0
  7  9  1  0  0  0  0
  9 10  1  1  0  0  0
  9 11  1  0  0  0  0
 11 12  1  1  0  0  0
 11 13  1  0  0  0  0
 13  8  1  1  0  0  0
 13 24  1  0  0  0  0
 14 15  1  0  0  0  0
 14 20  1  0  0  0  0
 15 16  1  6  0  0  0
 15 17  1  0  0  0  0
 18 17  1  1  0  0  0
 18 19  1  0  0  0  0
 18 24  1  0  0  0  0
 19 20  1  6  0  0  0
 19 22  1  0  0  0  0
 20 21  2  0  0  0  0
 22 23  1  0  0  0  0
 24 23  1  1  0  0  0
M  CHG  1   3  -1
M  END
>  <CHROM.1>
174.57934332,66.87805162,67.79932776,-89.81265019,-6.11309144,-4.81667239
11.18255663,-2.82488195,-1.28629589,-1.89178374

>  <Name>
ligand

>  <RI>
0

>  <Rbt.Current_Directory>
/home/itssahil/PROJECTS/Mol_Feturizer/New_Systems/rnas/3SLQ

>  <Rbt.Executable>
rbdock ($Id: //depot/dev/client3/rdock/2013.1/src/exe/rbdock.cxx#4 $)

>  <Rbt.Library>
libRbt.so (2013.1, Build901 2013/11/27)

>  <Rbt.Parameter_File>
/export/apps/rDock/src/rDock_2013.1_src/data/scripts/dock_solv.prm

>  <Rbt.Receptor>
prm/pocket_docking_2.prm

>  <SCORE>
-20.4271

>  <SCORE.INTER>
-15.4774

>  <SCORE.INTER.CONST>
1

>  <SCORE.INTER.POLAR>
0

>  <SCORE.INTER.ROT>
4

>  <SCORE.INTER.SOLV>
20.1895

>  <SCORE.INTER.VDW>
-23.3148

>  <SCORE.INTER.norm>
-0.644891

>  <SCORE.INTRA>
-4.94973

>  <SCORE.INTRA.DIHEDRAL>
-11.5604

>  <SCORE.INTRA.DIHEDRAL.0>
13.2525

>  <SCORE.INTRA.POLAR>
0

>  <SCORE.INTRA.POLAR.0>
0

>  <SCORE.INTRA.REPUL>
0

>  <SCORE.INTRA.REPUL.0>
0

>  <SCORE.INTRA.SOLV>
2.75659

>  <SCORE.INTRA.SOLV.lig_0>
-70.7221

>  <SCORE.INTRA.VDW>
-0.547835

>  <SCORE.INTRA.VDW.0>
-1.46337

>  <SCORE.INTRA.norm>
-0.206239

>  <SCORE.RESTR>
0

>  <SCORE.RESTR.CAVITY>
0

>  <SCORE.RESTR.norm>
0

>  <SCORE.SYSTEM>
0

>  <SCORE.SYSTEM.CONST>
0

>  <SCORE.SYSTEM.DIHEDRAL>
0

>  <SCORE.SYSTEM.SOLV>
0

>  <SCORE.SYSTEM.norm>
0

>  <SCORE.heavy>
24

>  <SCORE.norm>
-0.85113

>  <RMSD>
0.653

$$$$
ligand
 OpenBabel11021811483D
libRbt.so/2013.1/901 2013/11/27
 24 26  0  0  0  0  0  0  0  0999 V2000
   -7.3631   -7.4575   14.7002 P   0  0  1  0  0  0  0  0  0  0  0  0
   -7.2359   -6.5785   15.9260 O   0  0  0  0  0  0  0  0  0  0  0  0
   -6.9196   -8.8931   14.8559 O   0  5  0  0  0  0  0  0  0  0  0  0
   -8.6983   -7.3292   13.9823 O   0  0  0  0  0  0  0  0  0  0  0  0
   -6.3269   -5.6543   12.9715 C   0  0  0  0  0  0  0  0  0  0  0  0
   -6.2183   -6.8912   13.6972 O   0  0  0  0  0  0  0  0  0  0  0  0
   -7.0342   -5.8952   11.6345 C   0  0  1  0  0  0  0  0  0  0  0  0
   -7.1807   -4.6845   10.8817 O   0  0  0  0  0  0  0  0  0  0  0  0
   -6.3308   -6.8720   10.7078 C   0  0  1  0  0  0  0  0  0  0  0  0
   -6.8231   -8.1905   10.9647 O   0  0  0  0  0  0  0  0  0  0  0  0
   -6.7285   -6.3888    9.3226 C   0  0  1  0  0  0  0  0  0  0  0  0
   -8.0238   -6.8929    8.9672 O   0  0  0  0  0  0  0  0  0  0  0  0
   -6.8966   -4.8920    9.4925 C   0  0  2  0  0  0  0  0  0  0  0  0
   -4.8805   -0.2031    9.5713 N   0  0  0  0  0  0  0  0  0  0  0  0
   -6.1389   -0.6024    9.8654 C   0  0  1  0  0  0  0  0  0  0  0  0
   -7.0504    0.3192   10.2506 N   0  0  0  0  0  0  0  0  0  0  0  0
   -6.4940   -1.9056    9.7788 N   0  0  0  0  0  0  0  0  0  0  0  0
   -5.5765   -2.8240    9.3918 C   0  0  1  0  0  0  0  0  0  0  0  0
   -4.2850   -2.4442    9.0838 C   0  0  2  0  0  0  0  0  0  0  0  0
   -3.9455   -1.0999    9.1816 C   0  0  0  0  0  0  0  0  0  0  0  0
   -2.7907   -0.7142    8.9127 O   0  0  0  0  0  0  0  0  0  0  0  0
   -3.6138   -3.5597    8.7315 N   0  0  0  0  0  0  0  0  0  0  0  0
   -4.4698   -4.6038    8.8274 C   0  0  0  0  0  0  0  0  0  0  0  0
   -5.6561   -4.1384    9.2310 N   0  0  1  0  0  0  0  0  0  0  0  0
  1  2  1  1  0  0  0
  1  3  1  0  0  0  0
  1  4  2  0  0  0  0
  1  6  1  0  0  0  0
  5  6  1  0  0  0  0
  7  5  1  1  0  0  0
  7  8  1  0  0  0  0
  7  9  1  0  0  0  0
  9 10  1  1  0  0  0
  9 11  1  0  0  0  0
 11 12  1  1  0  0  0
 11 13  1  0  0  0  0
 13  8  1  1  0  0  0
 13 24  1  0  0  0  0
 14 15  1  0  0  0  0
 14 20  1  0  0  0  0
 15 16  1  6  0  0  0
 15 17  1  0  0  0  0
 18 17  1  1  0  0  0
 18 19  1  0  0  0  0
 18 24  1  0  0  0  0
 19 20  1  6  0  0  0
 19 22  1  0  0  0  0
 20 21  2  0  0  0  0
 22 23  1  0  0  0  0
 24 23  1  1  0  0  0
M  CHG  1   3  -1
M  END
>  <CHROM.1>
-74.32888483,179.26583155,-87.71597989,-61.34175276,-6.22698441,-4.78106746
11.16948791,3.11903866,-1.26042056,-2.25830638

>  <Name>
ligand

>  <RI>
0

>  <Rbt.Current_Directory>
/home/itssahil/PROJECTS/Mol_Feturizer/New_Systems/rnas/3SLQ

>  <Rbt.Executable>
rbdock ($Id: //depot/dev/client3/rdock/2013.1/src/exe/rbdock.cxx#4 $)

>  <Rbt.Library>
libRbt.so (2013.1, Build901 2013/11/27)

>  <Rbt.Parameter_File>
/export/apps/rDock/src/rDock_2013.1_src/data/scripts/dock_solv.prm

>  <Rbt.Receptor>
prm/pocket_docking_2.prm

>  <SCORE>
-19.5942

>  <SCORE.INTER>
-16.0103

>  <SCORE.INTER.CONST>
1

>  <SCORE.INTER.POLAR>
0

>  <SCORE.INTER.ROT>
4

>  <SCORE.INTER.SOLV>
19.7178

>  <SCORE.INTER.VDW>
-23.5128

>  <SCORE.INTER.norm>
-0.667095

>  <SCORE.INTRA>
-3.63839

>  <SCORE.INTRA.DIHEDRAL>
-8.56133

>  <SCORE.INTRA.DIHEDRAL.0>
13.2525

>  <SCORE.INTRA.POLAR>
0

>  <SCORE.INTRA.POLAR.0>
0

>  <SCORE.INTRA.REPUL>
0

>  <SCORE.INTRA.REPUL.0>
0

>  <SCORE.INTRA.SOLV>
2.61475

>  <SCORE.INTRA.SOLV.lig_0>
-70.7221

>  <SCORE.INTRA.VDW>
-0.665104

>  <SCORE.INTRA.VDW.0>
-1.46337

>  <SCORE.INTRA.norm>
-0.1516

>  <SCORE.RESTR>
0.0544586

>  <SCORE.RESTR.CAVITY>
0.0544586

>  <SCORE.RESTR.norm>
0.00226911

>  <SCORE.SYSTEM>
0

>  <SCORE.SYSTEM.CONST>
0

>  <SCORE.SYSTEM.DIHEDRAL>
0

>  <SCORE.SYSTEM.SOLV>
0

>  <SCORE.SYSTEM.norm>
0

>  <SCORE.heavy>
24

>  <SCORE.norm>
-0.816426

>  <RMSD>
0.680

$$$$
ligand
 OpenBabel11021811483D
libRbt.so/2013.1/901 2013/11/27
 24 26  0  0  0  0  0  0  0  0999 V2000
   -6.8120   -7.6295   14.7884 P   0  0  1  0  0  0  0  0  0  0  0  0
   -5.4454   -7.0081   14.9824 O   0  0  0  0  0  0  0  0  0  0  0  0
   -6.8738   -9.1383   14.8259 O   0  5  0  0  0  0  0  0  0  0  0  0
   -7.9118   -6.9753   15.6113 O   0  0  0  0  0  0  0  0  0  0  0  0
   -7.1461   -6.0414   12.6250 C   0  0  0  0  0  0  0  0  0  0  0  0
   -7.1465   -7.3488   13.2242 O   0  0  0  0  0  0  0  0  0  0  0  0
   -7.6939   -6.1228   11.1971 C   0  0  1  0  0  0  0  0  0  0  0  0
   -7.6863   -4.8450   10.5481 O   0  0  0  0  0  0  0  0  0  0  0  0
   -6.9307   -7.0567   10.2734 C   0  0  1  0  0  0  0  0  0  0  0  0
   -7.5156   -8.3602   10.3464 O   0  0  0  0  0  0  0  0  0  0  0  0
   -7.1299   -6.4325    8.9019 C   0  0  1  0  0  0  0  0  0  0  0  0
   -8.3948   -6.8248    8.3501 O   0  0  0  0  0  0  0  0  0  0  0  0
   -7.2434   -4.9485    9.1892 C   0  0  2  0  0  0  0  0  0  0  0  0
   -5.0323   -0.4004    9.8837 N   0  0  0  0  0  0  0  0  0  0  0  0
   -6.3363   -0.7458    9.9820 C   0  0  1  0  0  0  0  0  0  0  0  0
   -7.2454    0.1980   10.3155 N   0  0  0  0  0  0  0  0  0  0  0  0
   -6.7391   -2.0173    9.7514 N   0  0  0  0  0  0  0  0  0  0  0  0
   -5.8237   -2.9581    9.4170 C   0  0  1  0  0  0  0  0  0  0  0  0
   -4.4859   -2.6331    9.3078 C   0  0  2  0  0  0  0  0  0  0  0  0
   -4.0980   -1.3206    9.5506 C   0  0  0  0  0  0  0  0  0  0  0  0
   -2.9005   -0.9845    9.4629 O   0  0  0  0  0  0  0  0  0  0  0  0
   -3.8284   -3.7584    8.9611 N   0  0  0  0  0  0  0  0  0  0  0  0
   -4.7387   -4.7555    8.8662 C   0  0  0  0  0  0  0  0  0  0  0  0
   -5.9444   -4.2514    9.1478 N   0  0  1  0  0  0  0  0  0  0  0  0
  1  2  1  1  0  0  0
  1  3  1  0  0  0  0
  1  4  2  0  0  0  0
  1  6  1  0  0  0  0
  5  6  1  0  0  0  0
  7  5  1  1  0  0  0
  7  8  1  0  0  0  0
  7  9  1  0  0  0  0
  9 10  1  6  0  0  0
  9 11  1  0  0  0  0
 11 12  1  1  0  0  0
 11 13  1  0  0  0  0
 13  8  1  1  0  0  0
 13 24  1  0  0  0  0
 14 15  1  0  0  0  0
 14 20  1  0  0  0  0
 15 16  1  6  0  0  0
 15 17  1  0  0  0  0
 18 17  1  1  0  0  0
 18 19  1  0  0  0  0
 18 24  1  0  0  0  0
 19 20  1  6  0  0  0
 19 22  1  0  0  0  0
 20 21  2  0  0  0  0
 22 23  1  0  0  0  0
 24 23  1  1  0  0  0
M  CHG  1   3  -1
M  END
>  <CHROM.1>
-55.77800275,-178.76465825,-172.02398324,-62.47893841,-6.36342206,-4.94683176
11.11305518,-2.21192898,-1.14742252,-1.24093280

>  <Name>
ligand

>  <RI>
0

>  <Rbt.Current_Directory>
/home/itssahil/PROJECTS/Mol_Feturizer/New_Systems/rnas/3SLQ

>  <Rbt.Executable>
rbdock ($Id: //depot/dev/client3/rdock/2013.1/src/exe/rbdock.cxx#4 $)

>  <Rbt.Library>
libRbt.so (2013.1, Build901 2013/11/27)

>  <Rbt.Parameter_File>
/export/apps/rDock/src/rDock_2013.1_src/data/scripts/dock_solv.prm

>  <Rbt.Receptor>
prm/pocket_docking_2.prm

>  <SCORE>
-18.55

>  <SCORE.INTER>
-12.5406

>  <SCORE.INTER.CONST>
1

>  <SCORE.INTER.POLAR>
0

>  <SCORE.INTER.ROT>
4

>  <SCORE.INTER.SOLV>
22.2013

>  <SCORE.INTER.VDW>
-22.0275

>  <SCORE.INTER.norm>
-0.522526

>  <SCORE.INTRA>
-6.00937

>  <SCORE.INTRA.DIHEDRAL>
-11.7092

>  <SCORE.INTRA.DIHEDRAL.0>
13.2525

>  <SCORE.INTRA.POLAR>
0

>  <SCORE.INTRA.POLAR.0>
0

>  <SCORE.INTRA.REPUL>
0

>  <SCORE.INTRA.REPUL.0>
0

>  <SCORE.INTRA.SOLV>
0.0342539

>  <SCORE.INTRA.SOLV.lig_0>
-70.7221

>  <SCORE.INTRA.VDW>
-0.171891

>  <SCORE.INTRA.VDW.0>
-1.46337

>  <SCORE.INTRA.norm>
-0.250391

>  <SCORE.RESTR>
0

>  <SCORE.RESTR.CAVITY>
0

>  <SCORE.RESTR.norm>
0

>  <SCORE.SYSTEM>
0

>  <SCORE.SYSTEM.CONST>
0

>  <SCORE.SYSTEM.DIHEDRAL>
0

>  <SCORE.SYSTEM.SOLV>
0

>  <SCORE.SYSTEM.norm>
0

>  <SCORE.heavy>
24

>  <SCORE.norm>
-0.772916

>  <RMSD>
0.680

$$$$
ligand
 OpenBabel11021811483D
libRbt.so/2013.1/901 2013/11/27
 24 26  0  0  0  0  0  0  0  0999 V2000
   -7.1314   -7.6317   14.9066 P   0  0  1  0  0  0  0  0  0  0  0  0
   -5.9656   -6.8516   15.4758 O   0  0  0  0  0  0  0  0  0  0  0  0
   -7.0768   -9.1325   15.0688 O   0  5  0  0  0  0  0  0  0  0  0  0
   -8.4938   -7.0518   15.2561 O   0  0  0  0  0  0  0  0  0  0  0  0
   -6.9009   -6.2335   12.6032 C   0  0  0  0  0  0  0  0  0  0  0  0
   -6.9437   -7.4910   13.2997 O   0  0  0  0  0  0  0  0  0  0  0  0
   -7.3671   -6.4232   11.1567 C   0  0  1  0  0  0  0  0  0  0  0  0
   -7.4288   -5.1792   10.4476 O   0  0  0  0  0  0  0  0  0  0  0  0
   -6.4857   -7.3312   10.3163 C   0  0  1  0  0  0  0  0  0  0  0  0
   -6.9673   -8.6740   10.4248 O   0  0  0  0  0  0  0  0  0  0  0  0
   -6.6641   -6.7873    8.9083 C   0  0  1  0  0  0  0  0  0  0  0  0
   -7.8639   -7.3065    8.3172 O   0  0  0  0  0  0  0  0  0  0  0  0
   -6.9105   -5.3063    9.1176 C   0  0  2  0  0  0  0  0  0  0  0  0
   -5.0780   -0.6089    9.9131 N   0  0  0  0  0  0  0  0  0  0  0  0
   -6.3512   -1.0589    9.9897 C   0  0  1  0  0  0  0  0  0  0  0  0
   -7.3365   -0.1965   10.3271 N   0  0  0  0  0  0  0  0  0  0  0  0
   -6.6484   -2.3543    9.7335 N   0  0  0  0  0  0  0  0  0  0  0  0
   -5.6571   -3.2132    9.3953 C   0  0  1  0  0  0  0  0  0  0  0  0
   -4.3485   -2.7807    9.3080 C   0  0  2  0  0  0  0  0  0  0  0  0
   -4.0695   -1.4458    9.5768 C   0  0  0  0  0  0  0  0  0  0  0  0
   -2.9018   -1.0138    9.5094 O   0  0  0  0  0  0  0  0  0  0  0  0
   -3.5993   -3.8439    8.9512 N   0  0  0  0  0  0  0  0  0  0  0  0
   -4.4259   -4.9086    8.8289 C   0  0  0  0  0  0  0  0  0  0  0  0
   -5.6710   -4.5072    9.1037 N   0  0  1  0  0  0  0  0  0  0  0  0
  1  2  1  1  0  0  0
  1  3  1  0  0  0  0
  1  4  2  0  0  0  0
  1  6  1  0  0  0  0
  5  6  1  0  0  0  0
  7  5  1  1  0  0  0
  7  8  1  0  0  0  0
  7  9  1  0  0  0  0
  9 10  1  6  0  0  0
  9 11  1  0  0  0  0
 11 12  1  1  0  0  0
 11 13  1  0  0  0  0
 13  8  1  1  0  0  0
 13 24  1  0  0  0  0
 14 15  1  0  0  0  0
 14 20  1  0  0  0  0
 15 16  1  6  0  0  0
 15 17  1  0  0  0  0
 18 17  1  1  0  0  0
 18 19  1  0  0  0  0
 18 24  1  0  0  0  0
 19 20  1  6  0  0  0
 19 22  1  0  0  0  0
 20 21  2  0  0  0  0
 22 23  1  0  0  0  0
 24 23  1  1  0  0  0
M  CHG  1   3  -1
M  END
>  <CHROM.1>
-58.20144987,176.02082497,-153.59800206,-58.27109361,-6.27420951,-5.14070371
11.13832941,-2.74427673,-1.26019464,-1.82985426

>  <Name>
ligand

>  <RI>
0

>  <Rbt.Current_Directory>
/home/itssahil/PROJECTS/Mol_Feturizer/New_Systems/rnas/3SLQ

>  <Rbt.Executable>
rbdock ($Id: //depot/dev/client3/rdock/2013.1/src/exe/rbdock.cxx#4 $)

>  <Rbt.Library>
libRbt.so (2013.1, Build901 2013/11/27)

>  <Rbt.Parameter_File>
/export/apps/rDock/src/rDock_2013.1_src/data/scripts/dock_solv.prm

>  <Rbt.Receptor>
prm/pocket_docking_2.prm

>  <SCORE>
-18.4105

>  <SCORE.INTER>
-13.7543

>  <SCORE.INTER.CONST>
1

>  <SCORE.INTER.POLAR>
0

>  <SCORE.INTER.ROT>
4

>  <SCORE.INTER.SOLV>
21.0875

>  <SCORE.INTER.VDW>
-22.4653

>  <SCORE.INTER.norm>
-0.573095

>  <SCORE.INTRA>
-4.66825

>  <SCORE.INTRA.DIHEDRAL>
-9.06042

>  <SCORE.INTRA.DIHEDRAL.0>
13.2525

>  <SCORE.INTRA.POLAR>
0

>  <SCORE.INTRA.POLAR.0>
0

>  <SCORE.INTRA.REPUL>
0

>  <SCORE.INTRA.REPUL.0>
0

>  <SCORE.INTRA.SOLV>
0.115736

>  <SCORE.INTRA.SOLV.lig_0>
-70.7221

>  <SCORE.INTRA.VDW>
-0.195909

>  <SCORE.INTRA.VDW.0>
-1.46337

>  <SCORE.INTRA.norm>
-0.194511

>  <SCORE.RESTR>
0.0120149

>  <SCORE.RESTR.CAVITY>
0.0120149

>  <SCORE.RESTR.norm>
0.000500622

>  <SCORE.SYSTEM>
0

>  <SCORE.SYSTEM.CONST>
0

>  <SCORE.SYSTEM.DIHEDRAL>
0

>  <SCORE.SYSTEM.SOLV>
0

>  <SCORE.SYSTEM.norm>
0

>  <SCORE.heavy>
24

>  <SCORE.norm>
-0.767105

>  <RMSD>
0.726

$$$$
ligand
 OpenBabel11021811483D
libRbt.so/2013.1/901 2013/11/27
 24 26  0  0  0  0  0  0  0  0999 V2000
   -6.8518   -7.6937   14.8067 P   0  0  1  0  0  0  0  0  0  0  0  0
   -5.4982   -7.0532   15.0279 O   0  0  0  0  0  0  0  0  0  0  0  0
   -6.9066   -9.1994   14.9140 O   0  5  0  0  0  0  0  0  0  0  0  0
   -7.9892   -7.0095   15.5502 O   0  0  0  0  0  0  0  0  0  0  0  0
   -7.0112   -6.2271   12.5401 C   0  0  0  0  0  0  0  0  0  0  0  0
   -7.1212   -7.4905   13.2182 O   0  0  0  0  0  0  0  0  0  0  0  0
   -7.4776   -6.3726   11.0886 C   0  0  1  0  0  0  0  0  0  0  0  0
   -7.5110   -5.1113   10.4089 O   0  0  0  0  0  0  0  0  0  0  0  0
   -6.6136   -7.2792   10.2288 C   0  0  1  0  0  0  0  0  0  0  0  0
   -7.1239   -8.6136   10.3045 O   0  0  0  0  0  0  0  0  0  0  0  0
   -6.7769   -6.6985    8.8336 C   0  0  1  0  0  0  0  0  0  0  0  0
   -7.9859   -7.1779    8.2281 O   0  0  0  0  0  0  0  0  0  0  0  0
   -6.9923   -5.2180    9.0774 C   0  0  2  0  0  0  0  0  0  0  0  0
   -5.0756   -0.5581    9.8952 N   0  0  0  0  0  0  0  0  0  0  0  0
   -6.3593   -0.9808    9.9487 C   0  0  1  0  0  0  0  0  0  0  0  0
   -7.3323   -0.0966   10.2652 N   0  0  0  0  0  0  0  0  0  0  0  0
   -6.6792   -2.2704    9.6904 N   0  0  0  0  0  0  0  0  0  0  0  0
   -5.7001   -3.1511    9.3733 C   0  0  1  0  0  0  0  0  0  0  0  0
   -4.3811   -2.7467    9.3097 C   0  0  2  0  0  0  0  0  0  0  0  0
   -4.0790   -1.4172    9.5802 C   0  0  0  0  0  0  0  0  0  0  0  0
   -2.9013   -1.0102    9.5338 O   0  0  0  0  0  0  0  0  0  0  0  0
   -3.6481   -3.8266    8.9699 N   0  0  0  0  0  0  0  0  0  0  0  0
   -4.4947   -4.8739    8.8348 C   0  0  0  0  0  0  0  0  0  0  0  0
   -5.7360   -4.4454    9.0849 N   0  0  1  0  0  0  0  0  0  0  0  0
  1  2  1  1  0  0  0
  1  3  1  0  0  0  0
  1  4  2  0  0  0  0
  1  6  1  0  0  0  0
  5  6  1  0  0  0  0
  7  5  1  1  0  0  0
  7  8  1  0  0  0  0
  7  9  1  0  0  0  0
  9 10  1  6  0  0  0
  9 11  1  0  0  0  0
 11 12  1  1  0  0  0
 11 13  1  0  0  0  0
 13  8  1  1  0  0  0
 13 24  1  0  0  0  0
 14 15  1  0  0  0  0
 14 20  1  0  0  0  0
 15 16  1  6  0  0  0
 15 17  1  0  0  0  0
 18 17  1  1  0  0  0
 18 19  1  0  0  0  0
 18 24  1  0  0  0  0
 19 20  1  6  0  0  0
 19 22  1  0  0  0  0
 20 21  2  0  0  0  0
 22 23  1  0  0  0  0
 24 23  1  1  0  0  0
M  CHG  1   3  -1
M  END
>  <CHROM.1>
-51.24653552,174.26552311,-173.96433565,-60.05999245,-6.25375448,-5.11362837
11.08294840,-2.43854118,-1.23421280,-1.49247862

>  <Name>
ligand

>  <RI>
0

>  <Rbt.Current_Directory>
/home/itssahil/PROJECTS/Mol_Feturizer/New_Systems/rnas/3SLQ

>  <Rbt.Executable>
rbdock ($Id: //depot/dev/client3/rdock/2013.1/src/exe/rbdock.cxx#4 $)

>  <Rbt.Library>
libRbt.so (2013.1, Build901 2013/11/27)

>  <Rbt.Parameter_File>
/export/apps/rDock/src/rDock_2013.1_src/data/scripts/dock_solv.prm

>  <Rbt.Receptor>
prm/pocket_docking_2.prm

>  <SCORE>
-18.8598

>  <SCORE.INTER>
-12.8597

>  <SCORE.INTER.CONST>
1

>  <SCORE.INTER.POLAR>
0

>  <SCORE.INTER.ROT>
4

>  <SCORE.INTER.SOLV>
22.1331

>  <SCORE.INTER.VDW>
-22.2175

>  <SCORE.INTER.norm>
-0.535821

>  <SCORE.INTRA>
-6.00004

>  <SCORE.INTRA.DIHEDRAL>
-11.6287

>  <SCORE.INTRA.DIHEDRAL.0>
13.2525

>  <SCORE.INTRA.POLAR>
0

>  <SCORE.INTRA.POLAR.0>
0

>  <SCORE.INTRA.REPUL>
0

>  <SCORE.INTRA.REPUL.0>
0

>  <SCORE.INTRA.SOLV>
-0.0304972

>  <SCORE.INTRA.SOLV.lig_0>
-70.7221

>  <SCORE.INTRA.VDW>
-0.170461

>  <SCORE.INTRA.VDW.0>
-1.46337

>  <SCORE.INTRA.norm>
-0.250002

>  <SCORE.RESTR>
0

>  <SCORE.RESTR.CAVITY>
0

>  <SCORE.RESTR.norm>
0

>  <SCORE.SYSTEM>
0

>  <SCORE.SYSTEM.CONST>
0

>  <SCORE.SYSTEM.DIHEDRAL>
0

>  <SCORE.SYSTEM.SOLV>
0

>  <SCORE.SYSTEM.norm>
0

>  <SCORE.heavy>
24

>  <SCORE.norm>
-0.785823

>  <RMSD>
0.751

$$$$
ligand
 OpenBabel11021811483D
libRbt.so/2013.1/901 2013/11/27
 24 26  0  0  0  0  0  0  0  0999 V2000
   -7.2064   -7.6039   14.8333 P   0  0  1  0  0  0  0  0  0  0  0  0
   -7.1036   -6.3173   15.6242 O   0  0  0  0  0  0  0  0  0  0  0  0
   -5.9020   -8.2283   14.3966 O   0  5  0  0  0  0  0  0  0  0  0  0
   -8.1749   -8.6178   15.4237 O   0  0  0  0  0  0  0  0  0  0  0  0
   -7.3895   -5.9495   12.7019 C   0  0  0  0  0  0  0  0  0  0  0  0
   -7.8131   -7.1316   13.4029 O   0  0  0  0  0  0  0  0  0  0  0  0
   -8.0275   -5.9128   11.3100 C   0  0  1  0  0  0  0  0  0  0  0  0
   -7.9400   -4.6113   10.7162 O   0  0  0  0  0  0  0  0  0  0  0  0
   -7.4116   -6.8665   10.3006 C   0  0  1  0  0  0  0  0  0  0  0  0
   -8.1098   -8.1140   10.3562 O   0  0  0  0  0  0  0  0  0  0  0  0
   -7.6340   -6.1621    8.9722 C   0  0  1  0  0  0  0  0  0  0  0  0
   -8.9608   -6.4117    8.4870 O   0  0  0  0  0  0  0  0  0  0  0  0
   -7.5914   -4.6893    9.3284 C   0  0  2  0  0  0  0  0  0  0  0  0
   -4.9593   -0.3536    9.9028 N   0  0  0  0  0  0  0  0  0  0  0  0
   -6.2842   -0.5807   10.0526 C   0  0  1  0  0  0  0  0  0  0  0  0
   -7.0924    0.4421   10.4122 N   0  0  0  0  0  0  0  0  0  0  0  0
   -6.8071   -1.8123    9.8475 N   0  0  0  0  0  0  0  0  0  0  0  0
   -5.9924   -2.8326    9.4869 C   0  0  1  0  0  0  0  0  0  0  0  0
   -4.6361   -2.6288    9.3252 C   0  0  2  0  0  0  0  0  0  0  0  0
   -4.1240   -1.3550    9.5426 C   0  0  0  0  0  0  0  0  0  0  0  0
   -2.9056   -1.1276    9.4075 O   0  0  0  0  0  0  0  0  0  0  0  0
   -4.0950   -3.8100    8.9632 N   0  0  0  0  0  0  0  0  0  0  0  0
   -5.0935   -4.7223    8.9106 C   0  0  0  0  0  0  0  0  0  0  0  0
   -6.2380   -4.1112    9.2329 N   0  0  1  0  0  0  0  0  0  0  0  0
  1  2  1  1  0  0  0
  1  3  1  0  0  0  0
  1  4  2  0  0  0  0
  1  6  1  0  0  0  0
  5  6  1  0  0  0  0
  7  5  1  1  0  0  0
  7  8  1  0  0  0  0
  7  9  1  0  0  0  0
  9 10  1  6  0  0  0
  9 11  1  0  0  0  0
 11 12  1  1  0  0  0
 11 13  1  0  0  0  0
 13  8  1  1  0  0  0
 13 24  1  0  0  0  0
 14 15  1  0  0  0  0
 14 20  1  0  0  0  0
 15 16  1  6  0  0  0
 15 17  1  0  0  0  0
 18 17  1  1  0  0  0
 18 19  1  0  0  0  0
 18 24  1  0  0  0  0
 19 20  1  6  0  0  0
 19 22  1  0  0  0  0
 20 21  2  0  0  0  0
 22 23  1  0  0  0  0
 24 23  1  1  0  0  0
M  CHG  1   3  -1
M  END
>  <CHROM.1>
42.17744245,164.18973861,172.35427224,-65.75436583,-6.64302451,-4.83221353
11.17204095,-2.18624688,-1.05017614,-1.19705363

>  <Name>
ligand

>  <RI>
0

>  <Rbt.Current_Directory>
/home/itssahil/PROJECTS/Mol_Feturizer/New_Systems/rnas/3SLQ

>  <Rbt.Executable>
rbdock ($Id: //depot/dev/client3/rdock/2013.1/src/exe/rbdock.cxx#4 $)

>  <Rbt.Library>
libRbt.so (2013.1, Build901 2013/11/27)

>  <Rbt.Parameter_File>
/export/apps/rDock/src/rDock_2013.1_src/data/scripts/dock_solv.prm

>  <Rbt.Receptor>
prm/pocket_docking_2.prm

>  <SCORE>
-18.8433

>  <SCORE.INTER>
-13.5211

>  <SCORE.INTER.CONST>
1

>  <SCORE.INTER.POLAR>
0

>  <SCORE.INTER.ROT>
4

>  <SCORE.INTER.SOLV>
19.6745

>  <SCORE.INTER.VDW>
-21.8389

>  <SCORE.INTER.norm>
-0.56338

>  <SCORE.INTRA>
-5.3222

>  <SCORE.INTRA.DIHEDRAL>
-10.4351

>  <SCORE.INTRA.DIHEDRAL.0>
13.2525

>  <SCORE.INTRA.POLAR>
0

>  <SCORE.INTRA.POLAR.0>
0

>  <SCORE.INTRA.REPUL>
0

>  <SCORE.INTRA.REPUL.0>
0

>  <SCORE.INTRA.SOLV>
0.0518201

>  <SCORE.INTRA.SOLV.lig_0>
-70.7221

>  <SCORE.INTRA.VDW>
-0.130575

>  <SCORE.INTRA.VDW.0>
-1.46337

>  <SCORE.INTRA.norm>
-0.221758

>  <SCORE.RESTR>
0

>  <SCORE.RESTR.CAVITY>
0

>  <SCORE.RESTR.norm>
0

>  <SCORE.SYSTEM>
0

>  <SCORE.SYSTEM.CONST>
0

>  <SCORE.SYSTEM.DIHEDRAL>
0

>  <SCORE.SYSTEM.SOLV>
0

>  <SCORE.SYSTEM.norm>
0

>  <SCORE.heavy>
24

>  <SCORE.norm>
-0.785138

>  <RMSD>
0.753

$$$$
ligand
 OpenBabel11021811483D
libRbt.so/2013.1/901 2013/11/27
 24 26  0  0  0  0  0  0  0  0999 V2000
   -7.1864   -7.6204   14.8847 P   0  0  1  0  0  0  0  0  0  0  0  0
   -7.0516   -6.3261   15.6581 O   0  0  0  0  0  0  0  0  0  0  0  0
   -5.8983   -8.2779   14.4485 O   0  5  0  0  0  0  0  0  0  0  0  0
   -8.1724   -8.6057   15.4942 O   0  0  0  0  0  0  0  0  0  0  0  0
   -7.3854   -5.9617   12.7581 C   0  0  0  0  0  0  0  0  0  0  0  0
   -7.7919   -7.1539   13.4519 O   0  0  0  0  0  0  0  0  0  0  0  0
   -8.0652   -5.8995   11.3871 C   0  0  1  0  0  0  0  0  0  0  0  0
   -7.9648   -4.5962   10.7994 O   0  0  0  0  0  0  0  0  0  0  0  0
   -7.5040   -6.8603   10.3527 C   0  0  1  0  0  0  0  0  0  0  0  0
   -8.2301   -8.0911   10.4219 O   0  0  0  0  0  0  0  0  0  0  0  0
   -7.7505   -6.1410    9.0366 C   0  0  1  0  0  0  0  0  0  0  0  0
   -9.0974   -6.3554    8.5914 O   0  0  0  0  0  0  0  0  0  0  0  0
   -7.6614   -4.6724    9.4010 C   0  0  2  0  0  0  0  0  0  0  0  0
   -4.9376   -0.3710    9.7697 N   0  0  0  0  0  0  0  0  0  0  0  0
   -6.2648   -0.5651    9.9432 C   0  0  1  0  0  0  0  0  0  0  0  0
   -7.0483    0.4874   10.2699 N   0  0  0  0  0  0  0  0  0  0  0  0
   -6.8143   -1.7931    9.7941 N   0  0  0  0  0  0  0  0  0  0  0  0
   -6.0243   -2.8434    9.4662 C   0  0  1  0  0  0  0  0  0  0  0  0
   -4.6663   -2.6738    9.2813 C   0  0  2  0  0  0  0  0  0  0  0  0
   -4.1266   -1.4029    9.4411 C   0  0  0  0  0  0  0  0  0  0  0  0
   -2.9055   -1.2058    9.2834 O   0  0  0  0  0  0  0  0  0  0  0  0
   -4.1530   -3.8793    8.9616 N   0  0  0  0  0  0  0  0  0  0  0  0
   -5.1698   -4.7726    8.9571 C   0  0  0  0  0  0  0  0  0  0  0  0
   -6.2981   -4.1261    9.2670 N   0  0  1  0  0  0  0  0  0  0  0  0
  1  2  1  1  0  0  0
  1  3  1  0  0  0  0
  1  4  2  0  0  0  0
  1  6  1  0  0  0  0
  5  6  1  0  0  0  0
  7  5  1  1  0  0  0
  7  8  1  0  0  0  0
  7  9  1  0  0  0  0
  9 10  1  6  0  0  0
  9 11  1  0  0  0  0
 11 12  1  1  0  0  0
 11 13  1  0  0  0  0
 13  8  1  1  0  0  0
 13 24  1  0  0  0  0
 14 15  1  0  0  0  0
 14 20  1  0  0  0  0
 15 16  1  6  0  0  0
 15 17  1  0  0  0  0
 18 17  1  1  0  0  0
 18 19  1  0  0  0  0
 18 24  1  0  0  0  0
 19 20  1  6  0  0  0
 19 22  1  0  0  0  0
 20 21  2  0  0  0  0
 22 23  1  0  0  0  0
 24 23  1  1  0  0  0
M  CHG  1   3  -1
M  END
>  <CHROM.1>
39.61164958,165.48798755,174.93904040,-68.70441562,-6.66827443,-4.84053237
11.18415126,-2.12403102,-1.00513159,-1.14119991

>  <Name>
ligand

>  <RI>
0

>  <Rbt.Current_Directory>
/home/itssahil/PROJECTS/Mol_Feturizer/New_Systems/rnas/3SLQ

>  <Rbt.Executable>
rbdock ($Id: //depot/dev/client3/rdock/2013.1/src/exe/rbdock.cxx#4 $)

>  <Rbt.Library>
libRbt.so (2013.1, Build901 2013/11/27)

>  <Rbt.Parameter_File>
/export/apps/rDock/src/rDock_2013.1_src/data/scripts/dock_solv.prm

>  <Rbt.Receptor>
prm/pocket_docking_2.prm

>  <SCORE>
-18.9168

>  <SCORE.INTER>
-13.5062

>  <SCORE.INTER.CONST>
1

>  <SCORE.INTER.POLAR>
0

>  <SCORE.INTER.ROT>
4

>  <SCORE.INTER.SOLV>
19.504

>  <SCORE.INTER.VDW>
-21.7721

>  <SCORE.INTER.norm>
-0.562759

>  <SCORE.INTRA>
-5.41231

>  <SCORE.INTRA.DIHEDRAL>
-10.5898

>  <SCORE.INTRA.DIHEDRAL.0>
13.2525

>  <SCORE.INTRA.POLAR>
0

>  <SCORE.INTRA.POLAR.0>
0

>  <SCORE.INTRA.REPUL>
0

>  <SCORE.INTRA.REPUL.0>
0

>  <SCORE.INTRA.SOLV>
-0.00547117

>  <SCORE.INTRA.SOLV.lig_0>
-70.7221

>  <SCORE.INTRA.VDW>
-0.114661

>  <SCORE.INTRA.VDW.0>
-1.46337

>  <SCORE.INTRA.norm>
-0.225513

>  <SCORE.RESTR>
0.00174292

>  <SCORE.RESTR.CAVITY>
0.00174292

>  <SCORE.RESTR.norm>
7.26218e-05

>  <SCORE.SYSTEM>
0

>  <SCORE.SYSTEM.CONST>
0

>  <SCORE.SYSTEM.DIHEDRAL>
0

>  <SCORE.SYSTEM.SOLV>
0

>  <SCORE.SYSTEM.norm>
0

>  <SCORE.heavy>
24

>  <SCORE.norm>
-0.788199

>  <RMSD>
0.756

$$$$
ligand
 OpenBabel11021811483D
libRbt.so/2013.1/901 2013/11/27
 24 26  0  0  0  0  0  0  0  0999 V2000
   -6.8288   -7.6086   14.8110 P   0  0  1  0  0  0  0  0  0  0  0  0
   -5.4550   -7.0100   15.0253 O   0  0  0  0  0  0  0  0  0  0  0  0
   -6.9353   -9.1090   14.9494 O   0  5  0  0  0  0  0  0  0  0  0  0
   -7.9452   -6.8706   15.5347 O   0  0  0  0  0  0  0  0  0  0  0  0
   -6.9864   -6.1735   12.5242 C   0  0  0  0  0  0  0  0  0  0  0  0
   -7.0846   -7.4298   13.2173 O   0  0  0  0  0  0  0  0  0  0  0  0
   -7.4402   -6.3435   11.0713 C   0  0  1  0  0  0  0  0  0  0  0  0
   -7.4828   -5.0916   10.3748 O   0  0  0  0  0  0  0  0  0  0  0  0
   -6.5593   -7.2512   10.2299 C   0  0  1  0  0  0  0  0  0  0  0  0
   -7.0550   -8.5902   10.3195 O   0  0  0  0  0  0  0  0  0  0  0  0
   -6.7187   -6.6908    8.8261 C   0  0  1  0  0  0  0  0  0  0  0  0
   -7.9176   -7.1920    8.2180 O   0  0  0  0  0  0  0  0  0  0  0  0
   -6.9528   -5.2097    9.0487 C   0  0  2  0  0  0  0  0  0  0  0  0
   -5.0859   -0.5339    9.8901 N   0  0  0  0  0  0  0  0  0  0  0  0
   -6.3643   -0.9718    9.9472 C   0  0  1  0  0  0  0  0  0  0  0  0
   -7.3458   -0.1013   10.2750 N   0  0  0  0  0  0  0  0  0  0  0  0
   -6.6706   -2.2631    9.6812 N   0  0  0  0  0  0  0  0  0  0  0  0
   -5.6831   -3.1302    9.3528 C   0  0  1  0  0  0  0  0  0  0  0  0
   -4.3692   -2.7101    9.2853 C   0  0  2  0  0  0  0  0  0  0  0  0
   -4.0811   -1.3791    9.5638 C   0  0  0  0  0  0  0  0  0  0  0  0
   -2.9085   -0.9582    9.5143 O   0  0  0  0  0  0  0  0  0  0  0  0
   -3.6255   -3.7789    8.9341 N   0  0  0  0  0  0  0  0  0  0  0  0
   -4.4607   -4.8350    8.7958 C   0  0  0  0  0  0  0  0  0  0  0  0
   -5.7055   -4.4227    9.0553 N   0  0  1  0  0  0  0  0  0  0  0  0
  1  2  1  1  0  0  0
  1  3  1  0  0  0  0
  1  4  2  0  0  0  0
  1  6  1  0  0  0  0
  5  6  1  0  0  0  0
  7  5  1  1  0  0  0
  7  8  1  0  0  0  0
  7  9  1  0  0  0  0
  9 10  1  6  0  0  0
  9 11  1  0  0  0  0
 11 12  1  1  0  0  0
 11 13  1  0  0  0  0
 13  8  1  1  0  0  0
 13 24  1  0  0  0  0
 14 15  1  0  0  0  0
 14 20  1  0  0  0  0
 15 16  1  6  0  0  0
 15 17  1  0  0  0  0
 18 17  1  1  0  0  0
 18 19  1  0  0  0  0
 18 24  1  0  0  0  0
 19 20  1  6  0  0  0
 19 22  1  0  0  0  0
 20 21  2  0  0  0  0
 22 23  1  0  0  0  0
 24 23  1  1  0  0  0
M  CHG  1   3  -1
M  END
>  <CHROM.1>
-54.11530541,174.37889854,-173.76544640,-58.68942807,-6.22902522,-5.07407423
11.07310465,-2.47807475,-1.24682089,-1.54154732

>  <Name>
ligand

>  <RI>
0

>  <Rbt.Current_Directory>
/home/itssahil/PROJECTS/Mol_Feturizer/New_Systems/rnas/3SLQ

>  <Rbt.Executable>
rbdock ($Id: //depot/dev/client3/rdock/2013.1/src/exe/rbdock.cxx#4 $)

>  <Rbt.Library>
libRbt.so (2013.1, Build901 2013/11/27)

>  <Rbt.Parameter_File>
/export/apps/rDock/src/rDock_2013.1_src/data/scripts/dock_solv.prm

>  <Rbt.Receptor>
prm/pocket_docking_2.prm

>  <SCORE>
-18.9033

>  <SCORE.INTER>
-12.8654

>  <SCORE.INTER.CONST>
1

>  <SCORE.INTER.POLAR>
0

>  <SCORE.INTER.ROT>
4

>  <SCORE.INTER.SOLV>
22.6182

>  <SCORE.INTER.VDW>
-22.383

>  <SCORE.INTER.norm>
-0.536058

>  <SCORE.INTRA>
-6.04625

>  <SCORE.INTRA.DIHEDRAL>
-11.6878

>  <SCORE.INTRA.DIHEDRAL.0>
13.2525

>  <SCORE.INTRA.POLAR>
0

>  <SCORE.INTRA.POLAR.0>
0

>  <SCORE.INTRA.REPUL>
0

>  <SCORE.INTRA.REPUL.0>
0

>  <SCORE.INTRA.SOLV>
-0.0093712

>  <SCORE.INTRA.SOLV.lig_0>
-70.7221

>  <SCORE.INTRA.VDW>
-0.197638

>  <SCORE.INTRA.VDW.0>
-1.46337

>  <SCORE.INTRA.norm>
-0.251927

>  <SCORE.RESTR>
0.00828876

>  <SCORE.RESTR.CAVITY>
0.00828876

>  <SCORE.RESTR.norm>
0.000345365

>  <SCORE.SYSTEM>
0

>  <SCORE.SYSTEM.CONST>
0

>  <SCORE.SYSTEM.DIHEDRAL>
0

>  <SCORE.SYSTEM.SOLV>
0

>  <SCORE.SYSTEM.norm>
0

>  <SCORE.heavy>
24

>  <SCORE.norm>
-0.787639

>  <RMSD>
0.768

$$$$
ligand
 OpenBabel11021811483D
libRbt.so/2013.1/901 2013/11/27
 24 26  0  0  0  0  0  0  0  0999 V2000
   -7.1412   -7.6160   14.7258 P   0  0  1  0  0  0  0  0  0  0  0  0
   -7.1451   -6.6054   15.8528 O   0  0  0  0  0  0  0  0  0  0  0  0
   -6.6703   -9.0081   15.0753 O   0  5  0  0  0  0  0  0  0  0  0  0
   -8.4135   -7.6178   13.8917 O   0  0  0  0  0  0  0  0  0  0  0  0
   -5.9417   -5.8736   13.0409 C   0  0  0  0  0  0  0  0  0  0  0  0
   -5.9323   -7.1173   13.7628 O   0  0  0  0  0  0  0  0  0  0  0  0
   -6.7500   -6.0273   11.7491 C   0  0  1  0  0  0  0  0  0  0  0  0
   -6.8591   -4.7886   11.0365 O   0  0  0  0  0  0  0  0  0  0  0  0
   -6.1795   -7.0239   10.7545 C   0  0  1  0  0  0  0  0  0  0  0  0
   -6.7462   -8.3119   11.0128 O   0  0  0  0  0  0  0  0  0  0  0  0
   -6.6315   -6.4756    9.4109 C   0  0  1  0  0  0  0  0  0  0  0  0
   -7.9797   -6.8786    9.1314 O   0  0  0  0  0  0  0  0  0  0  0  0
   -6.6817   -4.9760    9.6269 C   0  0  2  0  0  0  0  0  0  0  0  0
   -4.4051   -0.4095    9.4842 N   0  0  0  0  0  0  0  0  0  0  0  0
   -5.6731   -0.7270    9.8319 C   0  0  1  0  0  0  0  0  0  0  0  0
   -6.5180    0.2567   10.2152 N   0  0  0  0  0  0  0  0  0  0  0  0
   -6.1033   -2.0100    9.8002 N   0  0  0  0  0  0  0  0  0  0  0  0
   -5.2523   -2.9908    9.4147 C   0  0  1  0  0  0  0  0  0  0  0  0
   -3.9528   -2.6951    9.0528 C   0  0  2  0  0  0  0  0  0  0  0  0
   -3.5355   -1.3699    9.0947 C   0  0  0  0  0  0  0  0  0  0  0  0
   -2.3708   -1.0593    8.7760 O   0  0  0  0  0  0  0  0  0  0  0  0
   -3.3574   -3.8576    8.7165 N   0  0  0  0  0  0  0  0  0  0  0  0
   -4.2666   -4.8476    8.8747 C   0  0  0  0  0  0  0  0  0  0  0  0
   -5.4107   -4.3029    9.3006 N   0  0  1  0  0  0  0  0  0  0  0  0
  1  2  1  1  0  0  0
  1  3  1  0  0  0  0
  1  4  2  0  0  0  0
  1  6  1  0  0  0  0
  5  6  1  0  0  0  0
  7  5  1  1  0  0  0
  7  8  1  0  0  0  0
  7  9  1  0  0  0  0
  9 10  1  1  0  0  0
  9 11  1  0  0  0  0
 11 12  1  1  0  0  0
 11 13  1  0  0  0  0
 13  8  1  1  0  0  0
 13 24  1  0  0  0  0
 14 15  1  0  0  0  0
 14 20  1  0  0  0  0
 15 16  1  6  0  0  0
 15 17  1  0  0  0  0
 18 17  1  1  0  0  0
 18 19  1  0  0  0  0
 18 24  1  0  0  0  0
 19 20  1  6  0  0  0
 19 22  1  0  0  0  0
 20 21  2  0  0  0  0
 22 23  1  0  0  0  0
 24 23  1  1  0  0  0
M  CHG  1   3  -1
M  END
>  <CHROM.1>
-65.29219651,176.29700733,-81.64284722,-65.26352061,-5.95150352,-4.94354387
11.19980079,-3.01697403,-1.23749377,-2.11311366

>  <Name>
ligand

>  <RI>
0

>  <Rbt.Current_Directory>
/home/itssahil/PROJECTS/Mol_Feturizer/New_Systems/rnas/3SLQ

>  <Rbt.Executable>
rbdock ($Id: //depot/dev/client3/rdock/2013.1/src/exe/rbdock.cxx#4 $)

>  <Rbt.Library>
libRbt.so (2013.1, Build901 2013/11/27)

>  <Rbt.Parameter_File>
/export/apps/rDock/src/rDock_2013.1_src/data/scripts/dock_solv.prm

>  <Rbt.Receptor>
prm/pocket_docking_3.prm

>  <SCORE>
-21.1714

>  <SCORE.INTER>
-16.8464

>  <SCORE.INTER.CONST>
1

>  <SCORE.INTER.POLAR>
0

>  <SCORE.INTER.ROT>
4

>  <SCORE.INTER.SOLV>
17.46

>  <SCORE.INTER.VDW>
-23.3176

>  <SCORE.INTER.norm>
-0.701935

>  <SCORE.INTRA>
-4.32495

>  <SCORE.INTRA.DIHEDRAL>
-9.88793

>  <SCORE.INTRA.DIHEDRAL.0>
13.2525

>  <SCORE.INTRA.POLAR>
0

>  <SCORE.INTRA.POLAR.0>
0

>  <SCORE.INTRA.REPUL>
0

>  <SCORE.INTRA.REPUL.0>
0

>  <SCORE.INTRA.SOLV>
2.72899

>  <SCORE.INTRA.SOLV.lig_0>
-70.7221

>  <SCORE.INTRA.VDW>
-0.74548

>  <SCORE.INTRA.VDW.0>
-1.46337

>  <SCORE.INTRA.norm>
-0.180206

>  <SCORE.RESTR>
0

>  <SCORE.RESTR.CAVITY>
0

>  <SCORE.RESTR.norm>
0

>  <SCORE.SYSTEM>
0

>  <SCORE.SYSTEM.CONST>
0

>  <SCORE.SYSTEM.DIHEDRAL>
0

>  <SCORE.SYSTEM.SOLV>
0

>  <SCORE.SYSTEM.norm>
0

>  <SCORE.heavy>
24

>  <SCORE.norm>
-0.882141

>  <RMSD>
0.775

$$$$
ligand
 OpenBabel11021811483D
libRbt.so/2013.1/901 2013/11/27
 24 26  0  0  0  0  0  0  0  0999 V2000
   -7.2220   -7.6657   14.9260 P   0  0  1  0  0  0  0  0  0  0  0  0
   -7.1396   -6.3906   15.7377 O   0  0  0  0  0  0  0  0  0  0  0  0
   -5.9076   -8.2677   14.4882 O   0  5  0  0  0  0  0  0  0  0  0  0
   -8.1821   -8.7001   15.4942 O   0  0  0  0  0  0  0  0  0  0  0  0
   -7.3824   -6.0021   12.8000 C   0  0  0  0  0  0  0  0  0  0  0  0
   -7.8252   -7.1782   13.4993 O   0  0  0  0  0  0  0  0  0  0  0  0
   -8.0983   -5.8985   11.4499 C   0  0  1  0  0  0  0  0  0  0  0  0
   -7.9861   -4.5862   10.8849 O   0  0  0  0  0  0  0  0  0  0  0  0
   -7.5866   -6.8501   10.3820 C   0  0  1  0  0  0  0  0  0  0  0  0
   -8.3368   -8.0665   10.4477 O   0  0  0  0  0  0  0  0  0  0  0  0
   -7.8537   -6.0999    9.0874 C   0  0  1  0  0  0  0  0  0  0  0  0
   -9.2167   -6.2771    8.6759 O   0  0  0  0  0  0  0  0  0  0  0  0
   -7.7230   -4.6409    9.4773 C   0  0  2  0  0  0  0  0  0  0  0  0
   -4.9192   -0.3838    9.7453 N   0  0  0  0  0  0  0  0  0  0  0  0
   -6.2469   -0.5519    9.9408 C   0  0  1  0  0  0  0  0  0  0  0  0
   -7.0070    0.5188   10.2639 N   0  0  0  0  0  0  0  0  0  0  0  0
   -6.8200   -1.7719    9.8172 N   0  0  0  0  0  0  0  0  0  0  0  0
   -6.0534   -2.8405    9.4927 C   0  0  1  0  0  0  0  0  0  0  0  0
   -4.6955   -2.6976    9.2858 C   0  0  2  0  0  0  0  0  0  0  0  0
   -4.1313   -1.4343    9.4197 C   0  0  0  0  0  0  0  0  0  0  0  0
   -2.9095   -1.2611    9.2415 O   0  0  0  0  0  0  0  0  0  0  0  0
   -4.2081   -3.9164    8.9759 N   0  0  0  0  0  0  0  0  0  0  0  0
   -5.2404   -4.7915    8.9988 C   0  0  0  0  0  0  0  0  0  0  0  0
   -6.3525   -4.1208    9.3159 N   0  0  1  0  0  0  0  0  0  0  0  0
  1  2  1  1  0  0  0
  1  3  1  0  0  0  0
  1  4  2  0  0  0  0
  1  6  1  0  0  0  0
  5  6  1  0  0  0  0
  7  5  1  1  0  0  0
  7  8  1  0  0  0  0
  7  9  1  0  0  0  0
  9 10  1  6  0  0  0
  9 11  1  0  0  0  0
 11 12  1  1  0  0  0
 11 13  1  0  0  0  0
 13  8  1  1  0  0  0
 13 24  1  0  0  0  0
 14 15  1  0  0  0  0
 14 20  1  0  0  0  0
 15 16  1  6  0  0  0
 15 17  1  0  0  0  0
 18 17  1  1  0  0  0
 18 19  1  0  0  0  0
 18 24  1  0  0  0  0
 19 20  1  6  0  0  0
 19 22  1  0  0  0  0
 20 21  2  0  0  0  0
 22 23  1  0  0  0  0
 24 23  1  1  0  0  0
M  CHG  1   3  -1
M  END
>  <CHROM.1>
44.16053072,163.76984666,176.23919919,-70.78367627,-6.70530253,-4.84985679
11.21573096,-2.09917067,-0.97474548,-1.11325284

>  <Name>
ligand

>  <RI>
0

>  <Rbt.Current_Directory>
/home/itssahil/PROJECTS/Mol_Feturizer/New_Systems/rnas/3SLQ

>  <Rbt.Executable>
rbdock ($Id: //depot/dev/client3/rdock/2013.1/src/exe/rbdock.cxx#4 $)

>  <Rbt.Library>
libRbt.so (2013.1, Build901 2013/11/27)

>  <Rbt.Parameter_File>
/export/apps/rDock/src/rDock_2013.1_src/data/scripts/dock_solv.prm

>  <Rbt.Receptor>
prm/pocket_docking_2.prm

>  <SCORE>
-18.7965

>  <SCORE.INTER>
-13.2814

>  <SCORE.INTER.CONST>
1

>  <SCORE.INTER.POLAR>
0

>  <SCORE.INTER.ROT>
4

>  <SCORE.INTER.SOLV>
19.2315

>  <SCORE.INTER.VDW>
-21.5314

>  <SCORE.INTER.norm>
-0.553393

>  <SCORE.INTRA>
-5.51512

>  <SCORE.INTRA.DIHEDRAL>
-10.7075

>  <SCORE.INTRA.DIHEDRAL.0>
13.2525

>  <SCORE.INTRA.POLAR>
0

>  <SCORE.INTRA.POLAR.0>
0

>  <SCORE.INTRA.REPUL>
0

>  <SCORE.INTRA.REPUL.0>
0

>  <SCORE.INTRA.SOLV>
-0.013143

>  <SCORE.INTRA.SOLV.lig_0>
-70.7221

>  <SCORE.INTRA.VDW>
-0.1548

>  <SCORE.INTRA.VDW.0>
-1.46337

>  <SCORE.INTRA.norm>
-0.229797

>  <SCORE.RESTR>
0

>  <SCORE.RESTR.CAVITY>
0

>  <SCORE.RESTR.norm>
0

>  <SCORE.SYSTEM>
0

>  <SCORE.SYSTEM.CONST>
0

>  <SCORE.SYSTEM.DIHEDRAL>
0

>  <SCORE.SYSTEM.SOLV>
0

>  <SCORE.SYSTEM.norm>
0

>  <SCORE.heavy>
24

>  <SCORE.norm>
-0.783189

>  <RMSD>
0.780

$$$$
ligand
 OpenBabel11021811483D
libRbt.so/2013.1/901 2013/11/27
 24 26  0  0  0  0  0  0  0  0999 V2000
   -7.1962   -7.5825   14.8611 P   0  0  1  0  0  0  0  0  0  0  0  0
   -7.0588   -6.3104   15.6701 O   0  0  0  0  0  0  0  0  0  0  0  0
   -5.9108   -8.2108   14.3765 O   0  5  0  0  0  0  0  0  0  0  0  0
   -8.1566   -8.5977   15.4624 O   0  0  0  0  0  0  0  0  0  0  0  0
   -7.4070   -5.9054   12.7501 C   0  0  0  0  0  0  0  0  0  0  0  0
   -7.8395   -7.0808   13.4570 O   0  0  0  0  0  0  0  0  0  0  0  0
   -8.0814   -5.8463   11.3763 C   0  0  1  0  0  0  0  0  0  0  0  0
   -7.9772   -4.5447   10.7854 O   0  0  0  0  0  0  0  0  0  0  0  0
   -7.5174   -6.8106   10.3468 C   0  0  1  0  0  0  0  0  0  0  0  0
   -8.2452   -8.0403   10.4165 O   0  0  0  0  0  0  0  0  0  0  0  0
   -7.7580   -6.0947    9.0277 C   0  0  1  0  0  0  0  0  0  0  0  0
   -9.1034   -6.3087    8.5778 O   0  0  0  0  0  0  0  0  0  0  0  0
   -7.6685   -4.6251    9.3883 C   0  0  2  0  0  0  0  0  0  0  0  0
   -4.9423   -0.3246    9.7481 N   0  0  0  0  0  0  0  0  0  0  0  0
   -6.2705   -0.5165    9.9162 C   0  0  1  0  0  0  0  0  0  0  0  0
   -7.0546    0.5385   10.2337 N   0  0  0  0  0  0  0  0  0  0  0  0
   -6.8205   -1.7447    9.7708 N   0  0  0  0  0  0  0  0  0  0  0  0
   -6.0299   -2.7975    9.4520 C   0  0  1  0  0  0  0  0  0  0  0  0
   -4.6709   -2.6301    9.2729 C   0  0  2  0  0  0  0  0  0  0  0  0
   -4.1307   -1.3589    9.4288 C   0  0  0  0  0  0  0  0  0  0  0  0
   -2.9087   -1.1638    9.2759 O   0  0  0  0  0  0  0  0  0  0  0  0
   -4.1572   -3.8377    8.9619 N   0  0  0  0  0  0  0  0  0  0  0  0
   -5.1749   -4.7300    8.9570 C   0  0  0  0  0  0  0  0  0  0  0  0
   -6.3040   -4.0808    9.2582 N   0  0  1  0  0  0  0  0  0  0  0  0
  1  2  1  1  0  0  0
  1  3  1  0  0  0  0
  1  4  2  0  0  0  0
  1  6  1  0  0  0  0
  5  6  1  0  0  0  0
  7  5  1  1  0  0  0
  7  8  1  0  0  0  0
  7  9  1  0  0  0  0
  9 10  1  6  0  0  0
  9 11  1  0  0  0  0
 11 12  1  1  0  0  0
 11 13  1  0  0  0  0
 13  8  1  1  0  0  0
 13 24  1  0  0  0  0
 14 15  1  0  0  0  0
 14 20  1  0  0  0  0
 15 16  1  6  0  0  0
 15 17  1  0  0  0  0
 18 17  1  1  0  0  0
 18 19  1  0  0  0  0
 18 24  1  0  0  0  0
 19 20  1  6  0  0  0
 19 22  1  0  0  0  0
 20 21  2  0  0  0  0
 22 23  1  0  0  0  0
 24 23  1  1  0  0  0
M  CHG  1   3  -1
M  END
>  <CHROM.1>
43.48627505,164.27993483,171.75376471,-68.85091457,-6.67751315,-4.79502639
11.16900475,-2.12120696,-1.00051164,-1.13610465

>  <Name>
ligand

>  <RI>
0

>  <Rbt.Current_Directory>
/home/itssahil/PROJECTS/Mol_Feturizer/New_Systems/rnas/3SLQ

>  <Rbt.Executable>
rbdock ($Id: //depot/dev/client3/rdock/2013.1/src/exe/rbdock.cxx#4 $)

>  <Rbt.Library>
libRbt.so (2013.1, Build901 2013/11/27)

>  <Rbt.Parameter_File>
/export/apps/rDock/src/rDock_2013.1_src/data/scripts/dock_solv.prm

>  <Rbt.Receptor>
prm/pocket_docking_2.prm

>  <SCORE>
-18.8676

>  <SCORE.INTER>
-13.5173

>  <SCORE.INTER.CONST>
1

>  <SCORE.INTER.POLAR>
0

>  <SCORE.INTER.ROT>
4

>  <SCORE.INTER.SOLV>
19.7111

>  <SCORE.INTER.VDW>
-21.8486

>  <SCORE.INTER.norm>
-0.563222

>  <SCORE.INTRA>
-5.3503

>  <SCORE.INTRA.DIHEDRAL>
-10.4657

>  <SCORE.INTRA.DIHEDRAL.0>
13.2525

>  <SCORE.INTRA.POLAR>
0

>  <SCORE.INTRA.POLAR.0>
0

>  <SCORE.INTRA.REPUL>
0

>  <SCORE.INTRA.REPUL.0>
0

>  <SCORE.INTRA.SOLV>
0.0699722

>  <SCORE.INTRA.SOLV.lig_0>
-70.7221

>  <SCORE.INTRA.VDW>
-0.152465

>  <SCORE.INTRA.VDW.0>
-1.46337

>  <SCORE.INTRA.norm>
-0.222929

>  <SCORE.RESTR>
0

>  <SCORE.RESTR.CAVITY>
0

>  <SCORE.RESTR.norm>
0

>  <SCORE.SYSTEM>
0

>  <SCORE.SYSTEM.CONST>
0

>  <SCORE.SYSTEM.DIHEDRAL>
0

>  <SCORE.SYSTEM.SOLV>
0

>  <SCORE.SYSTEM.norm>
0

>  <SCORE.heavy>
24

>  <SCORE.norm>
-0.786151

>  <RMSD>
0.781

$$$$
ligand
 OpenBabel11021811483D
libRbt.so/2013.1/901 2013/11/27
 24 26  0  0  0  0  0  0  0  0999 V2000
   -7.2723   -7.3185   14.6694 P   0  0  1  0  0  0  0  0  0  0  0  0
   -7.2008   -6.5350   15.9626 O   0  0  0  0  0  0  0  0  0  0  0  0
   -6.7289   -8.7274   14.7083 O   0  5  0  0  0  0  0  0  0  0  0  0
   -8.6167   -7.2262   13.9633 O   0  0  0  0  0  0  0  0  0  0  0  0
   -6.4139   -5.3667   13.0059 C   0  0  0  0  0  0  0  0  0  0  0  0
   -6.1749   -6.5939   13.7166 O   0  0  0  0  0  0  0  0  0  0  0  0
   -7.0580   -5.6675   11.6492 C   0  0  1  0  0  0  0  0  0  0  0  0
   -7.1638   -4.4924   10.8356 O   0  0  0  0  0  0  0  0  0  0  0  0
   -6.3154   -6.6871   10.8026 C   0  0  1  0  0  0  0  0  0  0  0  0
   -6.8247   -7.9915   11.0960 O   0  0  0  0  0  0  0  0  0  0  0  0
   -6.6451   -6.2673    9.3795 C   0  0  1  0  0  0  0  0  0  0  0  0
   -7.9242   -6.7847    8.9864 O   0  0  0  0  0  0  0  0  0  0  0  0
   -6.8150   -4.7639    9.4725 C   0  0  2  0  0  0  0  0  0  0  0  0
   -4.7442   -0.0998    9.5919 N   0  0  0  0  0  0  0  0  0  0  0  0
   -6.0130   -0.4838    9.8608 C   0  0  1  0  0  0  0  0  0  0  0  0
   -6.9208    0.4489   10.2276 N   0  0  0  0  0  0  0  0  0  0  0  0
   -6.3821   -1.7826    9.7669 N   0  0  0  0  0  0  0  0  0  0  0  0
   -5.4682   -2.7121    9.3984 C   0  0  1  0  0  0  0  0  0  0  0  0
   -4.1663   -2.3480    9.1164 C   0  0  2  0  0  0  0  0  0  0  0  0
   -3.8125   -1.0079    9.2211 C   0  0  0  0  0  0  0  0  0  0  0  0
   -2.6479   -0.6363    8.9754 O   0  0  0  0  0  0  0  0  0  0  0  0
   -3.5017   -3.4717    8.7775 N   0  0  0  0  0  0  0  0  0  0  0  0
   -4.3720   -4.5053    8.8563 C   0  0  0  0  0  0  0  0  0  0  0  0
   -5.5605   -4.0254    9.2360 N   0  0  1  0  0  0  0  0  0  0  0  0
  1  2  1  1  0  0  0
  1  3  1  0  0  0  0
  1  4  2  0  0  0  0
  1  6  1  0  0  0  0
  5  6  1  0  0  0  0
  7  5  1  1  0  0  0
  7  8  1  0  0  0  0
  7  9  1  0  0  0  0
  9 10  1  1  0  0  0
  9 11  1  0  0  0  0
 11 12  1  1  0  0  0
 11 13  1  0  0  0  0
 13  8  1  1  0  0  0
 13 24  1  0  0  0  0
 14 15  1  0  0  0  0
 14 20  1  0  0  0  0
 15 16  1  6  0  0  0
 15 17  1  0  0  0  0
 18 17  1  1  0  0  0
 18 19  1  0  0  0  0
 18 24  1  0  0  0  0
 19 20  1  6  0  0  0
 19 22  1  0  0  0  0
 20 21  2  0  0  0  0
 22 23  1  0  0  0  0
 24 23  1  1  0  0  0
M  CHG  1   3  -1
M  END
>  <CHROM.1>
-79.64899595,-172.78617315,-86.91512831,-58.23833893,-6.14652266,-4.64040284
11.18100667,-3.11930284,-1.25126803,-2.21058529

>  <Name>
ligand

>  <RI>
0

>  <Rbt.Current_Directory>
/home/itssahil/PROJECTS/Mol_Feturizer/New_Systems/rnas/3SLQ

>  <Rbt.Executable>
rbdock ($Id: //depot/dev/client3/rdock/2013.1/src/exe/rbdock.cxx#4 $)

>  <Rbt.Library>
libRbt.so (2013.1, Build901 2013/11/27)

>  <Rbt.Parameter_File>
/export/apps/rDock/src/rDock_2013.1_src/data/scripts/dock_solv.prm

>  <Rbt.Receptor>
prm/pocket_docking_2.prm

>  <SCORE>
-19.5031

>  <SCORE.INTER>
-16.3389

>  <SCORE.INTER.CONST>
1

>  <SCORE.INTER.POLAR>
0

>  <SCORE.INTER.ROT>
4

>  <SCORE.INTER.SOLV>
19.9857

>  <SCORE.INTER.VDW>
-23.8211

>  <SCORE.INTER.norm>
-0.680786

>  <SCORE.INTRA>
-3.21181

>  <SCORE.INTRA.DIHEDRAL>
-8.26661

>  <SCORE.INTRA.DIHEDRAL.0>
13.2525

>  <SCORE.INTRA.POLAR>
0

>  <SCORE.INTRA.POLAR.0>
0

>  <SCORE.INTRA.REPUL>
0

>  <SCORE.INTRA.REPUL.0>
0

>  <SCORE.INTRA.SOLV>
3.20113

>  <SCORE.INTRA.SOLV.lig_0>
-70.7221

>  <SCORE.INTRA.VDW>
-0.679071

>  <SCORE.INTRA.VDW.0>
-1.46337

>  <SCORE.INTRA.norm>
-0.133826

>  <SCORE.RESTR>
0.0475365

>  <SCORE.RESTR.CAVITY>
0.0475365

>  <SCORE.RESTR.norm>
0.00198069

>  <SCORE.SYSTEM>
0

>  <SCORE.SYSTEM.CONST>
0

>  <SCORE.SYSTEM.DIHEDRAL>
0

>  <SCORE.SYSTEM.SOLV>
0

>  <SCORE.SYSTEM.norm>
0

>  <SCORE.heavy>
24

>  <SCORE.norm>
-0.812631

>  <RMSD>
0.782

$$$$
ligand
 OpenBabel11021811483D
libRbt.so/2013.1/901 2013/11/27
 24 26  0  0  0  0  0  0  0  0999 V2000
   -6.8454   -6.9869   14.6231 P   0  0  1  0  0  0  0  0  0  0  0  0
   -7.9215   -5.9381   14.4404 O   0  0  0  0  0  0  0  0  0  0  0  0
   -6.1255   -6.9844   15.9511 O   0  5  0  0  0  0  0  0  0  0  0  0
   -7.2601   -8.3826   14.1818 O   0  0  0  0  0  0  0  0  0  0  0  0
   -5.4572   -7.0143   12.3024 C   0  0  0  0  0  0  0  0  0  0  0  0
   -5.6566   -6.4990   13.6301 O   0  0  0  0  0  0  0  0  0  0  0  0
   -6.6168   -6.5861   11.3980 C   0  0  1  0  0  0  0  0  0  0  0  0
   -6.7191   -5.1600   11.2994 O   0  0  0  0  0  0  0  0  0  0  0  0
   -6.5304   -7.0911    9.9679 C   0  0  1  0  0  0  0  0  0  0  0  0
   -7.2044   -8.3500    9.8797 O   0  0  0  0  0  0  0  0  0  0  0  0
   -7.2522   -6.0156    9.1725 C   0  0  1  0  0  0  0  0  0  0  0  0
   -8.6712   -6.2212    9.2219 O   0  0  0  0  0  0  0  0  0  0  0  0
   -6.9884   -4.7443    9.9547 C   0  0  2  0  0  0  0  0  0  0  0  0
   -4.8898   -0.1096    9.5399 N   0  0  0  0  0  0  0  0  0  0  0  0
   -6.1141   -0.4609    9.9951 C   0  0  1  0  0  0  0  0  0  0  0  0
   -6.9590    0.5027   10.4264 N   0  0  0  0  0  0  0  0  0  0  0  0
   -6.5008   -1.7577   10.0232 N   0  0  0  0  0  0  0  0  0  0  0  0
   -5.6501   -2.7183    9.5892 C   0  0  1  0  0  0  0  0  0  0  0  0
   -4.3947   -2.3881    9.1177 C   0  0  2  0  0  0  0  0  0  0  0  0
   -4.0215   -1.0493    9.1001 C   0  0  0  0  0  0  0  0  0  0  0  0
   -2.8975   -0.7076    8.6823 O   0  0  0  0  0  0  0  0  0  0  0  0
   -3.7884   -3.5375    8.7569 N   0  0  0  0  0  0  0  0  0  0  0  0
   -4.6472   -4.5532    9.0074 C   0  0  0  0  0  0  0  0  0  0  0  0
   -5.7716   -4.0371    9.5137 N   0  0  1  0  0  0  0  0  0  0  0  0
  1  2  1  6  0  0  0
  1  3  1  0  0  0  0
  1  4  2  0  0  0  0
  1  6  1  0  0  0  0
  5  6  1  0  0  0  0
  7  5  1  1  0  0  0
  7  8  1  0  0  0  0
  7  9  1  0  0  0  0
  9 10  1  1  0  0  0
  9 11  1  0  0  0  0
 11 12  1  1  0  0  0
 11 13  1  0  0  0  0
 13  8  1  1  0  0  0
 13 24  1  0  0  0  0
 14 15  1  0  0  0  0
 14 20  1  0  0  0  0
 15 16  1  6  0  0  0
 15 17  1  0  0  0  0
 18 17  1  1  0  0  0
 18 19  1  0  0  0  0
 18 24  1  0  0  0  0
 19 20  1  6  0  0  0
 19 22  1  0  0  0  0
 20 21  2  0  0  0  0
 22 23  1  0  0  0  0
 24 23  1  1  0  0  0
M  CHG  1   3  -1
M  END
>  <CHROM.1>
-97.29113058,60.50054444,67.46239548,-95.36172064,-6.11984486,-4.68569512
11.11442164,-2.59602500,-1.26705928,-1.63749020

>  <Name>
ligand

>  <RI>
0

>  <Rbt.Current_Directory>
/home/itssahil/PROJECTS/Mol_Feturizer/New_Systems/rnas/3SLQ

>  <Rbt.Executable>
rbdock ($Id: //depot/dev/client3/rdock/2013.1/src/exe/rbdock.cxx#4 $)

>  <Rbt.Library>
libRbt.so (2013.1, Build901 2013/11/27)

>  <Rbt.Parameter_File>
/export/apps/rDock/src/rDock_2013.1_src/data/scripts/dock_solv.prm

>  <Rbt.Receptor>
prm/pocket_docking_2.prm

>  <SCORE>
-19.1776

>  <SCORE.INTER>
-14.2348

>  <SCORE.INTER.CONST>
1

>  <SCORE.INTER.POLAR>
0

>  <SCORE.INTER.ROT>
4

>  <SCORE.INTER.SOLV>
24.3772

>  <SCORE.INTER.VDW>
-23.8823

>  <SCORE.INTER.norm>
-0.593117

>  <SCORE.INTRA>
-4.95136

>  <SCORE.INTRA.DIHEDRAL>
-10.1567

>  <SCORE.INTRA.DIHEDRAL.0>
13.2525

>  <SCORE.INTRA.POLAR>
0

>  <SCORE.INTRA.POLAR.0>
0

>  <SCORE.INTRA.REPUL>
0

>  <SCORE.INTRA.REPUL.0>
0

>  <SCORE.INTRA.SOLV>
1.49879

>  <SCORE.INTRA.SOLV.lig_0>
-70.7221

>  <SCORE.INTRA.VDW>
-0.622413

>  <SCORE.INTRA.VDW.0>
-1.46337

>  <SCORE.INTRA.norm>
-0.206307

>  <SCORE.RESTR>
0.00855371

>  <SCORE.RESTR.CAVITY>
0.00855371

>  <SCORE.RESTR.norm>
0.000356405

>  <SCORE.SYSTEM>
0

>  <SCORE.SYSTEM.CONST>
0

>  <SCORE.SYSTEM.DIHEDRAL>
0

>  <SCORE.SYSTEM.SOLV>
0

>  <SCORE.SYSTEM.norm>
0

>  <SCORE.heavy>
24

>  <SCORE.norm>
-0.799067

>  <RMSD>
0.836

$$$$
ligand
 OpenBabel11021811483D
libRbt.so/2013.1/901 2013/11/27
 24 26  0  0  0  0  0  0  0  0999 V2000
   -7.1931   -7.6166   14.8201 P   0  0  1  0  0  0  0  0  0  0  0  0
   -7.0719   -6.3605   15.6562 O   0  0  0  0  0  0  0  0  0  0  0  0
   -5.9024   -8.1981   14.2929 O   0  5  0  0  0  0  0  0  0  0  0  0
   -8.1123   -8.6715   15.4176 O   0  0  0  0  0  0  0  0  0  0  0  0
   -7.5099   -5.8865   12.7659 C   0  0  0  0  0  0  0  0  0  0  0  0
   -7.8807   -7.1001   13.4426 O   0  0  0  0  0  0  0  0  0  0  0  0
   -8.1744   -5.8353   11.3869 C   0  0  1  0  0  0  0  0  0  0  0  0
   -8.0449   -4.5440   10.7789 O   0  0  0  0  0  0  0  0  0  0  0  0
   -7.6198   -6.8229   10.3746 C   0  0  1  0  0  0  0  0  0  0  0  0
   -8.3683   -8.0394   10.4563 O   0  0  0  0  0  0  0  0  0  0  0  0
   -7.8400   -6.1215    9.0442 C   0  0  1  0  0  0  0  0  0  0  0  0
   -9.1858   -6.3195    8.5884 O   0  0  0  0  0  0  0  0  0  0  0  0
   -7.7285   -4.6487    9.3852 C   0  0  2  0  0  0  0  0  0  0  0  0
   -4.9223   -0.4024    9.7732 N   0  0  0  0  0  0  0  0  0  0  0  0
   -6.2536   -0.5710    9.9424 C   0  0  1  0  0  0  0  0  0  0  0  0
   -7.0174    0.4958   10.2696 N   0  0  0  0  0  0  0  0  0  0  0  0
   -6.8265   -1.7876    9.7885 N   0  0  0  0  0  0  0  0  0  0  0  0
   -6.0562   -2.8523    9.4600 C   0  0  1  0  0  0  0  0  0  0  0  0
   -4.6946   -2.7088    9.2796 C   0  0  2  0  0  0  0  0  0  0  0  0
   -4.1307   -1.4491    9.4444 C   0  0  0  0  0  0  0  0  0  0  0  0
   -2.9055   -1.2754    9.2907 O   0  0  0  0  0  0  0  0  0  0  0  0
   -4.2040   -3.9233    8.9582 N   0  0  0  0  0  0  0  0  0  0  0  0
   -5.2381   -4.7965    8.9484 C   0  0  0  0  0  0  0  0  0  0  0  0
   -6.3544   -4.1288    9.2567 N   0  0  1  0  0  0  0  0  0  0  0  0
  1  2  1  1  0  0  0
  1  3  1  0  0  0  0
  1  4  2  0  0  0  0
  1  6  1  0  0  0  0
  5  6  1  0  0  0  0
  7  5  1  1  0  0  0
  7  8  1  0  0  0  0
  7  9  1  0  0  0  0
  9 10  1  6  0  0  0
  9 11  1  0  0  0  0
 11 12  1  1  0  0  0
 11 13  1  0  0  0  0
 13  8  1  1  0  0  0
 13 24  1  0  0  0  0
 14 15  1  0  0  0  0
 14 20  1  0  0  0  0
 15 16  1  6  0  0  0
 15 17  1  0  0  0  0
 18 17  1  1  0  0  0
 18 19  1  0  0  0  0
 18 24  1  0  0  0  0
 19 20  1  6  0  0  0
 19 22  1  0  0  0  0
 20 21  2  0  0  0  0
 22 23  1  0  0  0  0
 24 23  1  1  0  0  0
M  CHG  1   3  -1
M  END
>  <CHROM.1>
42.48484451,168.97402746,169.96259236,-67.51951031,-6.71098096,-4.83384660
11.16807108,-2.10198116,-0.96887744,-1.10743563

>  <Name>
ligand

>  <RI>
0

>  <Rbt.Current_Directory>
/home/itssahil/PROJECTS/Mol_Feturizer/New_Systems/rnas/3SLQ

>  <Rbt.Executable>
rbdock ($Id: //depot/dev/client3/rdock/2013.1/src/exe/rbdock.cxx#4 $)

>  <Rbt.Library>
libRbt.so (2013.1, Build901 2013/11/27)

>  <Rbt.Parameter_File>
/export/apps/rDock/src/rDock_2013.1_src/data/scripts/dock_solv.prm

>  <Rbt.Receptor>
prm/pocket_docking_2.prm

>  <SCORE>
-18.7808

>  <SCORE.INTER>
-13.3656

>  <SCORE.INTER.CONST>
1

>  <SCORE.INTER.POLAR>
0

>  <SCORE.INTER.ROT>
4

>  <SCORE.INTER.SOLV>
19.3004

>  <SCORE.INTER.VDW>
-21.6105

>  <SCORE.INTER.norm>
-0.5569

>  <SCORE.INTRA>
-5.41519

>  <SCORE.INTRA.DIHEDRAL>
-10.6777

>  <SCORE.INTRA.DIHEDRAL.0>
13.2525

>  <SCORE.INTRA.POLAR>
0

>  <SCORE.INTRA.POLAR.0>
0

>  <SCORE.INTRA.REPUL>
0

>  <SCORE.INTRA.REPUL.0>
0

>  <SCORE.INTRA.SOLV>
0.132948

>  <SCORE.INTRA.SOLV.lig_0>
-70.7221

>  <SCORE.INTRA.VDW>
-0.142825

>  <SCORE.INTRA.VDW.0>
-1.46337

>  <SCORE.INTRA.norm>
-0.225633

>  <SCORE.RESTR>
0

>  <SCORE.RESTR.CAVITY>
0

>  <SCORE.RESTR.norm>
0

>  <SCORE.SYSTEM>
0

>  <SCORE.SYSTEM.CONST>
0

>  <SCORE.SYSTEM.DIHEDRAL>
0

>  <SCORE.SYSTEM.SOLV>
0

>  <SCORE.SYSTEM.norm>
0

>  <SCORE.heavy>
24

>  <SCORE.norm>
-0.782533

>  <RMSD>
0.836

$$$$
ligand
 OpenBabel11021811483D
libRbt.so/2013.1/901 2013/11/27
 24 26  0  0  0  0  0  0  0  0999 V2000
   -7.0508   -7.0159   14.6983 P   0  0  1  0  0  0  0  0  0  0  0  0
   -6.8909   -6.3342   16.0404 O   0  0  0  0  0  0  0  0  0  0  0  0
   -6.7643   -8.4986   14.6612 O   0  5  0  0  0  0  0  0  0  0  0  0
   -8.3313   -6.6460   13.9648 O   0  0  0  0  0  0  0  0  0  0  0  0
   -5.4390   -6.9475   12.5278 C   0  0  0  0  0  0  0  0  0  0  0  0
   -5.8090   -6.4428   13.8226 O   0  0  0  0  0  0  0  0  0  0  0  0
   -6.5190   -6.5912   11.5019 C   0  0  1  0  0  0  0  0  0  0  0  0
   -6.5709   -5.1816   11.2483 O   0  0  0  0  0  0  0  0  0  0  0  0
   -6.3481   -7.2467   10.1421 C   0  0  1  0  0  0  0  0  0  0  0  0
   -7.0522   -8.4921   10.1366 O   0  0  0  0  0  0  0  0  0  0  0  0
   -6.9796   -6.2453    9.1888 C   0  0  1  0  0  0  0  0  0  0  0  0
   -8.4042   -6.4121    9.1560 O   0  0  0  0  0  0  0  0  0  0  0  0
   -6.7328   -4.9046    9.8516 C   0  0  2  0  0  0  0  0  0  0  0  0
   -4.3642   -0.4048    9.4064 N   0  0  0  0  0  0  0  0  0  0  0  0
   -5.6173   -0.6774    9.8364 C   0  0  1  0  0  0  0  0  0  0  0  0
   -6.4164    0.3407   10.2284 N   0  0  0  0  0  0  0  0  0  0  0  0
   -6.0778   -1.9495    9.8782 N   0  0  0  0  0  0  0  0  0  0  0  0
   -5.2727   -2.9649    9.4837 C   0  0  1  0  0  0  0  0  0  0  0  0
   -3.9894   -2.7154    9.0386 C   0  0  2  0  0  0  0  0  0  0  0  0
   -3.5403   -1.4004    9.0062 C   0  0  0  0  0  0  0  0  0  0  0  0
   -2.3887   -1.1310    8.6111 O   0  0  0  0  0  0  0  0  0  0  0  0
   -3.4408   -3.9041    8.7144 N   0  0  0  0  0  0  0  0  0  0  0  0
   -4.3620   -4.8646    8.9612 C   0  0  0  0  0  0  0  0  0  0  0  0
   -5.4673   -4.2760    9.4291 N   0  0  1  0  0  0  0  0  0  0  0  0
  1  2  1  1  0  0  0
  1  3  1  0  0  0  0
  1  4  2  0  0  0  0
  1  6  1  0  0  0  0
  5  6  1  0  0  0  0
  7  5  1  1  0  0  0
  7  8  1  0  0  0  0
  7  9  1  0  0  0  0
  9 10  1  1  0  0  0
  9 11  1  0  0  0  0
 11 12  1  1  0  0  0
 11 13  1  0  0  0  0
 13  8  1  1  0  0  0
 13 24  1  0  0  0  0
 14 15  1  0  0  0  0
 14 20  1  0  0  0  0
 15 16  1  6  0  0  0
 15 17  1  0  0  0  0
 18 17  1  1  0  0  0
 18 19  1  0  0  0  0
 18 24  1  0  0  0  0
 19 20  1  6  0  0  0
 19 22  1  0  0  0  0
 20 21  2  0  0  0  0
 22 23  1  0  0  0  0
 24 23  1  1  0  0  0
M  CHG  1   3  -1
M  END
>  <CHROM.1>
171.11688121,68.34879301,68.51380044,-89.48743131,-5.94269811,-4.84473249
11.11270226,-2.85044155,-1.21544088,-1.94710208

>  <Name>
ligand

>  <RI>
0

>  <Rbt.Current_Directory>
/home/itssahil/PROJECTS/Mol_Feturizer/New_Systems/rnas/3SLQ

>  <Rbt.Executable>
rbdock ($Id: //depot/dev/client3/rdock/2013.1/src/exe/rbdock.cxx#4 $)

>  <Rbt.Library>
libRbt.so (2013.1, Build901 2013/11/27)

>  <Rbt.Parameter_File>
/export/apps/rDock/src/rDock_2013.1_src/data/scripts/dock_solv.prm

>  <Rbt.Receptor>
prm/pocket_docking_3.prm

>  <SCORE>
-21.7166

>  <SCORE.INTER>
-16.8351

>  <SCORE.INTER.CONST>
1

>  <SCORE.INTER.POLAR>
0

>  <SCORE.INTER.ROT>
4

>  <SCORE.INTER.SOLV>
19.4317

>  <SCORE.INTER.VDW>
-23.9673

>  <SCORE.INTER.norm>
-0.701461

>  <SCORE.INTRA>
-4.88153

>  <SCORE.INTRA.DIHEDRAL>
-11.3472

>  <SCORE.INTRA.DIHEDRAL.0>
13.2525

>  <SCORE.INTRA.POLAR>
0

>  <SCORE.INTRA.POLAR.0>
0

>  <SCORE.INTRA.REPUL>
0

>  <SCORE.INTRA.REPUL.0>
0

>  <SCORE.INTRA.SOLV>
2.69407

>  <SCORE.INTRA.SOLV.lig_0>
-70.7221

>  <SCORE.INTRA.VDW>
-0.554956

>  <SCORE.INTRA.VDW.0>
-1.46337

>  <SCORE.INTRA.norm>
-0.203397

>  <SCORE.RESTR>
0

>  <SCORE.RESTR.CAVITY>
0

>  <SCORE.RESTR.norm>
0

>  <SCORE.SYSTEM>
0

>  <SCORE.SYSTEM.CONST>
0

>  <SCORE.SYSTEM.DIHEDRAL>
0

>  <SCORE.SYSTEM.SOLV>
0

>  <SCORE.SYSTEM.norm>
0

>  <SCORE.heavy>
24

>  <SCORE.norm>
-0.904859

>  <RMSD>
0.841

$$$$
ligand
 OpenBabel11021811483D
libRbt.so/2013.1/901 2013/11/27
 24 26  0  0  0  0  0  0  0  0999 V2000
   -6.9980   -7.0257   14.7069 P   0  0  1  0  0  0  0  0  0  0  0  0
   -6.8079   -6.3491   16.0477 O   0  0  0  0  0  0  0  0  0  0  0  0
   -6.7203   -8.5098   14.6597 O   0  5  0  0  0  0  0  0  0  0  0  0
   -8.2908   -6.6466   14.0002 O   0  0  0  0  0  0  0  0  0  0  0  0
   -5.4198   -6.9693   12.5115 C   0  0  0  0  0  0  0  0  0  0  0  0
   -5.7708   -6.4565   13.8085 O   0  0  0  0  0  0  0  0  0  0  0  0
   -6.5060   -6.6037   11.4956 C   0  0  1  0  0  0  0  0  0  0  0  0
   -6.5539   -5.1927   11.2488 O   0  0  0  0  0  0  0  0  0  0  0  0
   -6.3483   -7.2536   10.1315 C   0  0  1  0  0  0  0  0  0  0  0  0
   -7.0577   -8.4959   10.1257 O   0  0  0  0  0  0  0  0  0  0  0  0
   -6.9828   -6.2452    9.1877 C   0  0  1  0  0  0  0  0  0  0  0  0
   -8.4083   -6.4058    9.1650 O   0  0  0  0  0  0  0  0  0  0  0  0
   -6.7252   -4.9086    9.8548 C   0  0  2  0  0  0  0  0  0  0  0  0
   -4.3553   -0.4130    9.3754 N   0  0  0  0  0  0  0  0  0  0  0  0
   -5.6076   -0.6821    9.8099 C   0  0  1  0  0  0  0  0  0  0  0  0
   -6.4053    0.3388   10.1969 N   0  0  0  0  0  0  0  0  0  0  0  0
   -6.0686   -1.9538    9.8609 N   0  0  0  0  0  0  0  0  0  0  0  0
   -5.2650   -2.9721    9.4712 C   0  0  1  0  0  0  0  0  0  0  0  0
   -3.9825   -2.7262    9.0217 C   0  0  2  0  0  0  0  0  0  0  0  0
   -3.5328   -1.4116    8.9798 C   0  0  0  0  0  0  0  0  0  0  0  0
   -2.3819   -1.1454    8.5806 O   0  0  0  0  0  0  0  0  0  0  0  0
   -3.4352   -3.9172    8.7040 N   0  0  0  0  0  0  0  0  0  0  0  0
   -4.3563   -4.8756    8.9590 C   0  0  0  0  0  0  0  0  0  0  0  0
   -5.4603   -4.2834    9.4255 N   0  0  1  0  0  0  0  0  0  0  0  0
  1  2  1  1  0  0  0
  1  3  1  0  0  0  0
  1  4  2  0  0  0  0
  1  6  1  0  0  0  0
  5  6  1  0  0  0  0
  7  5  1  1  0  0  0
  7  8  1  0  0  0  0
  7  9  1  0  0  0  0
  9 10  1  1  0  0  0
  9 11  1  0  0  0  0
 11 12  1  1  0  0  0
 11 13  1  0  0  0  0
 13  8  1  1  0  0  0
 13 24  1  0  0  0  0
 14 15  1  0  0  0  0
 14 20  1  0  0  0  0
 15 16  1  6  0  0  0
 15 17  1  0  0  0  0
 18 17  1  1  0  0  0
 18 19  1  0  0  0  0
 18 24  1  0  0  0  0
 19 20  1  6  0  0  0
 19 22  1  0  0  0  0
 20 21  2  0  0  0  0
 22 23  1  0  0  0  0
 24 23  1  1  0  0  0
M  CHG  1   3  -1
M  END
>  <CHROM.1>
170.37989240,67.72840435,69.34836779,-90.22552514,-5.92388663,-4.85304024
11.10548900,-2.80925133,-1.21636546,-1.90662162

>  <Name>
ligand

>  <RI>
0

>  <Rbt.Current_Directory>
/home/itssahil/PROJECTS/Mol_Feturizer/New_Systems/rnas/3SLQ

>  <Rbt.Executable>
rbdock ($Id: //depot/dev/client3/rdock/2013.1/src/exe/rbdock.cxx#4 $)

>  <Rbt.Library>
libRbt.so (2013.1, Build901 2013/11/27)

>  <Rbt.Parameter_File>
/export/apps/rDock/src/rDock_2013.1_src/data/scripts/dock_solv.prm

>  <Rbt.Receptor>
prm/pocket_docking_4.prm

>  <SCORE>
-21.6814

>  <SCORE.INTER>
-16.8259

>  <SCORE.INTER.CONST>
1

>  <SCORE.INTER.POLAR>
0

>  <SCORE.INTER.ROT>
4

>  <SCORE.INTER.SOLV>
19.4226

>  <SCORE.INTER.VDW>
-23.9581

>  <SCORE.INTER.norm>
-0.701078

>  <SCORE.INTRA>
-4.8555

>  <SCORE.INTRA.DIHEDRAL>
-11.2899

>  <SCORE.INTRA.DIHEDRAL.0>
13.2525

>  <SCORE.INTRA.POLAR>
0

>  <SCORE.INTRA.POLAR.0>
0

>  <SCORE.INTRA.REPUL>
0

>  <SCORE.INTRA.REPUL.0>
0

>  <SCORE.INTRA.SOLV>
2.66027

>  <SCORE.INTRA.SOLV.lig_0>
-70.7221

>  <SCORE.INTRA.VDW>
-0.540701

>  <SCORE.INTRA.VDW.0>
-1.46337

>  <SCORE.INTRA.norm>
-0.202312

>  <SCORE.RESTR>
0

>  <SCORE.RESTR.CAVITY>
0

>  <SCORE.RESTR.norm>
0

>  <SCORE.SYSTEM>
0

>  <SCORE.SYSTEM.CONST>
0

>  <SCORE.SYSTEM.DIHEDRAL>
0

>  <SCORE.SYSTEM.SOLV>
0

>  <SCORE.SYSTEM.norm>
0

>  <SCORE.heavy>
24

>  <SCORE.norm>
-0.90339

>  <RMSD>
0.845

$$$$
ligand
 OpenBabel11021811483D
libRbt.so/2013.1/901 2013/11/27
 24 26  0  0  0  0  0  0  0  0999 V2000
   -6.3470   -7.4187   14.7883 P   0  0  1  0  0  0  0  0  0  0  0  0
   -5.7629   -6.9708   16.1110 O   0  0  0  0  0  0  0  0  0  0  0  0
   -6.3066   -8.9020   14.5056 O   0  5  0  0  0  0  0  0  0  0  0  0
   -7.6963   -6.7950   14.4646 O   0  0  0  0  0  0  0  0  0  0  0  0
   -5.2186   -7.3379   12.3319 C   0  0  0  0  0  0  0  0  0  0  0  0
   -5.2843   -6.8694   13.6899 O   0  0  0  0  0  0  0  0  0  0  0  0
   -6.4209   -6.8133   11.5412 C   0  0  1  0  0  0  0  0  0  0  0  0
   -6.4160   -5.3832   11.4473 O   0  0  0  0  0  0  0  0  0  0  0  0
   -6.5135   -7.3181   10.1114 C   0  0  1  0  0  0  0  0  0  0  0  0
   -7.2930   -8.5176   10.0933 O   0  0  0  0  0  0  0  0  0  0  0  0
   -7.2184   -6.1844    9.3848 C   0  0  1  0  0  0  0  0  0  0  0  0
   -8.6381   -6.2741    9.5708 O   0  0  0  0  0  0  0  0  0  0  0  0
   -6.7783   -4.9417   10.1330 C   0  0  2  0  0  0  0  0  0  0  0  0
   -4.4662   -0.4695    9.2909 N   0  0  0  0  0  0  0  0  0  0  0  0
   -5.6760   -0.7212    9.8406 C   0  0  1  0  0  0  0  0  0  0  0  0
   -6.4393    0.3141   10.2579 N   0  0  0  0  0  0  0  0  0  0  0  0
   -6.1288   -1.9895    9.9766 N   0  0  0  0  0  0  0  0  0  0  0  0
   -5.3598   -3.0223    9.5562 C   0  0  1  0  0  0  0  0  0  0  0  0
   -4.1211   -2.7944    8.9897 C   0  0  2  0  0  0  0  0  0  0  0  0
   -3.6789   -1.4828    8.8622 C   0  0  0  0  0  0  0  0  0  0  0  0
   -2.5670   -1.2326    8.3563 O   0  0  0  0  0  0  0  0  0  0  0  0
   -3.6010   -3.9968    8.6692 N   0  0  0  0  0  0  0  0  0  0  0  0
   -4.4952   -4.9441    9.0366 C   0  0  0  0  0  0  0  0  0  0  0  0
   -5.5561   -4.3341    9.5746 N   0  0  1  0  0  0  0  0  0  0  0  0
  1  2  1  1  0  0  0
  1  3  1  0  0  0  0
  1  4  2  0  0  0  0
  1  6  1  0  0  0  0
  5  6  1  0  0  0  0
  7  5  1  6  0  0  0
  7  8  1  0  0  0  0
  7  9  1  0  0  0  0
  9 10  1  1  0  0  0
  9 11  1  0  0  0  0
 11 12  1  1  0  0  0
 11 13  1  0  0  0  0
 13  8  1  1  0  0  0
 13 24  1  0  0  0  0
 14 15  1  0  0  0  0
 14 20  1  0  0  0  0
 15 16  1  6  0  0  0
 15 17  1  0  0  0  0
 18 17  1  1  0  0  0
 18 19  1  0  0  0  0
 18 24  1  0  0  0  0
 19 20  1  6  0  0  0
 19 22  1  0  0  0  0
 20 21  2  0  0  0  0
 22 23  1  0  0  0  0
 24 23  1  1  0  0  0
M  CHG  1   3  -1
M  END
>  <CHROM.1>
163.08977822,63.46734576,72.19489526,-99.77482347,-5.81959817,-5.00921948
11.16062456,-2.23099211,-1.16972735,-1.29205208

>  <Name>
ligand

>  <RI>
0

>  <Rbt.Current_Directory>
/home/itssahil/PROJECTS/Mol_Feturizer/New_Systems/rnas/3SLQ

>  <Rbt.Executable>
rbdock ($Id: //depot/dev/client3/rdock/2013.1/src/exe/rbdock.cxx#4 $)

>  <Rbt.Library>
libRbt.so (2013.1, Build901 2013/11/27)

>  <Rbt.Parameter_File>
/export/apps/rDock/src/rDock_2013.1_src/data/scripts/dock_solv.prm

>  <Rbt.Receptor>
prm/pocket_docking_7.prm

>  <SCORE>
-20.1767

>  <SCORE.INTER>
-15.5335

>  <SCORE.INTER.CONST>
1

>  <SCORE.INTER.POLAR>
0

>  <SCORE.INTER.ROT>
4

>  <SCORE.INTER.SOLV>
18.8356

>  <SCORE.INTER.VDW>
-22.9009

>  <SCORE.INTER.norm>
-0.647228

>  <SCORE.INTRA>
-4.64323

>  <SCORE.INTRA.DIHEDRAL>
-10.8798

>  <SCORE.INTRA.DIHEDRAL.0>
13.2525

>  <SCORE.INTRA.POLAR>
0

>  <SCORE.INTRA.POLAR.0>
0

>  <SCORE.INTRA.REPUL>
0

>  <SCORE.INTRA.REPUL.0>
0

>  <SCORE.INTRA.SOLV>
2.54268

>  <SCORE.INTRA.SOLV.lig_0>
-70.7221

>  <SCORE.INTRA.VDW>
-0.474666

>  <SCORE.INTRA.VDW.0>
-1.46337

>  <SCORE.INTRA.norm>
-0.193468

>  <SCORE.RESTR>
0

>  <SCORE.RESTR.CAVITY>
0

>  <SCORE.RESTR.norm>
0

>  <SCORE.SYSTEM>
0

>  <SCORE.SYSTEM.CONST>
0

>  <SCORE.SYSTEM.DIHEDRAL>
0

>  <SCORE.SYSTEM.SOLV>
0

>  <SCORE.SYSTEM.norm>
0

>  <SCORE.heavy>
24

>  <SCORE.norm>
-0.840696

>  <RMSD>
0.847

$$$$
ligand
 OpenBabel11021811483D
libRbt.so/2013.1/901 2013/11/27
 24 26  0  0  0  0  0  0  0  0999 V2000
   -6.8924   -7.6288   14.8354 P   0  0  1  0  0  0  0  0  0  0  0  0
   -7.9876   -6.8835   15.5679 O   0  0  0  0  0  0  0  0  0  0  0  0
   -5.4998   -7.0545   14.9480 O   0  5  0  0  0  0  0  0  0  0  0  0
   -6.9252   -9.1359   15.0407 O   0  0  0  0  0  0  0  0  0  0  0  0
   -7.1812   -6.0425   12.6643 C   0  0  0  0  0  0  0  0  0  0  0  0
   -7.2134   -7.3471   13.2686 O   0  0  0  0  0  0  0  0  0  0  0  0
   -7.7287   -6.1166   11.2358 C   0  0  1  0  0  0  0  0  0  0  0  0
   -7.7114   -4.8374   10.5898 O   0  0  0  0  0  0  0  0  0  0  0  0
   -6.9718   -7.0539   10.3104 C   0  0  1  0  0  0  0  0  0  0  0  0
   -7.5662   -8.3533   10.3800 O   0  0  0  0  0  0  0  0  0  0  0  0
   -7.1656   -6.4251    8.9402 C   0  0  1  0  0  0  0  0  0  0  0  0
   -8.4330   -6.8069    8.3868 O   0  0  0  0  0  0  0  0  0  0  0  0
   -7.2685   -4.9410    9.2309 C   0  0  2  0  0  0  0  0  0  0  0  0
   -5.0359   -0.3937    9.8589 N   0  0  0  0  0  0  0  0  0  0  0  0
   -6.3434   -0.7286    9.9475 C   0  0  1  0  0  0  0  0  0  0  0  0
   -7.2504    0.2279   10.2494 N   0  0  0  0  0  0  0  0  0  0  0  0
   -6.7517   -2.0020    9.7382 N   0  0  0  0  0  0  0  0  0  0  0  0
   -5.8384   -2.9555    9.4355 C   0  0  1  0  0  0  0  0  0  0  0  0
   -4.4972   -2.6414    9.3370 C   0  0  2  0  0  0  0  0  0  0  0  0
   -4.1037   -1.3266    9.5573 C   0  0  0  0  0  0  0  0  0  0  0  0
   -2.9029   -1.0002    9.4781 O   0  0  0  0  0  0  0  0  0  0  0  0
   -3.8429   -3.7780    9.0224 N   0  0  0  0  0  0  0  0  0  0  0  0
   -4.7586   -4.7710    8.9365 C   0  0  0  0  0  0  0  0  0  0  0  0
   -5.9644   -4.2533    9.1919 N   0  0  1  0  0  0  0  0  0  0  0  0
  1  2  1  1  0  0  0
  1  3  1  0  0  0  0
  1  4  2  0  0  0  0
  1  6  1  0  0  0  0
  5  6  1  0  0  0  0
  7  5  1  1  0  0  0
  7  8  1  0  0  0  0
  7  9  1  0  0  0  0
  9 10  1  6  0  0  0
  9 11  1  0  0  0  0
 11 12  1  1  0  0  0
 11 13  1  0  0  0  0
 13  8  1  1  0  0  0
 13 24  1  0  0  0  0
 14 15  1  0  0  0  0
 14 20  1  0  0  0  0
 15 16  1  6  0  0  0
 15 17  1  0  0  0  0
 18 17  1  1  0  0  0
 18 19  1  0  0  0  0
 18 24  1  0  0  0  0
 19 20  1  6  0  0  0
 19 22  1  0  0  0  0
 20 21  2  0  0  0  0
 22 23  1  0  0  0  0
 24 23  1  1  0  0  0
M  CHG  1   3  -1
M  END
>  <CHROM.1>
63.44228442,-179.77432451,-171.82730273,-63.98781851,-6.39744968,-4.94209467
11.14141312,-2.20922320,-1.13778069,-1.24099986

>  <Name>
ligand

>  <RI>
0

>  <Rbt.Current_Directory>
/home/itssahil/PROJECTS/Mol_Feturizer/New_Systems/rnas/3SLQ

>  <Rbt.Executable>
rbdock ($Id: //depot/dev/client3/rdock/2013.1/src/exe/rbdock.cxx#4 $)

>  <Rbt.Library>
libRbt.so (2013.1, Build901 2013/11/27)

>  <Rbt.Parameter_File>
/export/apps/rDock/src/rDock_2013.1_src/data/scripts/dock_solv.prm

>  <Rbt.Receptor>
prm/pocket_docking_2.prm

>  <SCORE>
-18.6457

>  <SCORE.INTER>
-12.751

>  <SCORE.INTER.CONST>
1

>  <SCORE.INTER.POLAR>
0

>  <SCORE.INTER.ROT>
4

>  <SCORE.INTER.SOLV>
21.8304

>  <SCORE.INTER.VDW>
-22.0441

>  <SCORE.INTER.norm>
-0.53129

>  <SCORE.INTRA>
-5.89582

>  <SCORE.INTRA.DIHEDRAL>
-11.7107

>  <SCORE.INTRA.DIHEDRAL.0>
13.2525

>  <SCORE.INTRA.POLAR>
0

>  <SCORE.INTRA.POLAR.0>
0

>  <SCORE.INTRA.REPUL>
0

>  <SCORE.INTRA.REPUL.0>
0

>  <SCORE.INTRA.SOLV>
0.11003

>  <SCORE.INTRA.SOLV.lig_0>
-70.7221

>  <SCORE.INTRA.VDW>
-0.0954804

>  <SCORE.INTRA.VDW.0>
-1.46337

>  <SCORE.INTRA.norm>
-0.245659

>  <SCORE.RESTR>
0.00109395

>  <SCORE.RESTR.CAVITY>
0.00109395

>  <SCORE.RESTR.norm>
4.55811e-05

>  <SCORE.SYSTEM>
0

>  <SCORE.SYSTEM.CONST>
0

>  <SCORE.SYSTEM.DIHEDRAL>
0

>  <SCORE.SYSTEM.SOLV>
0

>  <SCORE.SYSTEM.norm>
0

>  <SCORE.heavy>
24

>  <SCORE.norm>
-0.776903

>  <RMSD>
0.850

$$$$
ligand
 OpenBabel11021811483D
libRbt.so/2013.1/901 2013/11/27
 24 26  0  0  0  0  0  0  0  0999 V2000
   -6.9148   -7.5791   14.8295 P   0  0  1  0  0  0  0  0  0  0  0  0
   -7.9825   -6.8376   15.6052 O   0  0  0  0  0  0  0  0  0  0  0  0
   -5.5113   -7.0290   14.9274 O   0  5  0  0  0  0  0  0  0  0  0  0
   -6.9667   -9.0906   14.9951 O   0  0  0  0  0  0  0  0  0  0  0  0
   -7.2465   -5.9275   12.7139 C   0  0  0  0  0  0  0  0  0  0  0  0
   -7.2644   -7.2502   13.2782 O   0  0  0  0  0  0  0  0  0  0  0  0
   -7.8595   -5.9516   11.3105 C   0  0  1  0  0  0  0  0  0  0  0  0
   -7.8149   -4.6626   10.6857 O   0  0  0  0  0  0  0  0  0  0  0  0
   -7.1859   -6.9031   10.3365 C   0  0  1  0  0  0  0  0  0  0  0  0
   -7.8328   -8.1770   10.4113 O   0  0  0  0  0  0  0  0  0  0  0  0
   -7.4126   -6.2413    8.9871 C   0  0  1  0  0  0  0  0  0  0  0  0
   -8.7187   -6.5581    8.4851 O   0  0  0  0  0  0  0  0  0  0  0  0
   -7.4376   -4.7598    9.3067 C   0  0  2  0  0  0  0  0  0  0  0  0
   -4.9920   -0.3132    9.8576 N   0  0  0  0  0  0  0  0  0  0  0  0
   -6.3084   -0.5925    9.9940 C   0  0  1  0  0  0  0  0  0  0  0  0
   -7.1621    0.4007   10.3303 N   0  0  0  0  0  0  0  0  0  0  0  0
   -6.7779   -1.8469    9.7983 N   0  0  0  0  0  0  0  0  0  0  0  0
   -5.9178   -2.8374    9.4609 C   0  0  1  0  0  0  0  0  0  0  0  0
   -4.5690   -2.5803    9.3133 C   0  0  2  0  0  0  0  0  0  0  0  0
   -4.1121   -1.2841    9.5206 C   0  0  0  0  0  0  0  0  0  0  0  0
   -2.9022   -1.0087    9.3976 O   0  0  0  0  0  0  0  0  0  0  0  0
   -3.9756   -3.7428    8.9734 N   0  0  0  0  0  0  0  0  0  0  0  0
   -4.9353   -4.6957    8.9201 C   0  0  0  0  0  0  0  0  0  0  0  0
   -6.1078   -4.1281    9.2205 N   0  0  1  0  0  0  0  0  0  0  0  0
  1  2  1  1  0  0  0
  1  3  1  0  0  0  0
  1  4  2  0  0  0  0
  1  6  1  0  0  0  0
  5  6  1  0  0  0  0
  7  5  1  1  0  0  0
  7  8  1  0  0  0  0
  7  9  1  0  0  0  0
  9 10  1  6  0  0  0
  9 11  1  0  0  0  0
 11 12  1  1  0  0  0
 11 13  1  0  0  0  0
 13  8  1  1  0  0  0
 13 24  1  0  0  0  0
 14 15  1  0  0  0  0
 14 20  1  0  0  0  0
 15 16  1  6  0  0  0
 15 17  1  0  0  0  0
 18 17  1  1  0  0  0
 18 19  1  0  0  0  0
 18 24  1  0  0  0  0
 19 20  1  6  0  0  0
 19 22  1  0  0  0  0
 20 21  2  0  0  0  0
 22 23  1  0  0  0  0
 24 23  1  1  0  0  0
M  CHG  1   3  -1
M  END
>  <CHROM.1>
62.35579558,-177.68518468,-170.06852615,-64.98513691,-6.48074101,-4.83491907
11.16125854,-2.13055201,-1.07370499,-1.14983208

>  <Name>
ligand

>  <RI>
0

>  <Rbt.Current_Directory>
/home/itssahil/PROJECTS/Mol_Feturizer/New_Systems/rnas/3SLQ

>  <Rbt.Executable>
rbdock ($Id: //depot/dev/client3/rdock/2013.1/src/exe/rbdock.cxx#4 $)

>  <Rbt.Library>
libRbt.so (2013.1, Build901 2013/11/27)

>  <Rbt.Parameter_File>
/export/apps/rDock/src/rDock_2013.1_src/data/scripts/dock_solv.prm

>  <Rbt.Receptor>
prm/pocket_docking_2.prm

>  <SCORE>
-18.4874

>  <SCORE.INTER>
-12.6714

>  <SCORE.INTER.CONST>
1

>  <SCORE.INTER.POLAR>
0

>  <SCORE.INTER.ROT>
4

>  <SCORE.INTER.SOLV>
21.6736

>  <SCORE.INTER.VDW>
-21.9388

>  <SCORE.INTER.norm>
-0.527975

>  <SCORE.INTRA>
-5.81601

>  <SCORE.INTRA.DIHEDRAL>
-11.5522

>  <SCORE.INTRA.DIHEDRAL.0>
13.2525

>  <SCORE.INTRA.POLAR>
0

>  <SCORE.INTRA.POLAR.0>
0

>  <SCORE.INTRA.REPUL>
0

>  <SCORE.INTRA.REPUL.0>
0

>  <SCORE.INTRA.SOLV>
0.102359

>  <SCORE.INTRA.SOLV.lig_0>
-70.7221

>  <SCORE.INTRA.VDW>
-0.0911056

>  <SCORE.INTRA.VDW.0>
-1.46337

>  <SCORE.INTRA.norm>
-0.242334

>  <SCORE.RESTR>
0

>  <SCORE.RESTR.CAVITY>
0

>  <SCORE.RESTR.norm>
0

>  <SCORE.SYSTEM>
0

>  <SCORE.SYSTEM.CONST>
0

>  <SCORE.SYSTEM.DIHEDRAL>
0

>  <SCORE.SYSTEM.SOLV>
0

>  <SCORE.SYSTEM.norm>
0

>  <SCORE.heavy>
24

>  <SCORE.norm>
-0.770308

>  <RMSD>
0.857

$$$$
ligand
 OpenBabel11021811483D
libRbt.so/2013.1/901 2013/11/27
 24 26  0  0  0  0  0  0  0  0999 V2000
   -6.8630   -6.9388   14.7304 P   0  0  1  0  0  0  0  0  0  0  0  0
   -7.9873   -5.9714   14.4278 O   0  0  0  0  0  0  0  0  0  0  0  0
   -6.2083   -6.8032   16.0849 O   0  5  0  0  0  0  0  0  0  0  0  0
   -7.1760   -8.3835   14.3706 O   0  0  0  0  0  0  0  0  0  0  0  0
   -5.4179   -6.9832   12.4449 C   0  0  0  0  0  0  0  0  0  0  0  0
   -5.6582   -6.4485   13.7582 O   0  0  0  0  0  0  0  0  0  0  0  0
   -6.5712   -6.6063   11.5101 C   0  0  1  0  0  0  0  0  0  0  0  0
   -6.6933   -5.1865   11.3577 O   0  0  0  0  0  0  0  0  0  0  0  0
   -6.4576   -7.1620   10.1009 C   0  0  1  0  0  0  0  0  0  0  0  0
   -7.1116   -8.4334   10.0503 O   0  0  0  0  0  0  0  0  0  0  0  0
   -7.1843   -6.1276    9.2570 C   0  0  1  0  0  0  0  0  0  0  0  0
   -8.6006   -6.3530    9.2951 O   0  0  0  0  0  0  0  0  0  0  0  0
   -6.9502   -4.8245    9.9952 C   0  0  2  0  0  0  0  0  0  0  0  0
   -4.8859   -0.1814    9.5086 N   0  0  0  0  0  0  0  0  0  0  0  0
   -6.1082   -0.5345    9.9676 C   0  0  1  0  0  0  0  0  0  0  0  0
   -6.9610    0.4295   10.3822 N   0  0  0  0  0  0  0  0  0  0  0  0
   -6.4852   -1.8336   10.0161 N   0  0  0  0  0  0  0  0  0  0  0  0
   -5.6266   -2.7946    9.5989 C   0  0  1  0  0  0  0  0  0  0  0  0
   -4.3731   -2.4626    9.1239 C   0  0  2  0  0  0  0  0  0  0  0  0
   -4.0099   -1.1215    9.0851 C   0  0  0  0  0  0  0  0  0  0  0  0
   -2.8879   -0.7781    8.6635 O   0  0  0  0  0  0  0  0  0  0  0  0
   -3.7576   -3.6131    8.7825 N   0  0  0  0  0  0  0  0  0  0  0  0
   -4.6091   -4.6310    9.0481 C   0  0  0  0  0  0  0  0  0  0  0  0
   -5.7381   -4.1154    9.5445 N   0  0  1  0  0  0  0  0  0  0  0  0
  1  2  1  6  0  0  0
  1  3  1  0  0  0  0
  1  4  2  0  0  0  0
  1  6  1  0  0  0  0
  5  6  1  0  0  0  0
  7  5  1  1  0  0  0
  7  8  1  0  0  0  0
  7  9  1  0  0  0  0
  9 10  1  1  0  0  0
  9 11  1  0  0  0  0
 11 12  1  1  0  0  0
 11 13  1  0  0  0  0
 13  8  1  1  0  0  0
 13 24  1  0  0  0  0
 14 15  1  0  0  0  0
 14 20  1  0  0  0  0
 15 16  1  6  0  0  0
 15 17  1  0  0  0  0
 18 17  1  1  0  0  0
 18 19  1  0  0  0  0
 18 24  1  0  0  0  0
 19 20  1  6  0  0  0
 19 22  1  0  0  0  0
 20 21  2  0  0  0  0
 22 23  1  0  0  0  0
 24 23  1  1  0  0  0
M  CHG  1   3  -1
M  END
>  <CHROM.1>
-93.27580953,61.81092403,66.67987400,-93.92628696,-6.09899488,-4.72326772
11.17491097,-2.67942338,-1.27844738,-1.74776618

>  <Name>
ligand

>  <RI>
0

>  <Rbt.Current_Directory>
/home/itssahil/PROJECTS/Mol_Feturizer/New_Systems/rnas/3SLQ

>  <Rbt.Executable>
rbdock ($Id: //depot/dev/client3/rdock/2013.1/src/exe/rbdock.cxx#4 $)

>  <Rbt.Library>
libRbt.so (2013.1, Build901 2013/11/27)

>  <Rbt.Parameter_File>
/export/apps/rDock/src/rDock_2013.1_src/data/scripts/dock_solv.prm

>  <Rbt.Receptor>
prm/pocket_docking_2.prm

>  <SCORE>
-19.4139

>  <SCORE.INTER>
-14.2631

>  <SCORE.INTER.CONST>
1

>  <SCORE.INTER.POLAR>
0

>  <SCORE.INTER.ROT>
4

>  <SCORE.INTER.SOLV>
25.0709

>  <SCORE.INTER.VDW>
-24.1324

>  <SCORE.INTER.norm>
-0.594294

>  <SCORE.INTRA>
-5.15085

>  <SCORE.INTRA.DIHEDRAL>
-10.442

>  <SCORE.INTRA.DIHEDRAL.0>
13.2525

>  <SCORE.INTRA.POLAR>
0

>  <SCORE.INTRA.POLAR.0>
0

>  <SCORE.INTRA.REPUL>
0

>  <SCORE.INTRA.REPUL.0>
0

>  <SCORE.INTRA.SOLV>
1.41168

>  <SCORE.INTRA.SOLV.lig_0>
-70.7221

>  <SCORE.INTRA.VDW>
-0.635692

>  <SCORE.INTRA.VDW.0>
-1.46337

>  <SCORE.INTRA.norm>
-0.214619

>  <SCORE.RESTR>
0

>  <SCORE.RESTR.CAVITY>
0

>  <SCORE.RESTR.norm>
0

>  <SCORE.SYSTEM>
0

>  <SCORE.SYSTEM.CONST>
0

>  <SCORE.SYSTEM.DIHEDRAL>
0

>  <SCORE.SYSTEM.SOLV>
0

>  <SCORE.SYSTEM.norm>
0

>  <SCORE.heavy>
24

>  <SCORE.norm>
-0.808913

>  <RMSD>
0.857

$$$$
ligand
 OpenBabel11021811483D
libRbt.so/2013.1/901 2013/11/27
 24 26  0  0  0  0  0  0  0  0999 V2000
   -6.8837   -7.3248   14.5941 P   0  0  1  0  0  0  0  0  0  0  0  0
   -6.5354   -8.7971   14.5421 O   0  0  0  0  0  0  0  0  0  0  0  0
   -8.1501   -6.9100   13.8828 O   0  5  0  0  0  0  0  0  0  0  0  0
   -6.7582   -6.7077   15.9791 O   0  0  0  0  0  0  0  0  0  0  0  0
   -5.4642   -7.0513   12.3086 C   0  0  0  0  0  0  0  0  0  0  0  0
   -5.7608   -6.6278   13.6505 O   0  0  0  0  0  0  0  0  0  0  0  0
   -6.6066   -6.6493   11.3710 C   0  0  1  0  0  0  0  0  0  0  0  0
   -6.7223   -5.2259   11.2495 O   0  0  0  0  0  0  0  0  0  0  0  0
   -6.4806   -7.1734    9.9508 C   0  0  1  0  0  0  0  0  0  0  0  0
   -7.1385   -8.4409    9.8649 O   0  0  0  0  0  0  0  0  0  0  0  0
   -7.1952   -6.1175    9.1232 C   0  0  1  0  0  0  0  0  0  0  0  0
   -8.6126   -6.3385    9.1420 O   0  0  0  0  0  0  0  0  0  0  0  0
   -6.9642   -4.8323    9.8930 C   0  0  2  0  0  0  0  0  0  0  0  0
   -4.8828   -0.1861    9.5233 N   0  0  0  0  0  0  0  0  0  0  0  0
   -6.1112   -0.5449    9.9610 C   0  0  1  0  0  0  0  0  0  0  0  0
   -6.9664    0.4129   10.3849 N   0  0  0  0  0  0  0  0  0  0  0  0
   -6.4920   -1.8437    9.9792 N   0  0  0  0  0  0  0  0  0  0  0  0
   -5.6310   -2.7986    9.5528 C   0  0  1  0  0  0  0  0  0  0  0  0
   -4.3712   -2.4605    9.0991 C   0  0  2  0  0  0  0  0  0  0  0  0
   -4.0043   -1.1199    9.0914 C   0  0  0  0  0  0  0  0  0  0  0  0
   -2.8765   -0.7712    8.6897 O   0  0  0  0  0  0  0  0  0  0  0  0
   -3.7546   -3.6056    8.7420 N   0  0  0  0  0  0  0  0  0  0  0  0
   -4.6117   -4.6264    8.9772 C   0  0  0  0  0  0  0  0  0  0  0  0
   -5.7452   -4.1176    9.4707 N   0  0  1  0  0  0  0  0  0  0  0  0
  1  2  1  1  0  0  0
  1  3  1  0  0  0  0
  1  4  2  0  0  0  0
  1  6  1  0  0  0  0
  5  6  1  0  0  0  0
  7  5  1  1  0  0  0
  7  8  1  0  0  0  0
  7  9  1  0  0  0  0
  9 10  1  1  0  0  0
  9 11  1  0  0  0  0
 11 12  1  1  0  0  0
 11 13  1  0  0  0  0
 13  8  1  1  0  0  0
 13 24  1  0  0  0  0
 14 15  1  0  0  0  0
 14 20  1  0  0  0  0
 15 16  1  6  0  0  0
 15 17  1  0  0  0  0
 18 17  1  1  0  0  0
 18 19  1  0  0  0  0
 18 24  1  0  0  0  0
 19 20  1  6  0  0  0
 19 22  1  0  0  0  0
 20 21  2  0  0  0  0
 22 23  1  0  0  0  0
 24 23  1  1  0  0  0
M  CHG  1   3  -1
M  END
>  <CHROM.1>
51.72145846,65.86279070,72.29449419,-94.10861518,-6.11669412,-4.82860936
11.08292723,-2.64525880,-1.27716744,-1.68026569

>  <Name>
ligand

>  <RI>
0

>  <Rbt.Current_Directory>
/home/itssahil/PROJECTS/Mol_Feturizer/New_Systems/rnas/3SLQ

>  <Rbt.Executable>
rbdock ($Id: //depot/dev/client3/rdock/2013.1/src/exe/rbdock.cxx#4 $)

>  <Rbt.Library>
libRbt.so (2013.1, Build901 2013/11/27)

>  <Rbt.Parameter_File>
/export/apps/rDock/src/rDock_2013.1_src/data/scripts/dock_solv.prm

>  <Rbt.Receptor>
prm/pocket_docking_2.prm

>  <SCORE>
-18.2426

>  <SCORE.INTER>
-13.0744

>  <SCORE.INTER.CONST>
1

>  <SCORE.INTER.POLAR>
0

>  <SCORE.INTER.ROT>
4

>  <SCORE.INTER.SOLV>
24.5101

>  <SCORE.INTER.VDW>
-23.1529

>  <SCORE.INTER.norm>
-0.544766

>  <SCORE.INTRA>
-5.17029

>  <SCORE.INTRA.DIHEDRAL>
-11.1188

>  <SCORE.INTRA.DIHEDRAL.0>
13.2525

>  <SCORE.INTRA.POLAR>
0

>  <SCORE.INTRA.POLAR.0>
0

>  <SCORE.INTRA.REPUL>
0

>  <SCORE.INTRA.REPUL.0>
0

>  <SCORE.INTRA.SOLV>
1.839

>  <SCORE.INTRA.SOLV.lig_0>
-70.7221

>  <SCORE.INTRA.VDW>
-0.530382

>  <SCORE.INTRA.VDW.0>
-1.46337

>  <SCORE.INTRA.norm>
-0.215429

>  <SCORE.RESTR>
0.00202609

>  <SCORE.RESTR.CAVITY>
0.00202609

>  <SCORE.RESTR.norm>
8.44203e-05

>  <SCORE.SYSTEM>
0

>  <SCORE.SYSTEM.CONST>
0

>  <SCORE.SYSTEM.DIHEDRAL>
0

>  <SCORE.SYSTEM.SOLV>
0

>  <SCORE.SYSTEM.norm>
0

>  <SCORE.heavy>
24

>  <SCORE.norm>
-0.76011

>  <RMSD>
0.868

$$$$
ligand
 OpenBabel11021811483D
libRbt.so/2013.1/901 2013/11/27
 24 26  0  0  0  0  0  0  0  0999 V2000
   -7.1216   -7.6340   15.2553 P   0  0  1  0  0  0  0  0  0  0  0  0
   -6.8591   -6.3209   15.9612 O   0  0  0  0  0  0  0  0  0  0  0  0
   -5.9060   -8.3929   14.7775 O   0  5  0  0  0  0  0  0  0  0  0  0
   -8.1311   -8.5259   15.9623 O   0  0  0  0  0  0  0  0  0  0  0  0
   -7.3091   -6.0819   13.0486 C   0  0  0  0  0  0  0  0  0  0  0  0
   -7.7791   -7.1875   13.8391 O   0  0  0  0  0  0  0  0  0  0  0  0
   -8.1299   -5.9771   11.7598 C   0  0  1  0  0  0  0  0  0  0  0  0
   -7.9912   -4.6918   11.1409 O   0  0  0  0  0  0  0  0  0  0  0  0
   -7.7663   -6.9900   10.6877 C   0  0  1  0  0  0  0  0  0  0  0  0
   -8.5766   -8.1566   10.8588 O   0  0  0  0  0  0  0  0  0  0  0  0
   -8.0990   -6.2653    9.3938 C   0  0  1  0  0  0  0  0  0  0  0  0
   -9.4999   -6.3727    9.1035 O   0  0  0  0  0  0  0  0  0  0  0  0
   -7.8522   -4.8055    9.7192 C   0  0  2  0  0  0  0  0  0  0  0  0
   -4.8104   -0.7098    9.5477 N   0  0  0  0  0  0  0  0  0  0  0  0
   -6.1255   -0.7912    9.8530 C   0  0  1  0  0  0  0  0  0  0  0  0
   -6.7986    0.3360   10.1768 N   0  0  0  0  0  0  0  0  0  0  0  0
   -6.7716   -1.9806    9.8379 N   0  0  0  0  0  0  0  0  0  0  0  0
   -6.0920   -3.1061    9.5121 C   0  0  1  0  0  0  0  0  0  0  0  0
   -4.7491   -3.0521    9.1944 C   0  0  2  0  0  0  0  0  0  0  0  0
   -4.1087   -1.8186    9.2183 C   0  0  0  0  0  0  0  0  0  0  0  0
   -2.8974   -1.7252    8.9380 O   0  0  0  0  0  0  0  0  0  0  0  0
   -4.3543   -4.3105    8.9124 N   0  0  0  0  0  0  0  0  0  0  0  0
   -5.4272   -5.1223    9.0603 C   0  0  0  0  0  0  0  0  0  0  0  0
   -6.4728   -4.3739    9.4261 N   0  0  1  0  0  0  0  0  0  0  0  0
  1  2  1  1  0  0  0
  1  3  1  0  0  0  0
  1  4  2  0  0  0  0
  1  6  1  0  0  0  0
  5  6  1  0  0  0  0
  7  5  1  1  0  0  0
  7  8  1  0  0  0  0
  7  9  1  0  0  0  0
  9 10  1  1  0  0  0
  9 11  1  0  0  0  0
 11 12  1  1  0  0  0
 11 13  1  0  0  0  0
 13  8  1  1  0  0  0
 13 24  1  0  0  0  0
 14 15  1  0  0  0  0
 14 20  1  0  0  0  0
 15 16  1  6  0  0  0
 15 17  1  0  0  0  0
 18 17  1  1  0  0  0
 18 19  1  0  0  0  0
 18 24  1  0  0  0  0
 19 20  1  6  0  0  0
 19 22  1  0  0  0  0
 20 21  2  0  0  0  0
 22 23  1  0  0  0  0
 24 23  1  1  0  0  0
M  CHG  1   3  -1
M  END
>  <CHROM.1>
41.83200340,162.37335685,178.20190864,-71.83247680,-6.72192777,-5.00651728
11.37338139,-2.02935162,-0.89202799,-1.10358006

>  <Name>
ligand

>  <RI>
0

>  <Rbt.Current_Directory>
/home/itssahil/PROJECTS/Mol_Feturizer/New_Systems/rnas/3SLQ

>  <Rbt.Executable>
rbdock ($Id: //depot/dev/client3/rdock/2013.1/src/exe/rbdock.cxx#4 $)

>  <Rbt.Library>
libRbt.so (2013.1, Build901 2013/11/27)

>  <Rbt.Parameter_File>
/export/apps/rDock/src/rDock_2013.1_src/data/scripts/dock_solv.prm

>  <Rbt.Receptor>
prm/pocket_docking_2.prm

>  <SCORE>
-18.835

>  <SCORE.INTER>
-13.4134

>  <SCORE.INTER.CONST>
1

>  <SCORE.INTER.POLAR>
0

>  <SCORE.INTER.ROT>
4

>  <SCORE.INTER.SOLV>
19.0959

>  <SCORE.INTER.VDW>
-21.5743

>  <SCORE.INTER.norm>
-0.558894

>  <SCORE.INTRA>
-5.42416

>  <SCORE.INTRA.DIHEDRAL>
-10.4992

>  <SCORE.INTRA.DIHEDRAL.0>
13.2525

>  <SCORE.INTRA.POLAR>
0

>  <SCORE.INTRA.POLAR.0>
0

>  <SCORE.INTRA.REPUL>
0

>  <SCORE.INTRA.REPUL.0>
0

>  <SCORE.INTRA.SOLV>
-0.0711888

>  <SCORE.INTRA.SOLV.lig_0>
-70.7221

>  <SCORE.INTRA.VDW>
-0.138973

>  <SCORE.INTRA.VDW.0>
-1.46337

>  <SCORE.INTRA.norm>
-0.226007

>  <SCORE.RESTR>
0.0026465

>  <SCORE.RESTR.CAVITY>
0.0026465

>  <SCORE.RESTR.norm>
0.000110271

>  <SCORE.SYSTEM>
0

>  <SCORE.SYSTEM.CONST>
0

>  <SCORE.SYSTEM.DIHEDRAL>
0

>  <SCORE.SYSTEM.SOLV>
0

>  <SCORE.SYSTEM.norm>
0

>  <SCORE.heavy>
24

>  <SCORE.norm>
-0.78479

>  <RMSD>
0.874

$$$$
ligand
 OpenBabel11021811483D
libRbt.so/2013.1/901 2013/11/27
 24 26  0  0  0  0  0  0  0  0999 V2000
   -7.2377   -7.3738   14.6760 P   0  0  1  0  0  0  0  0  0  0  0  0
   -7.1400   -6.4463   15.8684 O   0  0  0  0  0  0  0  0  0  0  0  0
   -6.8022   -8.8027   14.9007 O   0  5  0  0  0  0  0  0  0  0  0  0
   -8.5535   -7.2723   13.9191 O   0  0  0  0  0  0  0  0  0  0  0  0
   -6.1442   -5.6332   12.9186 C   0  0  0  0  0  0  0  0  0  0  0  0
   -6.0659   -6.8501   13.6811 O   0  0  0  0  0  0  0  0  0  0  0  0
   -6.8071   -5.9082   11.5656 C   0  0  1  0  0  0  0  0  0  0  0  0
   -6.8725   -4.7293   10.7532 O   0  0  0  0  0  0  0  0  0  0  0  0
   -6.1091   -6.9549   10.7143 C   0  0  1  0  0  0  0  0  0  0  0  0
   -6.6662   -8.2390   11.0100 O   0  0  0  0  0  0  0  0  0  0  0  0
   -6.4306   -6.5218    9.2933 C   0  0  1  0  0  0  0  0  0  0  0  0
   -7.7308   -6.9896    8.9073 O   0  0  0  0  0  0  0  0  0  0  0  0
   -6.5423   -5.0131    9.3879 C   0  0  2  0  0  0  0  0  0  0  0  0
   -4.2979   -0.4294    9.4825 N   0  0  0  0  0  0  0  0  0  0  0  0
   -5.5793   -0.7645    9.7568 C   0  0  1  0  0  0  0  0  0  0  0  0
   -6.4503    0.2028   10.1229 N   0  0  0  0  0  0  0  0  0  0  0  0
   -5.9970   -2.0490    9.6693 N   0  0  0  0  0  0  0  0  0  0  0  0
   -5.1199   -3.0134    9.3014 C   0  0  1  0  0  0  0  0  0  0  0  0
   -3.8061   -2.6995    9.0139 C   0  0  2  0  0  0  0  0  0  0  0  0
   -3.4021   -1.3732    9.1122 C   0  0  0  0  0  0  0  0  0  0  0  0
   -2.2252   -1.0463    8.8613 O   0  0  0  0  0  0  0  0  0  0  0  0
   -3.1852   -3.8485    8.6774 N   0  0  0  0  0  0  0  0  0  0  0  0
   -4.0933   -4.8485    8.7629 C   0  0  0  0  0  0  0  0  0  0  0  0
   -5.2618   -4.3230    9.1445 N   0  0  1  0  0  0  0  0  0  0  0  0
  1  2  1  1  0  0  0
  1  3  1  0  0  0  0
  1  4  2  0  0  0  0
  1  6  1  0  0  0  0
  5  6  1  0  0  0  0
  7  5  1  1  0  0  0
  7  8  1  0  0  0  0
  7  9  1  0  0  0  0
  9 10  1  1  0  0  0
  9 11  1  0  0  0  0
 11 12  1  1  0  0  0
 11 13  1  0  0  0  0
 13  8  1  1  0  0  0
 13 24  1  0  0  0  0
 14 15  1  0  0  0  0
 14 20  1  0  0  0  0
 15 16  1  6  0  0  0
 15 17  1  0  0  0  0
 18 17  1  1  0  0  0
 18 19  1  0  0  0  0
 18 24  1  0  0  0  0
 19 20  1  6  0  0  0
 19 22  1  0  0  0  0
 20 21  2  0  0  0  0
 22 23  1  0  0  0  0
 24 23  1  1  0  0  0
M  CHG  1   3  -1
M  END
>  <CHROM.1>
-73.38183480,-178.32496044,-88.61256889,-58.53429438,-5.90549225,-4.87072216
11.11315917,-3.11803877,-1.20529013,-2.24137786

>  <Name>
ligand

>  <RI>
0

>  <Rbt.Current_Directory>
/home/itssahil/PROJECTS/Mol_Feturizer/New_Systems/rnas/3SLQ

>  <Rbt.Executable>
rbdock ($Id: //depot/dev/client3/rdock/2013.1/src/exe/rbdock.cxx#4 $)

>  <Rbt.Library>
libRbt.so (2013.1, Build901 2013/11/27)

>  <Rbt.Parameter_File>
/export/apps/rDock/src/rDock_2013.1_src/data/scripts/dock_solv.prm

>  <Rbt.Receptor>
prm/pocket_docking_3.prm

>  <SCORE>
-20.9919

>  <SCORE.INTER>
-17.4381

>  <SCORE.INTER.CONST>
1

>  <SCORE.INTER.POLAR>
0

>  <SCORE.INTER.ROT>
4

>  <SCORE.INTER.SOLV>
18.1861

>  <SCORE.INTER.VDW>
-23.9541

>  <SCORE.INTER.norm>
-0.726587

>  <SCORE.INTRA>
-3.55376

>  <SCORE.INTRA.DIHEDRAL>
-8.42155

>  <SCORE.INTRA.DIHEDRAL.0>
13.2525

>  <SCORE.INTRA.POLAR>
0

>  <SCORE.INTRA.POLAR.0>
0

>  <SCORE.INTRA.REPUL>
0

>  <SCORE.INTRA.REPUL.0>
0

>  <SCORE.INTRA.SOLV>
2.66366

>  <SCORE.INTRA.SOLV.lig_0>
-70.7221

>  <SCORE.INTRA.VDW>
-0.674809

>  <SCORE.INTRA.VDW.0>
-1.46337

>  <SCORE.INTRA.norm>
-0.148073

>  <SCORE.RESTR>
0

>  <SCORE.RESTR.CAVITY>
0

>  <SCORE.RESTR.norm>
0

>  <SCORE.SYSTEM>
0

>  <SCORE.SYSTEM.CONST>
0

>  <SCORE.SYSTEM.DIHEDRAL>
0

>  <SCORE.SYSTEM.SOLV>
0

>  <SCORE.SYSTEM.norm>
0

>  <SCORE.heavy>
24

>  <SCORE.norm>
-0.874661

>  <RMSD>
0.918

$$$$
ligand
 OpenBabel11021811483D
libRbt.so/2013.1/901 2013/11/27
 24 26  0  0  0  0  0  0  0  0999 V2000
   -6.8803   -7.6093   14.8272 P   0  0  1  0  0  0  0  0  0  0  0  0
   -8.0056   -6.7810   15.4096 O   0  0  0  0  0  0  0  0  0  0  0  0
   -5.4826   -7.0679   15.0154 O   0  5  0  0  0  0  0  0  0  0  0  0
   -6.9816   -9.0955   15.1363 O   0  0  0  0  0  0  0  0  0  0  0  0
   -7.0109   -6.1701   12.5413 C   0  0  0  0  0  0  0  0  0  0  0  0
   -7.0618   -7.4355   13.2229 O   0  0  0  0  0  0  0  0  0  0  0  0
   -7.4612   -6.3430   11.0877 C   0  0  1  0  0  0  0  0  0  0  0  0
   -7.4880   -5.0945   10.3845 O   0  0  0  0  0  0  0  0  0  0  0  0
   -6.5870   -7.2645   10.2544 C   0  0  1  0  0  0  0  0  0  0  0  0
   -7.0973   -8.5977   10.3493 O   0  0  0  0  0  0  0  0  0  0  0  0
   -6.7353   -6.7100    8.8471 C   0  0  1  0  0  0  0  0  0  0  0  0
   -7.9373   -7.2017    8.2372 O   0  0  0  0  0  0  0  0  0  0  0  0
   -6.9545   -5.2254    9.0609 C   0  0  2  0  0  0  0  0  0  0  0  0
   -5.0430   -0.5618    9.8695 N   0  0  0  0  0  0  0  0  0  0  0  0
   -6.3264   -0.9855    9.9227 C   0  0  1  0  0  0  0  0  0  0  0  0
   -7.3005   -0.1015   10.2360 N   0  0  0  0  0  0  0  0  0  0  0  0
   -6.6447   -2.2760    9.6671 N   0  0  0  0  0  0  0  0  0  0  0  0
   -5.6645   -3.1566    9.3532 C   0  0  1  0  0  0  0  0  0  0  0  0
   -4.3458   -2.7511    9.2901 C   0  0  2  0  0  0  0  0  0  0  0  0
   -4.0452   -1.4207    9.5577 C   0  0  0  0  0  0  0  0  0  0  0  0
   -2.8679   -1.0128    9.5116 O   0  0  0  0  0  0  0  0  0  0  0  0
   -3.6114   -3.8312    8.9538 N   0  0  0  0  0  0  0  0  0  0  0  0
   -4.4569   -4.8796    8.8202 C   0  0  0  0  0  0  0  0  0  0  0  0
   -5.6989   -4.4516    9.0679 N   0  0  1  0  0  0  0  0  0  0  0  0
  1  2  1  1  0  0  0
  1  3  1  0  0  0  0
  1  4  2  0  0  0  0
  1  6  1  0  0  0  0
  5  6  1  0  0  0  0
  7  5  1  1  0  0  0
  7  8  1  0  0  0  0
  7  9  1  0  0  0  0
  9 10  1  6  0  0  0
  9 11  1  0  0  0  0
 11 12  1  1  0  0  0
 11 13  1  0  0  0  0
 13  8  1  1  0  0  0
 13 24  1  0  0  0  0
 14 15  1  0  0  0  0
 14 20  1  0  0  0  0
 15 16  1  6  0  0  0
 15 17  1  0  0  0  0
 18 17  1  1  0  0  0
 18 19  1  0  0  0  0
 18 24  1  0  0  0  0
 19 20  1  6  0  0  0
 19 22  1  0  0  0  0
 20 21  2  0  0  0  0
 22 23  1  0  0  0  0
 24 23  1  1  0  0  0
M  CHG  1   3  -1
M  END
>  <CHROM.1>
59.74894347,177.22161790,-170.12784125,-58.97446861,-6.23380470,-5.08780836
11.08138319,-2.47671669,-1.23627097,-1.54359171

>  <Name>
ligand

>  <RI>
0

>  <Rbt.Current_Directory>
/home/itssahil/PROJECTS/Mol_Feturizer/New_Systems/rnas/3SLQ

>  <Rbt.Executable>
rbdock ($Id: //depot/dev/client3/rdock/2013.1/src/exe/rbdock.cxx#4 $)

>  <Rbt.Library>
libRbt.so (2013.1, Build901 2013/11/27)

>  <Rbt.Parameter_File>
/export/apps/rDock/src/rDock_2013.1_src/data/scripts/dock_solv.prm

>  <Rbt.Receptor>
prm/pocket_docking_2.prm

>  <SCORE>
-19.0326

>  <SCORE.INTER>
-13.2063

>  <SCORE.INTER.CONST>
1

>  <SCORE.INTER.POLAR>
0

>  <SCORE.INTER.ROT>
4

>  <SCORE.INTER.SOLV>
22.1479

>  <SCORE.INTER.VDW>
-22.4535

>  <SCORE.INTER.norm>
-0.550262

>  <SCORE.INTRA>
-5.86439

>  <SCORE.INTRA.DIHEDRAL>
-11.5517

>  <SCORE.INTRA.DIHEDRAL.0>
13.2525

>  <SCORE.INTRA.POLAR>
0

>  <SCORE.INTRA.POLAR.0>
0

>  <SCORE.INTRA.REPUL>
0

>  <SCORE.INTRA.REPUL.0>
0

>  <SCORE.INTRA.SOLV>
0.0640795

>  <SCORE.INTRA.SOLV.lig_0>
-70.7221

>  <SCORE.INTRA.VDW>
-0.120588

>  <SCORE.INTRA.VDW.0>
-1.46337

>  <SCORE.INTRA.norm>
-0.24435

>  <SCORE.RESTR>
0.038116

>  <SCORE.RESTR.CAVITY>
0.038116

>  <SCORE.RESTR.norm>
0.00158817

>  <SCORE.SYSTEM>
0

>  <SCORE.SYSTEM.CONST>
0

>  <SCORE.SYSTEM.DIHEDRAL>
0

>  <SCORE.SYSTEM.SOLV>
0

>  <SCORE.SYSTEM.norm>
0

>  <SCORE.heavy>
24

>  <SCORE.norm>
-0.793024

>  <RMSD>
0.920

$$$$
ligand
 OpenBabel11021811483D
libRbt.so/2013.1/901 2013/11/27
 24 26  0  0  0  0  0  0  0  0999 V2000
   -7.2238   -7.3574   14.6757 P   0  0  1  0  0  0  0  0  0  0  0  0
   -7.1104   -6.5120   15.9263 O   0  0  0  0  0  0  0  0  0  0  0  0
   -6.8006   -8.8019   14.8024 O   0  5  0  0  0  0  0  0  0  0  0  0
   -8.5430   -7.1940   13.9358 O   0  0  0  0  0  0  0  0  0  0  0  0
   -6.1619   -5.5583   12.9584 C   0  0  0  0  0  0  0  0  0  0  0  0
   -6.0530   -6.7795   13.7102 O   0  0  0  0  0  0  0  0  0  0  0  0
   -6.8009   -5.8411   11.5955 C   0  0  1  0  0  0  0  0  0  0  0  0
   -6.8630   -4.6643   10.7799 O   0  0  0  0  0  0  0  0  0  0  0  0
   -6.0809   -6.8836   10.7573 C   0  0  1  0  0  0  0  0  0  0  0  0
   -6.6321   -8.1717   11.0466 O   0  0  0  0  0  0  0  0  0  0  0  0
   -6.3833   -6.4557    9.3306 C   0  0  1  0  0  0  0  0  0  0  0  0
   -7.6733   -6.9348    8.9249 O   0  0  0  0  0  0  0  0  0  0  0  0
   -6.5088   -4.9477    9.4206 C   0  0  2  0  0  0  0  0  0  0  0  0
   -4.3033   -0.3459    9.5442 N   0  0  0  0  0  0  0  0  0  0  0  0
   -5.5860   -0.6911    9.7990 C   0  0  1  0  0  0  0  0  0  0  0  0
   -6.4704    0.2696   10.1502 N   0  0  0  0  0  0  0  0  0  0  0  0
   -5.9920   -1.9790    9.7066 N   0  0  0  0  0  0  0  0  0  0  0  0
   -5.1014   -2.9368    9.3537 C   0  0  1  0  0  0  0  0  0  0  0  0
   -3.7859   -2.6125    9.0863 C   0  0  2  0  0  0  0  0  0  0  0  0
   -3.3942   -1.2828    9.1891 C   0  0  0  0  0  0  0  0  0  0  0  0
   -2.2163   -0.9468    8.9562 O   0  0  0  0  0  0  0  0  0  0  0  0
   -3.1506   -3.7568    8.7609 N   0  0  0  0  0  0  0  0  0  0  0  0
   -4.0518   -4.7640    8.8336 C   0  0  0  0  0  0  0  0  0  0  0  0
   -5.2303   -4.2476    9.1963 N   0  0  1  0  0  0  0  0  0  0  0  0
  1  2  1  1  0  0  0
  1  3  1  0  0  0  0
  1  4  2  0  0  0  0
  1  6  1  0  0  0  0
  5  6  1  0  0  0  0
  7  5  1  1  0  0  0
  7  8  1  0  0  0  0
  7  9  1  0  0  0  0
  9 10  1  1  0  0  0
  9 11  1  0  0  0  0
 11 12  1  1  0  0  0
 11 13  1  0  0  0  0
 13  8  1  1  0  0  0
 13 24  1  0  0  0  0
 14 15  1  0  0  0  0
 14 20  1  0  0  0  0
 15 16  1  6  0  0  0
 15 17  1  0  0  0  0
 18 17  1  1  0  0  0
 18 19  1  0  0  0  0
 18 24  1  0  0  0  0
 19 20  1  6  0  0  0
 19 22  1  0  0  0  0
 20 21  2  0  0  0  0
 22 23  1  0  0  0  0
 24 23  1  1  0  0  0
M  CHG  1   3  -1
M  END
>  <CHROM.1>
-77.83735676,-176.78748635,-87.99184534,-58.49486431,-5.88878639,-4.81055239
11.14905836,3.13306418,-1.20689695,-2.26411278

>  <Name>
ligand

>  <RI>
0

>  <Rbt.Current_Directory>
/home/itssahil/PROJECTS/Mol_Feturizer/New_Systems/rnas/3SLQ

>  <Rbt.Executable>
rbdock ($Id: //depot/dev/client3/rdock/2013.1/src/exe/rbdock.cxx#4 $)

>  <Rbt.Library>
libRbt.so (2013.1, Build901 2013/11/27)

>  <Rbt.Parameter_File>
/export/apps/rDock/src/rDock_2013.1_src/data/scripts/dock_solv.prm

>  <Rbt.Receptor>
prm/pocket_docking_3.prm

>  <SCORE>
-21.0056

>  <SCORE.INTER>
-17.6199

>  <SCORE.INTER.CONST>
1

>  <SCORE.INTER.POLAR>
0

>  <SCORE.INTER.ROT>
4

>  <SCORE.INTER.SOLV>
18.5312

>  <SCORE.INTER.VDW>
-24.1903

>  <SCORE.INTER.norm>
-0.734162

>  <SCORE.INTRA>
-3.38568

>  <SCORE.INTRA.DIHEDRAL>
-8.3083

>  <SCORE.INTRA.DIHEDRAL.0>
13.2525

>  <SCORE.INTRA.POLAR>
0

>  <SCORE.INTRA.POLAR.0>
0

>  <SCORE.INTRA.REPUL>
0

>  <SCORE.INTRA.REPUL.0>
0

>  <SCORE.INTRA.SOLV>
2.87499

>  <SCORE.INTRA.SOLV.lig_0>
-70.7221

>  <SCORE.INTRA.VDW>
-0.669025

>  <SCORE.INTRA.VDW.0>
-1.46337

>  <SCORE.INTRA.norm>
-0.14107

>  <SCORE.RESTR>
0

>  <SCORE.RESTR.CAVITY>
0

>  <SCORE.RESTR.norm>
0

>  <SCORE.SYSTEM>
0

>  <SCORE.SYSTEM.CONST>
0

>  <SCORE.SYSTEM.DIHEDRAL>
0

>  <SCORE.SYSTEM.SOLV>
0

>  <SCORE.SYSTEM.norm>
0

>  <SCORE.heavy>
24

>  <SCORE.norm>
-0.875232

>  <RMSD>
0.926

$$$$
ligand
 OpenBabel11021811483D
libRbt.so/2013.1/901 2013/11/27
 24 26  0  0  0  0  0  0  0  0999 V2000
   -7.5171   -7.5341   14.6727 P   0  0  1  0  0  0  0  0  0  0  0  0
   -6.2474   -8.3570   14.7191 O   0  0  0  0  0  0  0  0  0  0  0  0
   -8.5058   -7.8876   13.5867 O   0  5  0  0  0  0  0  0  0  0  0  0
   -8.1784   -7.3394   16.0290 O   0  0  0  0  0  0  0  0  0  0  0  0
   -6.1697   -5.8705   13.0203 C   0  0  0  0  0  0  0  0  0  0  0  0
   -7.0148   -6.0754   14.1657 O   0  0  0  0  0  0  0  0  0  0  0  0
   -6.9895   -6.0192   11.7351 C   0  0  1  0  0  0  0  0  0  0  0  0
   -7.1576   -4.7659   11.0605 O   0  0  0  0  0  0  0  0  0  0  0  0
   -6.3941   -6.9632   10.7044 C   0  0  1  0  0  0  0  0  0  0  0  0
   -6.9057   -8.2797   10.9322 O   0  0  0  0  0  0  0  0  0  0  0  0
   -6.8864   -6.3949    9.3834 C   0  0  1  0  0  0  0  0  0  0  0  0
   -8.2214   -6.8433    9.1097 O   0  0  0  0  0  0  0  0  0  0  0  0
   -6.9928   -4.9054    9.6439 C   0  0  2  0  0  0  0  0  0  0  0  0
   -4.9095   -0.2458    9.5809 N   0  0  0  0  0  0  0  0  0  0  0  0
   -6.1596   -0.6234    9.9330 C   0  0  1  0  0  0  0  0  0  0  0  0
   -7.0409    0.3157   10.3454 N   0  0  0  0  0  0  0  0  0  0  0  0
   -6.5364   -1.9222    9.8770 N   0  0  0  0  0  0  0  0  0  0  0  0
   -5.6493   -2.8581    9.4625 C   0  0  1  0  0  0  0  0  0  0  0  0
   -4.3668   -2.5007    9.0955 C   0  0  2  0  0  0  0  0  0  0  0  0
   -4.0046   -1.1604    9.1627 C   0  0  0  0  0  0  0  0  0  0  0  0
   -2.8570   -0.7947    8.8404 O   0  0  0  0  0  0  0  0  0  0  0  0
   -3.7270   -3.6298    8.7284 N   0  0  0  0  0  0  0  0  0  0  0  0
   -4.5927   -4.6601    8.8730 C   0  0  0  0  0  0  0  0  0  0  0  0
   -5.7541   -4.1730    9.3210 N   0  0  1  0  0  0  0  0  0  0  0  0
  1  2  1  1  0  0  0
  1  3  1  0  0  0  0
  1  4  2  0  0  0  0
  1  6  1  0  0  0  0
  5  6  1  0  0  0  0
  7  5  1  1  0  0  0
  7  8  1  0  0  0  0
  7  9  1  0  0  0  0
  9 10  1  1  0  0  0
  9 11  1  0  0  0  0
 11 12  1  1  0  0  0
 11 13  1  0  0  0  0
 13  8  1  1  0  0  0
 13 24  1  0  0  0  0
 14 15  1  0  0  0  0
 14 20  1  0  0  0  0
 15 16  1  6  0  0  0
 15 17  1  0  0  0  0
 18 17  1  1  0  0  0
 18 19  1  0  0  0  0
 18 24  1  0  0  0  0
 19 20  1  6  0  0  0
 19 22  1  0  0  0  0
 20 21  2  0  0  0  0
 22 23  1  0  0  0  0
 24 23  1  1  0  0  0
M  CHG  1   3  -1
M  END
>  <CHROM.1>
49.41047557,110.36954820,76.61350128,-65.75423020,-6.32101194,-4.82683873
11.20926782,3.02055978,-1.24322053,-2.36029191

>  <Name>
ligand

>  <RI>
0

>  <Rbt.Current_Directory>
/home/itssahil/PROJECTS/Mol_Feturizer/New_Systems/rnas/3SLQ

>  <Rbt.Executable>
rbdock ($Id: //depot/dev/client3/rdock/2013.1/src/exe/rbdock.cxx#4 $)

>  <Rbt.Library>
libRbt.so (2013.1, Build901 2013/11/27)

>  <Rbt.Parameter_File>
/export/apps/rDock/src/rDock_2013.1_src/data/scripts/dock_solv.prm

>  <Rbt.Receptor>
prm/pocket_docking_2.prm

>  <SCORE>
-16.3269

>  <SCORE.INTER>
-14.1495

>  <SCORE.INTER.CONST>
1

>  <SCORE.INTER.POLAR>
0

>  <SCORE.INTER.ROT>
4

>  <SCORE.INTER.SOLV>
21.4361

>  <SCORE.INTER.VDW>
-22.845

>  <SCORE.INTER.norm>
-0.589562

>  <SCORE.INTRA>
-2.18176

>  <SCORE.INTRA.DIHEDRAL>
-5.65262

>  <SCORE.INTRA.DIHEDRAL.0>
13.2525

>  <SCORE.INTRA.POLAR>
0

>  <SCORE.INTRA.POLAR.0>
0

>  <SCORE.INTRA.REPUL>
0

>  <SCORE.INTRA.REPUL.0>
0

>  <SCORE.INTRA.SOLV>
2.62609

>  <SCORE.INTRA.SOLV.lig_0>
-70.7221

>  <SCORE.INTRA.VDW>
-0.668494

>  <SCORE.INTRA.VDW.0>
-1.46337

>  <SCORE.INTRA.norm>
-0.0909066

>  <SCORE.RESTR>
0.00430298

>  <SCORE.RESTR.CAVITY>
0.00430298

>  <SCORE.RESTR.norm>
0.000179291

>  <SCORE.SYSTEM>
0

>  <SCORE.SYSTEM.CONST>
0

>  <SCORE.SYSTEM.DIHEDRAL>
0

>  <SCORE.SYSTEM.SOLV>
0

>  <SCORE.SYSTEM.norm>
0

>  <SCORE.heavy>
24

>  <SCORE.norm>
-0.680289

>  <RMSD>
0.931

$$$$
ligand
 OpenBabel11021811483D
libRbt.so/2013.1/901 2013/11/27
 24 26  0  0  0  0  0  0  0  0999 V2000
   -7.1833   -7.5658   14.4876 P   0  0  1  0  0  0  0  0  0  0  0  0
   -7.3722   -6.6596   15.6853 O   0  0  0  0  0  0  0  0  0  0  0  0
   -6.5866   -8.9259   14.7635 O   0  5  0  0  0  0  0  0  0  0  0  0
   -8.3901   -7.6298   13.5634 O   0  0  0  0  0  0  0  0  0  0  0  0
   -6.1083   -5.6263   12.9396 C   0  0  0  0  0  0  0  0  0  0  0  0
   -5.9758   -6.8649   13.6583 O   0  0  0  0  0  0  0  0  0  0  0  0
   -6.7751   -5.8794   11.5842 C   0  0  1  0  0  0  0  0  0  0  0  0
   -6.8424   -4.6876   10.7910 O   0  0  0  0  0  0  0  0  0  0  0  0
   -6.0796   -6.9125   10.7143 C   0  0  1  0  0  0  0  0  0  0  0  0
   -6.6363   -8.2011   10.9909 O   0  0  0  0  0  0  0  0  0  0  0  0
   -6.4049   -6.4566    9.3013 C   0  0  1  0  0  0  0  0  0  0  0  0
   -7.7063   -6.9179    8.9115 O   0  0  0  0  0  0  0  0  0  0  0  0
   -6.5160   -4.9496    9.4204 C   0  0  2  0  0  0  0  0  0  0  0  0
   -4.2818   -0.3614    9.5394 N   0  0  0  0  0  0  0  0  0  0  0  0
   -5.5636   -0.7002    9.8074 C   0  0  1  0  0  0  0  0  0  0  0  0
   -6.4382    0.2641   10.1731 N   0  0  0  0  0  0  0  0  0  0  0  0
   -5.9782   -1.9853    9.7139 N   0  0  0  0  0  0  0  0  0  0  0  0
   -5.0975   -2.9466    9.3464 C   0  0  1  0  0  0  0  0  0  0  0  0
   -3.7832   -2.6289    9.0653 C   0  0  2  0  0  0  0  0  0  0  0  0
   -3.3825   -1.3021    9.1697 C   0  0  0  0  0  0  0  0  0  0  0  0
   -2.2053   -0.9719    8.9248 O   0  0  0  0  0  0  0  0  0  0  0  0
   -3.1585   -3.7755    8.7275 N   0  0  0  0  0  0  0  0  0  0  0  0
   -4.0648   -4.7776    8.8060 C   0  0  0  0  0  0  0  0  0  0  0  0
   -5.2360   -4.2560    9.1846 N   0  0  1  0  0  0  0  0  0  0  0  0
  1  2  1  1  0  0  0
  1  3  1  0  0  0  0
  1  4  2  0  0  0  0
  1  6  1  0  0  0  0
  5  6  1  0  0  0  0
  7  5  1  1  0  0  0
  7  8  1  0  0  0  0
  7  9  1  0  0  0  0
  9 10  1  1  0  0  0
  9 11  1  0  0  0  0
 11 12  1  1  0  0  0
 11 13  1  0  0  0  0
 13  8  1  1  0  0  0
 13 24  1  0  0  0  0
 14 15  1  0  0  0  0
 14 20  1  0  0  0  0
 15 16  1  6  0  0  0
 15 17  1  0  0  0  0
 18 17  1  1  0  0  0
 18 19  1  0  0  0  0
 18 24  1  0  0  0  0
 19 20  1  6  0  0  0
 19 22  1  0  0  0  0
 20 21  2  0  0  0  0
 22 23  1  0  0  0  0
 24 23  1  1  0  0  0
M  CHG  1   3  -1
M  END
>  <CHROM.1>
-70.80410765,-175.84478021,-80.18731998,-59.37214742,-5.87217573,-4.87687634
11.09005158,3.11073844,-1.21180150,-2.25537466

>  <Name>
ligand

>  <RI>
0

>  <Rbt.Current_Directory>
/home/itssahil/PROJECTS/Mol_Feturizer/New_Systems/rnas/3SLQ

>  <Rbt.Executable>
rbdock ($Id: //depot/dev/client3/rdock/2013.1/src/exe/rbdock.cxx#4 $)

>  <Rbt.Library>
libRbt.so (2013.1, Build901 2013/11/27)

>  <Rbt.Parameter_File>
/export/apps/rDock/src/rDock_2013.1_src/data/scripts/dock_solv.prm

>  <Rbt.Receptor>
prm/pocket_docking_3.prm

>  <SCORE>
-21.0836

>  <SCORE.INTER>
-16.9923

>  <SCORE.INTER.CONST>
1

>  <SCORE.INTER.POLAR>
0

>  <SCORE.INTER.ROT>
4

>  <SCORE.INTER.SOLV>
17.6399

>  <SCORE.INTER.VDW>
-23.4748

>  <SCORE.INTER.norm>
-0.708013

>  <SCORE.INTRA>
-4.09131

>  <SCORE.INTRA.DIHEDRAL>
-9.97398

>  <SCORE.INTRA.DIHEDRAL.0>
13.2525

>  <SCORE.INTRA.POLAR>
0

>  <SCORE.INTRA.POLAR.0>
0

>  <SCORE.INTRA.REPUL>
0

>  <SCORE.INTRA.REPUL.0>
0

>  <SCORE.INTRA.SOLV>
3.37107

>  <SCORE.INTRA.SOLV.lig_0>
-70.7221

>  <SCORE.INTRA.VDW>
-0.789854

>  <SCORE.INTRA.VDW.0>
-1.46337

>  <SCORE.INTRA.norm>
-0.170471

>  <SCORE.RESTR>
0

>  <SCORE.RESTR.CAVITY>
0

>  <SCORE.RESTR.norm>
0

>  <SCORE.SYSTEM>
0

>  <SCORE.SYSTEM.CONST>
0

>  <SCORE.SYSTEM.DIHEDRAL>
0

>  <SCORE.SYSTEM.SOLV>
0

>  <SCORE.SYSTEM.norm>
0

>  <SCORE.heavy>
24

>  <SCORE.norm>
-0.878484

>  <RMSD>
0.938

$$$$
ligand
 OpenBabel11021811483D
libRbt.so/2013.1/901 2013/11/27
 24 26  0  0  0  0  0  0  0  0999 V2000
   -7.1957   -7.5003   14.7730 P   0  0  1  0  0  0  0  0  0  0  0  0
   -7.0924   -6.3123   15.7055 O   0  0  0  0  0  0  0  0  0  0  0  0
   -5.8976   -8.1817   14.4091 O   0  5  0  0  0  0  0  0  0  0  0  0
   -8.2928   -8.4862   15.1458 O   0  0  0  0  0  0  0  0  0  0  0  0
   -7.1788   -7.3522   12.0728 C   0  0  0  0  0  0  0  0  0  0  0  0
   -7.6039   -6.8389   13.3472 O   0  0  0  0  0  0  0  0  0  0  0  0
   -8.0413   -6.7551   10.9569 C   0  0  1  0  0  0  0  0  0  0  0  0
   -7.8832   -5.3338   10.8616 O   0  0  0  0  0  0  0  0  0  0  0  0
   -7.7492   -7.2944    9.5670 C   0  0  1  0  0  0  0  0  0  0  0  0
   -8.5904   -8.4256    9.3231 O   0  0  0  0  0  0  0  0  0  0  0  0
   -8.1043   -6.1295    8.6576 C   0  0  1  0  0  0  0  0  0  0  0  0
   -9.5174   -6.0962    8.4120 O   0  0  0  0  0  0  0  0  0  0  0  0
   -7.7989   -4.9048    9.4970 C   0  0  2  0  0  0  0  0  0  0  0  0
   -4.9013   -0.7072    9.6985 N   0  0  0  0  0  0  0  0  0  0  0  0
   -6.2320   -0.8431    9.8988 C   0  0  1  0  0  0  0  0  0  0  0  0
   -6.9676    0.2487   10.2076 N   0  0  0  0  0  0  0  0  0  0  0  0
   -6.8321   -2.0518    9.7938 N   0  0  0  0  0  0  0  0  0  0  0  0
   -6.0899   -3.1417    9.4835 C   0  0  1  0  0  0  0  0  0  0  0  0
   -4.7296   -3.0317    9.2721 C   0  0  2  0  0  0  0  0  0  0  0  0
   -4.1375   -1.7794    9.3868 C   0  0  0  0  0  0  0  0  0  0  0  0
   -2.9125   -1.6358    9.2039 O   0  0  0  0  0  0  0  0  0  0  0  0
   -4.2699   -4.2653    8.9790 N   0  0  0  0  0  0  0  0  0  0  0  0
   -5.3211   -5.1170    9.0164 C   0  0  0  0  0  0  0  0  0  0  0  0
   -6.4175   -4.4174    9.3257 N   0  0  1  0  0  0  0  0  0  0  0  0
  1  2  1  1  0  0  0
  1  3  1  0  0  0  0
  1  4  2  0  0  0  0
  1  6  1  0  0  0  0
  5  6  1  0  0  0  0
  7  5  1  1  0  0  0
  7  8  1  0  0  0  0
  7  9  1  0  0  0  0
  9 10  1  6  0  0  0
  9 11  1  0  0  0  0
 11 12  1  1  0  0  0
 11 13  1  0  0  0  0
 13  8  1  1  0  0  0
 13 24  1  0  0  0  0
 14 15  1  0  0  0  0
 14 20  1  0  0  0  0
 15 16  1  6  0  0  0
 15 17  1  0  0  0  0
 18 17  1  1  0  0  0
 18 19  1  0  0  0  0
 18 24  1  0  0  0  0
 19 20  1  6  0  0  0
 19 22  1  0  0  0  0
 20 21  2  0  0  0  0
 22 23  1  0  0  0  0
 24 23  1  1  0  0  0
M  CHG  1   3  -1
M  END
>  <CHROM.1>
146.60956609,63.50934283,164.07393072,-93.34206493,-6.73175597,-5.08736799
11.01065941,-2.13367966,-0.98535639,-1.14294549

>  <Name>
ligand

>  <RI>
0

>  <Rbt.Current_Directory>
/home/itssahil/PROJECTS/Mol_Feturizer/New_Systems/rnas/3SLQ

>  <Rbt.Executable>
rbdock ($Id: //depot/dev/client3/rdock/2013.1/src/exe/rbdock.cxx#4 $)

>  <Rbt.Library>
libRbt.so (2013.1, Build901 2013/11/27)

>  <Rbt.Parameter_File>
/export/apps/rDock/src/rDock_2013.1_src/data/scripts/dock_solv.prm

>  <Rbt.Receptor>
prm/pocket_docking_2.prm

>  <SCORE>
-15.8903

>  <SCORE.INTER>
-11.6466

>  <SCORE.INTER.CONST>
1

>  <SCORE.INTER.POLAR>
0

>  <SCORE.INTER.ROT>
4

>  <SCORE.INTER.SOLV>
18.4823

>  <SCORE.INTER.VDW>
-20.1918

>  <SCORE.INTER.norm>
-0.485273

>  <SCORE.INTRA>
-4.24616

>  <SCORE.INTRA.DIHEDRAL>
-9.43987

>  <SCORE.INTRA.DIHEDRAL.0>
13.2525

>  <SCORE.INTRA.POLAR>
0

>  <SCORE.INTRA.POLAR.0>
0

>  <SCORE.INTRA.REPUL>
0

>  <SCORE.INTRA.REPUL.0>
0

>  <SCORE.INTRA.SOLV>
0.433833

>  <SCORE.INTRA.SOLV.lig_0>
-70.7221

>  <SCORE.INTRA.VDW>
0.256854

>  <SCORE.INTRA.VDW.0>
-1.46337

>  <SCORE.INTRA.norm>
-0.176923

>  <SCORE.RESTR>
0.00240501

>  <SCORE.RESTR.CAVITY>
0.00240501

>  <SCORE.RESTR.norm>
0.000100209

>  <SCORE.SYSTEM>
0

>  <SCORE.SYSTEM.CONST>
0

>  <SCORE.SYSTEM.DIHEDRAL>
0

>  <SCORE.SYSTEM.SOLV>
0

>  <SCORE.SYSTEM.norm>
0

>  <SCORE.heavy>
24

>  <SCORE.norm>
-0.662097

>  <RMSD>
0.944

$$$$
ligand
 OpenBabel11021811483D
libRbt.so/2013.1/901 2013/11/27
 24 26  0  0  0  0  0  0  0  0999 V2000
   -6.9514   -7.3226   14.5911 P   0  0  1  0  0  0  0  0  0  0  0  0
   -8.2241   -6.9406   13.8659 O   0  0  0  0  0  0  0  0  0  0  0  0
   -6.7217   -6.6671   15.9325 O   0  5  0  0  0  0  0  0  0  0  0  0
   -6.6770   -8.8189   14.6132 O   0  0  0  0  0  0  0  0  0  0  0  0
   -5.4531   -7.0154   12.3608 C   0  0  0  0  0  0  0  0  0  0  0  0
   -5.7790   -6.6289   13.7072 O   0  0  0  0  0  0  0  0  0  0  0  0
   -6.5958   -6.6293   11.4170 C   0  0  1  0  0  0  0  0  0  0  0  0
   -6.7175   -5.2080   11.2786 O   0  0  0  0  0  0  0  0  0  0  0  0
   -6.4656   -7.1695   10.0032 C   0  0  1  0  0  0  0  0  0  0  0  0
   -7.1179   -8.4408    9.9313 O   0  0  0  0  0  0  0  0  0  0  0  0
   -7.1835   -6.1266    9.1623 C   0  0  1  0  0  0  0  0  0  0  0  0
   -8.6000   -6.3534    9.1818 O   0  0  0  0  0  0  0  0  0  0  0  0
   -6.9590   -4.8314    9.9172 C   0  0  2  0  0  0  0  0  0  0  0  0
   -4.8919   -0.1821    9.5084 N   0  0  0  0  0  0  0  0  0  0  0  0
   -6.1189   -0.5411    9.9500 C   0  0  1  0  0  0  0  0  0  0  0  0
   -6.9766    0.4176   10.3667 N   0  0  0  0  0  0  0  0  0  0  0  0
   -6.4957   -1.8408    9.9789 N   0  0  0  0  0  0  0  0  0  0  0  0
   -5.6322   -2.7965    9.5596 C   0  0  1  0  0  0  0  0  0  0  0  0
   -4.3738   -2.4584    9.1022 C   0  0  2  0  0  0  0  0  0  0  0  0
   -4.0109   -1.1168    9.0834 C   0  0  0  0  0  0  0  0  0  0  0  0
   -2.8845   -0.7680    8.6780 O   0  0  0  0  0  0  0  0  0  0  0  0
   -3.7540   -3.6045    8.7538 N   0  0  0  0  0  0  0  0  0  0  0  0
   -4.6079   -4.6259    8.9980 C   0  0  0  0  0  0  0  0  0  0  0  0
   -5.7425   -4.1165    9.4882 N   0  0  1  0  0  0  0  0  0  0  0  0
  1  2  1  6  0  0  0
  1  3  1  0  0  0  0
  1  4  2  0  0  0  0
  1  6  1  0  0  0  0
  5  6  1  0  0  0  0
  7  5  1  1  0  0  0
  7  8  1  0  0  0  0
  7  9  1  0  0  0  0
  9 10  1  1  0  0  0
  9 11  1  0  0  0  0
 11 12  1  1  0  0  0
 11 13  1  0  0  0  0
 13  8  1  1  0  0  0
 13 24  1  0  0  0  0
 14 15  1  0  0  0  0
 14 20  1  0  0  0  0
 15 16  1  6  0  0  0
 15 17  1  0  0  0  0
 18 17  1  1  0  0  0
 18 19  1  0  0  0  0
 18 24  1  0  0  0  0
 19 20  1  6  0  0  0
 19 22  1  0  0  0  0
 20 21  2  0  0  0  0
 22 23  1  0  0  0  0
 24 23  1  1  0  0  0
M  CHG  1   3  -1
M  END
>  <CHROM.1>
-66.34517043,68.33706299,68.53829678,-93.85266153,-6.12939308,-4.82578725
11.09936210,-2.69012047,-1.27871770,-1.72773209

>  <Name>
ligand

>  <RI>
0

>  <Rbt.Current_Directory>
/home/itssahil/PROJECTS/Mol_Feturizer/New_Systems/rnas/3SLQ

>  <Rbt.Executable>
rbdock ($Id: //depot/dev/client3/rdock/2013.1/src/exe/rbdock.cxx#4 $)

>  <Rbt.Library>
libRbt.so (2013.1, Build901 2013/11/27)

>  <Rbt.Parameter_File>
/export/apps/rDock/src/rDock_2013.1_src/data/scripts/dock_solv.prm

>  <Rbt.Receptor>
prm/pocket_docking_2.prm

>  <SCORE>
-19.2086

>  <SCORE.INTER>
-13.3284

>  <SCORE.INTER.CONST>
1

>  <SCORE.INTER.POLAR>
0

>  <SCORE.INTER.ROT>
4

>  <SCORE.INTER.SOLV>
23.9012

>  <SCORE.INTER.VDW>
-23.1194

>  <SCORE.INTER.norm>
-0.555352

>  <SCORE.INTRA>
-5.88016

>  <SCORE.INTRA.DIHEDRAL>
-11.4067

>  <SCORE.INTRA.DIHEDRAL.0>
13.2525

>  <SCORE.INTRA.POLAR>
0

>  <SCORE.INTRA.POLAR.0>
0

>  <SCORE.INTRA.REPUL>
0

>  <SCORE.INTRA.REPUL.0>
0

>  <SCORE.INTRA.SOLV>
0.86671

>  <SCORE.INTRA.SOLV.lig_0>
-70.7221

>  <SCORE.INTRA.VDW>
-0.610159

>  <SCORE.INTRA.VDW.0>
-1.46337

>  <SCORE.INTRA.norm>
-0.245007

>  <SCORE.RESTR>
0

>  <SCORE.RESTR.CAVITY>
0

>  <SCORE.RESTR.norm>
0

>  <SCORE.SYSTEM>
0

>  <SCORE.SYSTEM.CONST>
0

>  <SCORE.SYSTEM.DIHEDRAL>
0

>  <SCORE.SYSTEM.SOLV>
0

>  <SCORE.SYSTEM.norm>
0

>  <SCORE.heavy>
24

>  <SCORE.norm>
-0.800358

>  <RMSD>
0.945

$$$$
ligand
 OpenBabel11021811483D
libRbt.so/2013.1/901 2013/11/27
 24 26  0  0  0  0  0  0  0  0999 V2000
   -7.1709   -7.5428   14.4742 P   0  0  1  0  0  0  0  0  0  0  0  0
   -7.4858   -6.6179   15.6305 O   0  0  0  0  0  0  0  0  0  0  0  0
   -6.4865   -8.8434   14.8232 O   0  5  0  0  0  0  0  0  0  0  0  0
   -8.3234   -7.7283   13.4984 O   0  0  0  0  0  0  0  0  0  0  0  0
   -6.1627   -5.5462   12.9540 C   0  0  0  0  0  0  0  0  0  0  0  0
   -5.9816   -6.7757   13.6777 O   0  0  0  0  0  0  0  0  0  0  0  0
   -6.8021   -5.8329   11.5921 C   0  0  1  0  0  0  0  0  0  0  0  0
   -6.8694   -4.6572   10.7753 O   0  0  0  0  0  0  0  0  0  0  0  0
   -6.0790   -6.8737   10.7544 C   0  0  1  0  0  0  0  0  0  0  0  0
   -6.6252   -8.1635   11.0456 O   0  0  0  0  0  0  0  0  0  0  0  0
   -6.3845   -6.4485    9.3275 C   0  0  1  0  0  0  0  0  0  0  0  0
   -7.6731   -6.9328    8.9236 O   0  0  0  0  0  0  0  0  0  0  0  0
   -6.5155   -4.9409    9.4159 C   0  0  2  0  0  0  0  0  0  0  0  0
   -4.3148   -0.3379    9.5779 N   0  0  0  0  0  0  0  0  0  0  0  0
   -5.5948   -0.6880    9.8393 C   0  0  1  0  0  0  0  0  0  0  0  0
   -6.4775    0.2671   10.2098 N   0  0  0  0  0  0  0  0  0  0  0  0
   -5.9999   -1.9752    9.7343 N   0  0  0  0  0  0  0  0  0  0  0  0
   -5.1112   -2.9273    9.3621 C   0  0  1  0  0  0  0  0  0  0  0  0
   -3.7984   -2.5980    9.0876 C   0  0  2  0  0  0  0  0  0  0  0  0
   -3.4075   -1.2692    9.2036 C   0  0  0  0  0  0  0  0  0  0  0  0
   -2.2320   -0.9286    8.9649 O   0  0  0  0  0  0  0  0  0  0  0  0
   -3.1645   -3.7373    8.7427 N   0  0  0  0  0  0  0  0  0  0  0  0
   -4.0638   -4.7466    8.8105 C   0  0  0  0  0  0  0  0  0  0  0  0
   -5.2398   -4.2363    9.1895 N   0  0  1  0  0  0  0  0  0  0  0  0
  1  2  1  1  0  0  0
  1  3  1  0  0  0  0
  1  4  2  0  0  0  0
  1  6  1  0  0  0  0
  5  6  1  0  0  0  0
  7  5  1  1  0  0  0
  7  8  1  0  0  0  0
  7  9  1  0  0  0  0
  9 10  1  1  0  0  0
  9 11  1  0  0  0  0
 11 12  1  1  0  0  0
 11 13  1  0  0  0  0
 13  8  1  1  0  0  0
 13 24  1  0  0  0  0
 14 15  1  0  0  0  0
 14 20  1  0  0  0  0
 15 16  1  6  0  0  0
 15 17  1  0  0  0  0
 18 17  1  1  0  0  0
 18 19  1  0  0  0  0
 18 24  1  0  0  0  0
 19 20  1  6  0  0  0
 19 22  1  0  0  0  0
 20 21  2  0  0  0  0
 22 23  1  0  0  0  0
 24 23  1  1  0  0  0
M  CHG  1   3  -1
M  END
>  <CHROM.1>
-68.35011278,-173.66693034,-79.07068325,-57.60022801,-5.87866581,-4.85044974
11.10252087,3.08328095,-1.21358809,-2.28100980

>  <Name>
ligand

>  <RI>
0

>  <Rbt.Current_Directory>
/home/itssahil/PROJECTS/Mol_Feturizer/New_Systems/rnas/3SLQ

>  <Rbt.Executable>
rbdock ($Id: //depot/dev/client3/rdock/2013.1/src/exe/rbdock.cxx#4 $)

>  <Rbt.Library>
libRbt.so (2013.1, Build901 2013/11/27)

>  <Rbt.Parameter_File>
/export/apps/rDock/src/rDock_2013.1_src/data/scripts/dock_solv.prm

>  <Rbt.Receptor>
prm/pocket_docking_8.prm

>  <SCORE>
-21.0812

>  <SCORE.INTER>
-16.9583

>  <SCORE.INTER.CONST>
1

>  <SCORE.INTER.POLAR>
0

>  <SCORE.INTER.ROT>
4

>  <SCORE.INTER.SOLV>
17.7721

>  <SCORE.INTER.VDW>
-23.4963

>  <SCORE.INTER.norm>
-0.706597

>  <SCORE.INTRA>
-4.1229

>  <SCORE.INTRA.DIHEDRAL>
-10.1445

>  <SCORE.INTRA.DIHEDRAL.0>
13.2525

>  <SCORE.INTRA.POLAR>
0

>  <SCORE.INTRA.POLAR.0>
0

>  <SCORE.INTRA.REPUL>
0

>  <SCORE.INTRA.REPUL.0>
0

>  <SCORE.INTRA.SOLV>
3.5206

>  <SCORE.INTRA.SOLV.lig_0>
-70.7221

>  <SCORE.INTRA.VDW>
-0.810938

>  <SCORE.INTRA.VDW.0>
-1.46337

>  <SCORE.INTRA.norm>
-0.171788

>  <SCORE.RESTR>
0

>  <SCORE.RESTR.CAVITY>
0

>  <SCORE.RESTR.norm>
0

>  <SCORE.SYSTEM>
0

>  <SCORE.SYSTEM.CONST>
0

>  <SCORE.SYSTEM.DIHEDRAL>
0

>  <SCORE.SYSTEM.SOLV>
0

>  <SCORE.SYSTEM.norm>
0

>  <SCORE.heavy>
24

>  <SCORE.norm>
-0.878385

>  <RMSD>
0.946

$$$$
ligand
 OpenBabel11021811483D
libRbt.so/2013.1/901 2013/11/27
 24 26  0  0  0  0  0  0  0  0999 V2000
   -5.9119   -7.6567   14.9425 P   0  0  1  0  0  0  0  0  0  0  0  0
   -6.5757   -6.5942   15.7921 O   0  0  0  0  0  0  0  0  0  0  0  0
   -4.4225   -7.5148   14.7342 O   0  5  0  0  0  0  0  0  0  0  0  0
   -6.3232   -9.0782   15.2961 O   0  0  0  0  0  0  0  0  0  0  0  0
   -6.3462   -6.0771   12.7908 C   0  0  0  0  0  0  0  0  0  0  0  0
   -6.4603   -7.3531   13.4445 O   0  0  0  0  0  0  0  0  0  0  0  0
   -7.0290   -6.1308   11.4209 C   0  0  1  0  0  0  0  0  0  0  0  0
   -7.0414   -4.8493   10.7794 O   0  0  0  0  0  0  0  0  0  0  0  0
   -6.3873   -7.0818   10.4252 C   0  0  1  0  0  0  0  0  0  0  0  0
   -7.0045   -8.3666   10.5479 O   0  0  0  0  0  0  0  0  0  0  0  0
   -6.6950   -6.4419    9.0813 C   0  0  1  0  0  0  0  0  0  0  0  0
   -8.0185   -6.7897    8.6503 O   0  0  0  0  0  0  0  0  0  0  0  0
   -6.7328   -4.9571    9.3842 C   0  0  2  0  0  0  0  0  0  0  0  0
   -4.3637   -0.4461    9.6929 N   0  0  0  0  0  0  0  0  0  0  0  0
   -5.6670   -0.7477    9.8927 C   0  0  1  0  0  0  0  0  0  0  0  0
   -6.5275    0.2383   10.2331 N   0  0  0  0  0  0  0  0  0  0  0  0
   -6.1168   -2.0170    9.7563 N   0  0  0  0  0  0  0  0  0  0  0  0
   -5.2500   -3.0001    9.4145 C   0  0  1  0  0  0  0  0  0  0  0  0
   -3.9142   -2.7205    9.2027 C   0  0  2  0  0  0  0  0  0  0  0  0
   -3.4774   -1.4092    9.3500 C   0  0  0  0  0  0  0  0  0  0  0  0
   -2.2799   -1.1133    9.1680 O   0  0  0  0  0  0  0  0  0  0  0  0
   -3.3103   -3.8809    8.8749 N   0  0  0  0  0  0  0  0  0  0  0  0
   -4.2504   -4.8545    8.8917 C   0  0  0  0  0  0  0  0  0  0  0  0
   -5.4216   -4.3015    9.2227 N   0  0  1  0  0  0  0  0  0  0  0  0
  1  2  1  1  0  0  0
  1  3  1  0  0  0  0
  1  4  2  0  0  0  0
  1  6  1  0  0  0  0
  5  6  1  0  0  0  0
  7  5  1  1  0  0  0
  7  8  1  0  0  0  0
  7  9  1  0  0  0  0
  9 10  1  6  0  0  0
  9 11  1  0  0  0  0
 11 12  1  1  0  0  0
 11 13  1  0  0  0  0
 13  8  1  1  0  0  0
 13 24  1  0  0  0  0
 14 15  1  0  0  0  0
 14 20  1  0  0  0  0
 15 16  1  6  0  0  0
 15 17  1  0  0  0  0
 18 17  1  1  0  0  0
 18 19  1  0  0  0  0
 18 24  1  0  0  0  0
 19 20  1  6  0  0  0
 19 22  1  0  0  0  0
 20 21  2  0  0  0  0
 22 23  1  0  0  0  0
 24 23  1  1  0  0  0
M  CHG  1   3  -1
M  END
>  <CHROM.1>
54.66041524,175.01302746,-177.22345908,-66.22855707,-5.69627399,-4.97812503
11.18474980,-2.02740499,-1.07447423,-1.08310407

>  <Name>
ligand

>  <RI>
0

>  <Rbt.Current_Directory>
/home/itssahil/PROJECTS/Mol_Feturizer/New_Systems/rnas/3SLQ

>  <Rbt.Executable>
rbdock ($Id: //depot/dev/client3/rdock/2013.1/src/exe/rbdock.cxx#4 $)

>  <Rbt.Library>
libRbt.so (2013.1, Build901 2013/11/27)

>  <Rbt.Parameter_File>
/export/apps/rDock/src/rDock_2013.1_src/data/scripts/dock_solv.prm

>  <Rbt.Receptor>
prm/pocket_docking_3.prm

>  <SCORE>
-23.4494

>  <SCORE.INTER>
-17.3825

>  <SCORE.INTER.CONST>
1

>  <SCORE.INTER.POLAR>
0

>  <SCORE.INTER.ROT>
4

>  <SCORE.INTER.SOLV>
20.5109

>  <SCORE.INTER.VDW>
-24.692

>  <SCORE.INTER.norm>
-0.724271

>  <SCORE.INTRA>
-6.06688

>  <SCORE.INTRA.DIHEDRAL>
-11.8844

>  <SCORE.INTRA.DIHEDRAL.0>
13.2525

>  <SCORE.INTRA.POLAR>
0

>  <SCORE.INTRA.POLAR.0>
0

>  <SCORE.INTRA.REPUL>
0

>  <SCORE.INTRA.REPUL.0>
0

>  <SCORE.INTRA.SOLV>
0.049401

>  <SCORE.INTRA.SOLV.lig_0>
-70.7221

>  <SCORE.INTRA.VDW>
-0.149358

>  <SCORE.INTRA.VDW.0>
-1.46337

>  <SCORE.INTRA.norm>
-0.252787

>  <SCORE.RESTR>
0

>  <SCORE.RESTR.CAVITY>
0

>  <SCORE.RESTR.norm>
0

>  <SCORE.SYSTEM>
0

>  <SCORE.SYSTEM.CONST>
0

>  <SCORE.SYSTEM.DIHEDRAL>
0

>  <SCORE.SYSTEM.SOLV>
0

>  <SCORE.SYSTEM.norm>
0

>  <SCORE.heavy>
24

>  <SCORE.norm>
-0.977058

>  <RMSD>
0.952

$$$$
ligand
 OpenBabel11021811483D
libRbt.so/2013.1/901 2013/11/27
 24 26  0  0  0  0  0  0  0  0999 V2000
   -6.8846   -7.5870   14.9152 P   0  0  1  0  0  0  0  0  0  0  0  0
   -7.8597   -7.0100   15.9190 O   0  0  0  0  0  0  0  0  0  0  0  0
   -5.4791   -7.0347   14.9521 O   0  5  0  0  0  0  0  0  0  0  0  0
   -6.9174   -9.1052   14.8226 O   0  0  0  0  0  0  0  0  0  0  0  0
   -6.7872   -7.3038   12.2275 C   0  0  0  0  0  0  0  0  0  0  0  0
   -7.4046   -7.0043   13.4914 O   0  0  0  0  0  0  0  0  0  0  0  0
   -7.6850   -6.8246   11.0828 C   0  0  1  0  0  0  0  0  0  0  0  0
   -7.6252   -5.4024   10.9163 O   0  0  0  0  0  0  0  0  0  0  0  0
   -7.3514   -7.4115    9.7219 C   0  0  1  0  0  0  0  0  0  0  0  0
   -8.1114   -8.6091    9.5351 O   0  0  0  0  0  0  0  0  0  0  0  0
   -7.7829   -6.3210    8.7550 C   0  0  1  0  0  0  0  0  0  0  0  0
   -9.1941   -6.3981    8.5079 O   0  0  0  0  0  0  0  0  0  0  0  0
   -7.5659   -5.0376    9.5317 C   0  0  2  0  0  0  0  0  0  0  0  0
   -4.9361   -0.6648    9.6709 N   0  0  0  0  0  0  0  0  0  0  0  0
   -6.2523   -0.8833    9.8932 C   0  0  1  0  0  0  0  0  0  0  0  0
   -7.0502    0.1613   10.2100 N   0  0  0  0  0  0  0  0  0  0  0  0
   -6.7764   -2.1280    9.8024 N   0  0  0  0  0  0  0  0  0  0  0  0
   -5.9720   -3.1703    9.4841 C   0  0  1  0  0  0  0  0  0  0  0  0
   -4.6249   -2.9758    9.2502 C   0  0  2  0  0  0  0  0  0  0  0  0
   -4.1112   -1.6882    9.3507 C   0  0  0  0  0  0  0  0  0  0  0  0
   -2.9008   -1.4685    9.1475 O   0  0  0  0  0  0  0  0  0  0  0  0
   -4.0930   -4.1793    8.9542 N   0  0  0  0  0  0  0  0  0  0  0  0
   -5.0877   -5.0954    9.0118 C   0  0  0  0  0  0  0  0  0  0  0  0
   -6.2209   -4.4649    9.3362 N   0  0  1  0  0  0  0  0  0  0  0  0
  1  2  1  1  0  0  0
  1  3  1  0  0  0  0
  1  4  2  0  0  0  0
  1  6  1  0  0  0  0
  5  6  1  0  0  0  0
  7  5  1  1  0  0  0
  7  8  1  0  0  0  0
  7  9  1  0  0  0  0
  9 10  1  6  0  0  0
  9 11  1  0  0  0  0
 11 12  1  1  0  0  0
 11 13  1  0  0  0  0
 13  8  1  1  0  0  0
 13 24  1  0  0  0  0
 14 15  1  0  0  0  0
 14 20  1  0  0  0  0
 15 16  1  6  0  0  0
 15 17  1  0  0  0  0
 18 17  1  1  0  0  0
 18 19  1  0  0  0  0
 18 24  1  0  0  0  0
 19 20  1  6  0  0  0
 19 22  1  0  0  0  0
 20 21  2  0  0  0  0
 22 23  1  0  0  0  0
 24 23  1  1  0  0  0
M  CHG  1   3  -1
M  END
>  <CHROM.1>
-179.14061070,75.84903587,168.81274902,-90.48330566,-6.50976158,-5.14414719
11.08060556,-2.10180549,-1.05001008,-1.14372657

>  <Name>
ligand

>  <RI>
0

>  <Rbt.Current_Directory>
/home/itssahil/PROJECTS/Mol_Feturizer/New_Systems/rnas/3SLQ

>  <Rbt.Executable>
rbdock ($Id: //depot/dev/client3/rdock/2013.1/src/exe/rbdock.cxx#4 $)

>  <Rbt.Library>
libRbt.so (2013.1, Build901 2013/11/27)

>  <Rbt.Parameter_File>
/export/apps/rDock/src/rDock_2013.1_src/data/scripts/dock_solv.prm

>  <Rbt.Receptor>
prm/pocket_docking_2.prm

>  <SCORE>
-16.7127

>  <SCORE.INTER>
-11.4182

>  <SCORE.INTER.CONST>
1

>  <SCORE.INTER.POLAR>
0

>  <SCORE.INTER.ROT>
4

>  <SCORE.INTER.SOLV>
20.405

>  <SCORE.INTER.VDW>
-20.6805

>  <SCORE.INTER.norm>
-0.47576

>  <SCORE.INTRA>
-5.2945

>  <SCORE.INTRA.DIHEDRAL>
-10.6141

>  <SCORE.INTRA.DIHEDRAL.0>
13.2525

>  <SCORE.INTRA.POLAR>
0

>  <SCORE.INTRA.POLAR.0>
0

>  <SCORE.INTRA.REPUL>
0

>  <SCORE.INTRA.REPUL.0>
0

>  <SCORE.INTRA.SOLV>
0.438519

>  <SCORE.INTRA.SOLV.lig_0>
-70.7221

>  <SCORE.INTRA.VDW>
-0.20672

>  <SCORE.INTRA.VDW.0>
-1.46337

>  <SCORE.INTRA.norm>
-0.220604

>  <SCORE.RESTR>
0

>  <SCORE.RESTR.CAVITY>
0

>  <SCORE.RESTR.norm>
0

>  <SCORE.SYSTEM>
0

>  <SCORE.SYSTEM.CONST>
0

>  <SCORE.SYSTEM.DIHEDRAL>
0

>  <SCORE.SYSTEM.SOLV>
0

>  <SCORE.SYSTEM.norm>
0

>  <SCORE.heavy>
24

>  <SCORE.norm>
-0.696364

>  <RMSD>
0.953

$$$$
ligand
 OpenBabel11021811483D
libRbt.so/2013.1/901 2013/11/27
 24 26  0  0  0  0  0  0  0  0999 V2000
   -5.9355   -7.6364   14.9430 P   0  0  1  0  0  0  0  0  0  0  0  0
   -6.5697   -6.5695   15.8095 O   0  0  0  0  0  0  0  0  0  0  0  0
   -4.4485   -7.5124   14.7076 O   0  5  0  0  0  0  0  0  0  0  0  0
   -6.3583   -9.0541   15.2978 O   0  0  0  0  0  0  0  0  0  0  0  0
   -6.3168   -6.0680   12.7731 C   0  0  0  0  0  0  0  0  0  0  0  0
   -6.5077   -7.3188   13.4567 O   0  0  0  0  0  0  0  0  0  0  0  0
   -7.0074   -6.1107   11.4067 C   0  0  1  0  0  0  0  0  0  0  0  0
   -7.0162   -4.8257   10.7720 O   0  0  0  0  0  0  0  0  0  0  0  0
   -6.3763   -7.0599   10.4025 C   0  0  1  0  0  0  0  0  0  0  0  0
   -7.0000   -8.3419   10.5218 O   0  0  0  0  0  0  0  0  0  0  0  0
   -6.6878   -6.4112    9.0637 C   0  0  1  0  0  0  0  0  0  0  0  0
   -8.0155   -6.7494    8.6381 O   0  0  0  0  0  0  0  0  0  0  0  0
   -6.7157   -4.9278    9.3746 C   0  0  2  0  0  0  0  0  0  0  0  0
   -4.3261   -0.4265    9.6653 N   0  0  0  0  0  0  0  0  0  0  0  0
   -5.6305   -0.7215    9.8677 C   0  0  1  0  0  0  0  0  0  0  0  0
   -6.4863    0.2694   10.2057 N   0  0  0  0  0  0  0  0  0  0  0  0
   -6.0862   -1.9892    9.7360 N   0  0  0  0  0  0  0  0  0  0  0  0
   -5.2241   -2.9774    9.3966 C   0  0  1  0  0  0  0  0  0  0  0  0
   -3.8874   -2.7045    9.1824 C   0  0  2  0  0  0  0  0  0  0  0  0
   -3.4446   -1.3946    9.3248 C   0  0  0  0  0  0  0  0  0  0  0  0
   -2.2460   -1.1047    9.1404 O   0  0  0  0  0  0  0  0  0  0  0  0
   -3.2890   -3.8687    8.8578 N   0  0  0  0  0  0  0  0  0  0  0  0
   -4.2335   -4.8379    8.8789 C   0  0  0  0  0  0  0  0  0  0  0  0
   -5.4018   -4.2786    9.2094 N   0  0  1  0  0  0  0  0  0  0  0  0
  1  2  1  1  0  0  0
  1  3  1  0  0  0  0
  1  4  2  0  0  0  0
  1  6  1  0  0  0  0
  5  6  1  0  0  0  0
  7  5  1  1  0  0  0
  7  8  1  0  0  0  0
  7  9  1  0  0  0  0
  9 10  1  6  0  0  0
  9 11  1  0  0  0  0
 11 12  1  1  0  0  0
 11 13  1  0  0  0  0
 13  8  1  1  0  0  0
 13 24  1  0  0  0  0
 14 15  1  0  0  0  0
 14 20  1  0  0  0  0
 15 16  1  6  0  0  0
 15 17  1  0  0  0  0
 18 17  1  1  0  0  0
 18 19  1  0  0  0  0
 18 24  1  0  0  0  0
 19 20  1  6  0  0  0
 19 22  1  0  0  0  0
 20 21  2  0  0  0  0
 22 23  1  0  0  0  0
 24 23  1  1  0  0  0
M  CHG  1   3  -1
M  END
>  <CHROM.1>
58.71080331,171.35717690,-179.09413308,-66.78636801,-5.68605912,-4.95629935
11.17105312,-2.04157865,-1.07531253,-1.09920659

>  <Name>
ligand

>  <RI>
0

>  <Rbt.Current_Directory>
/home/itssahil/PROJECTS/Mol_Feturizer/New_Systems/rnas/3SLQ

>  <Rbt.Executable>
rbdock ($Id: //depot/dev/client3/rdock/2013.1/src/exe/rbdock.cxx#4 $)

>  <Rbt.Library>
libRbt.so (2013.1, Build901 2013/11/27)

>  <Rbt.Parameter_File>
/export/apps/rDock/src/rDock_2013.1_src/data/scripts/dock_solv.prm

>  <Rbt.Receptor>
prm/pocket_docking_3.prm

>  <SCORE>
-23.4762

>  <SCORE.INTER>
-17.4598

>  <SCORE.INTER.CONST>
1

>  <SCORE.INTER.POLAR>
0

>  <SCORE.INTER.ROT>
4

>  <SCORE.INTER.SOLV>
20.5417

>  <SCORE.INTER.VDW>
-24.7537

>  <SCORE.INTER.norm>
-0.72749

>  <SCORE.INTRA>
-6.01644

>  <SCORE.INTRA.DIHEDRAL>
-11.7851

>  <SCORE.INTRA.DIHEDRAL.0>
13.2525

>  <SCORE.INTRA.POLAR>
0

>  <SCORE.INTRA.POLAR.0>
0

>  <SCORE.INTRA.REPUL>
0

>  <SCORE.INTRA.REPUL.0>
0

>  <SCORE.INTRA.SOLV>
0.0742816

>  <SCORE.INTRA.SOLV.lig_0>
-70.7221

>  <SCORE.INTRA.VDW>
-0.161005

>  <SCORE.INTRA.VDW.0>
-1.46337

>  <SCORE.INTRA.norm>
-0.250685

>  <SCORE.RESTR>
0

>  <SCORE.RESTR.CAVITY>
0

>  <SCORE.RESTR.norm>
0

>  <SCORE.SYSTEM>
0

>  <SCORE.SYSTEM.CONST>
0

>  <SCORE.SYSTEM.DIHEDRAL>
0

>  <SCORE.SYSTEM.SOLV>
0

>  <SCORE.SYSTEM.norm>
0

>  <SCORE.heavy>
24

>  <SCORE.norm>
-0.978175

>  <RMSD>
0.957

$$$$
ligand
 OpenBabel11021811483D
libRbt.so/2013.1/901 2013/11/27
 24 26  0  0  0  0  0  0  0  0999 V2000
   -5.9058   -7.6625   14.9226 P   0  0  1  0  0  0  0  0  0  0  0  0
   -6.5413   -6.6016   15.7956 O   0  0  0  0  0  0  0  0  0  0  0  0
   -4.4193   -7.5341   14.6863 O   0  5  0  0  0  0  0  0  0  0  0  0
   -6.3253   -9.0830   15.2703 O   0  0  0  0  0  0  0  0  0  0  0  0
   -6.3251   -6.0707   12.7770 C   0  0  0  0  0  0  0  0  0  0  0  0
   -6.4803   -7.3380   13.4388 O   0  0  0  0  0  0  0  0  0  0  0  0
   -7.0187   -6.1076   11.4119 C   0  0  1  0  0  0  0  0  0  0  0  0
   -7.0220   -4.8216   10.7793 O   0  0  0  0  0  0  0  0  0  0  0  0
   -6.3947   -7.0586   10.4049 C   0  0  1  0  0  0  0  0  0  0  0  0
   -7.0248   -8.3375   10.5236 O   0  0  0  0  0  0  0  0  0  0  0  0
   -6.7055   -6.4061    9.0678 C   0  0  1  0  0  0  0  0  0  0  0  0
   -8.0358   -6.7367    8.6444 O   0  0  0  0  0  0  0  0  0  0  0  0
   -6.7249   -4.9231    9.3811 C   0  0  2  0  0  0  0  0  0  0  0  0
   -4.3179   -0.4293    9.6425 N   0  0  0  0  0  0  0  0  0  0  0  0
   -5.6240   -0.7174    9.8438 C   0  0  1  0  0  0  0  0  0  0  0  0
   -6.4766    0.2795   10.1718 N   0  0  0  0  0  0  0  0  0  0  0  0
   -6.0845   -1.9843    9.7210 N   0  0  0  0  0  0  0  0  0  0  0  0
   -5.2256   -2.9786    9.3916 C   0  0  1  0  0  0  0  0  0  0  0  0
   -3.8872   -2.7128    9.1787 C   0  0  2  0  0  0  0  0  0  0  0  0
   -3.4395   -1.4036    9.3119 C   0  0  0  0  0  0  0  0  0  0  0  0
   -2.2392   -1.1200    9.1284 O   0  0  0  0  0  0  0  0  0  0  0  0
   -3.2927   -3.8819    8.8648 N   0  0  0  0  0  0  0  0  0  0  0  0
   -4.2411   -4.8472    8.8912 C   0  0  0  0  0  0  0  0  0  0  0  0
   -5.4080   -4.2805    9.2142 N   0  0  1  0  0  0  0  0  0  0  0  0
  1  2  1  1  0  0  0
  1  3  1  0  0  0  0
  1  4  2  0  0  0  0
  1  6  1  0  0  0  0
  5  6  1  0  0  0  0
  7  5  1  1  0  0  0
  7  8  1  0  0  0  0
  7  9  1  0  0  0  0
  9 10  1  6  0  0  0
  9 11  1  0  0  0  0
 11 12  1  1  0  0  0
 11 13  1  0  0  0  0
 13  8  1  1  0  0  0
 13 24  1  0  0  0  0
 14 15  1  0  0  0  0
 14 20  1  0  0  0  0
 15 16  1  6  0  0  0
 15 17  1  0  0  0  0
 18 17  1  1  0  0  0
 18 19  1  0  0  0  0
 18 24  1  0  0  0  0
 19 20  1  6  0  0  0
 19 22  1  0  0  0  0
 20 21  2  0  0  0  0
 22 23  1  0  0  0  0
 24 23  1  1  0  0  0
M  CHG  1   3  -1
M  END
>  <CHROM.1>
56.89381178,173.41077891,-178.55944832,-67.39270356,-5.68207920,-4.96340976
11.16312333,-2.01948998,-1.05861797,-1.07278592

>  <Name>
ligand

>  <RI>
0

>  <Rbt.Current_Directory>
/home/itssahil/PROJECTS/Mol_Feturizer/New_Systems/rnas/3SLQ

>  <Rbt.Executable>
rbdock ($Id: //depot/dev/client3/rdock/2013.1/src/exe/rbdock.cxx#4 $)

>  <Rbt.Library>
libRbt.so (2013.1, Build901 2013/11/27)

>  <Rbt.Parameter_File>
/export/apps/rDock/src/rDock_2013.1_src/data/scripts/dock_solv.prm

>  <Rbt.Receptor>
prm/pocket_docking_3.prm

>  <SCORE>
-23.4674

>  <SCORE.INTER>
-17.402

>  <SCORE.INTER.CONST>
1

>  <SCORE.INTER.POLAR>
0

>  <SCORE.INTER.ROT>
4

>  <SCORE.INTER.SOLV>
20.427

>  <SCORE.INTER.VDW>
-24.677

>  <SCORE.INTER.norm>
-0.725083

>  <SCORE.INTRA>
-6.06544

>  <SCORE.INTRA.DIHEDRAL>
-11.8773

>  <SCORE.INTRA.DIHEDRAL.0>
13.2525

>  <SCORE.INTRA.POLAR>
0

>  <SCORE.INTRA.POLAR.0>
0

>  <SCORE.INTRA.REPUL>
0

>  <SCORE.INTRA.REPUL.0>
0

>  <SCORE.INTRA.SOLV>
0.066296

>  <SCORE.INTRA.SOLV.lig_0>
-70.7221

>  <SCORE.INTRA.VDW>
-0.15994

>  <SCORE.INTRA.VDW.0>
-1.46337

>  <SCORE.INTRA.norm>
-0.252727

>  <SCORE.RESTR>
0

>  <SCORE.RESTR.CAVITY>
0

>  <SCORE.RESTR.norm>
0

>  <SCORE.SYSTEM>
0

>  <SCORE.SYSTEM.CONST>
0

>  <SCORE.SYSTEM.DIHEDRAL>
0

>  <SCORE.SYSTEM.SOLV>
0

>  <SCORE.SYSTEM.norm>
0

>  <SCORE.heavy>
24

>  <SCORE.norm>
-0.977809

>  <RMSD>
0.963

$$$$
ligand
 OpenBabel11021811483D
libRbt.so/2013.1/901 2013/11/27
 24 26  0  0  0  0  0  0  0  0999 V2000
   -7.3179   -7.4589   14.4906 P   0  0  1  0  0  0  0  0  0  0  0  0
   -7.4278   -6.5730   15.7132 O   0  0  0  0  0  0  0  0  0  0  0  0
   -6.8195   -8.8655   14.7246 O   0  5  0  0  0  0  0  0  0  0  0  0
   -8.5355   -7.4104   13.5797 O   0  0  0  0  0  0  0  0  0  0  0  0
   -6.1416   -5.5988   12.9190 C   0  0  0  0  0  0  0  0  0  0  0  0
   -6.0708   -6.8263   13.6649 O   0  0  0  0  0  0  0  0  0  0  0  0
   -6.7970   -5.8533   11.5583 C   0  0  1  0  0  0  0  0  0  0  0  0
   -6.8505   -4.6642   10.7601 O   0  0  0  0  0  0  0  0  0  0  0  0
   -6.0990   -6.8933   10.6987 C   0  0  1  0  0  0  0  0  0  0  0  0
   -6.6651   -8.1779   10.9748 O   0  0  0  0  0  0  0  0  0  0  0  0
   -6.4087   -6.4409    9.2811 C   0  0  1  0  0  0  0  0  0  0  0  0
   -7.7088   -6.8967    8.8808 O   0  0  0  0  0  0  0  0  0  0  0  0
   -6.5128   -4.9329    9.3937 C   0  0  2  0  0  0  0  0  0  0  0  0
   -4.2498   -0.3596    9.5378 N   0  0  0  0  0  0  0  0  0  0  0  0
   -5.5353   -0.6908    9.7972 C   0  0  1  0  0  0  0  0  0  0  0  0
   -6.4058    0.2782   10.1602 N   0  0  0  0  0  0  0  0  0  0  0  0
   -5.9576   -1.9729    9.6979 N   0  0  0  0  0  0  0  0  0  0  0  0
   -5.0810   -2.9390    9.3333 C   0  0  1  0  0  0  0  0  0  0  0  0
   -3.7630   -2.6291    9.0609 C   0  0  2  0  0  0  0  0  0  0  0  0
   -3.3543   -1.3051    9.1710 C   0  0  0  0  0  0  0  0  0  0  0  0
   -2.1736   -0.9820    8.9340 O   0  0  0  0  0  0  0  0  0  0  0  0
   -3.1437   -3.7788    8.7239 N   0  0  0  0  0  0  0  0  0  0  0  0
   -4.0569   -4.7753    8.7944 C   0  0  0  0  0  0  0  0  0  0  0  0
   -5.2269   -4.2470    9.1673 N   0  0  1  0  0  0  0  0  0  0  0  0
  1  2  1  1  0  0  0
  1  3  1  0  0  0  0
  1  4  2  0  0  0  0
  1  6  1  0  0  0  0
  5  6  1  0  0  0  0
  7  5  1  1  0  0  0
  7  8  1  0  0  0  0
  7  9  1  0  0  0  0
  9 10  1  1  0  0  0
  9 11  1  0  0  0  0
 11 12  1  1  0  0  0
 11 13  1  0  0  0  0
 13  8  1  1  0  0  0
 13 24  1  0  0  0  0
 14 15  1  0  0  0  0
 14 20  1  0  0  0  0
 15 16  1  6  0  0  0
 15 17  1  0  0  0  0
 18 17  1  1  0  0  0
 18 19  1  0  0  0  0
 18 24  1  0  0  0  0
 19 20  1  6  0  0  0
 19 22  1  0  0  0  0
 20 21  2  0  0  0  0
 22 23  1  0  0  0  0
 24 23  1  1  0  0  0
M  CHG  1   3  -1
M  END
>  <CHROM.1>
-74.35368656,-178.12427948,-80.29172716,-58.96342878,-5.90322671,-4.84088080
11.08039563,3.06864743,-1.19070800,-2.30981501

>  <Name>
ligand

>  <RI>
0

>  <Rbt.Current_Directory>
/home/itssahil/PROJECTS/Mol_Feturizer/New_Systems/rnas/3SLQ

>  <Rbt.Executable>
rbdock ($Id: //depot/dev/client3/rdock/2013.1/src/exe/rbdock.cxx#4 $)

>  <Rbt.Library>
libRbt.so (2013.1, Build901 2013/11/27)

>  <Rbt.Parameter_File>
/export/apps/rDock/src/rDock_2013.1_src/data/scripts/dock_solv.prm

>  <Rbt.Receptor>
prm/pocket_docking_5.prm

>  <SCORE>
-21.1343

>  <SCORE.INTER>
-17.0731

>  <SCORE.INTER.CONST>
1

>  <SCORE.INTER.POLAR>
0

>  <SCORE.INTER.ROT>
4

>  <SCORE.INTER.SOLV>
17.9049

>  <SCORE.INTER.VDW>
-23.6171

>  <SCORE.INTER.norm>
-0.711381

>  <SCORE.INTRA>
-4.06112

>  <SCORE.INTRA.DIHEDRAL>
-9.87

>  <SCORE.INTRA.DIHEDRAL.0>
13.2525

>  <SCORE.INTRA.POLAR>
0

>  <SCORE.INTRA.POLAR.0>
0

>  <SCORE.INTRA.REPUL>
0

>  <SCORE.INTRA.REPUL.0>
0

>  <SCORE.INTRA.SOLV>
3.31267

>  <SCORE.INTRA.SOLV.lig_0>
-70.7221

>  <SCORE.INTRA.VDW>
-0.78245

>  <SCORE.INTRA.VDW.0>
-1.46337

>  <SCORE.INTRA.norm>
-0.169213

>  <SCORE.RESTR>
0

>  <SCORE.RESTR.CAVITY>
0

>  <SCORE.RESTR.norm>
0

>  <SCORE.SYSTEM>
0

>  <SCORE.SYSTEM.CONST>
0

>  <SCORE.SYSTEM.DIHEDRAL>
0

>  <SCORE.SYSTEM.SOLV>
0

>  <SCORE.SYSTEM.norm>
0

>  <SCORE.heavy>
24

>  <SCORE.norm>
-0.880594

>  <RMSD>
0.964

$$$$
ligand
 OpenBabel11021811483D
libRbt.so/2013.1/901 2013/11/27
 24 26  0  0  0  0  0  0  0  0999 V2000
   -5.8962   -7.6554   14.9395 P   0  0  1  0  0  0  0  0  0  0  0  0
   -6.5512   -6.5925   15.7955 O   0  0  0  0  0  0  0  0  0  0  0  0
   -4.4068   -7.5205   14.7262 O   0  5  0  0  0  0  0  0  0  0  0  0
   -6.3137   -9.0759   15.2893 O   0  0  0  0  0  0  0  0  0  0  0  0
   -6.2993   -6.0758   12.7817 C   0  0  0  0  0  0  0  0  0  0  0  0
   -6.4485   -7.3433   13.4446 O   0  0  0  0  0  0  0  0  0  0  0  0
   -6.9949   -6.1162   11.4178 C   0  0  1  0  0  0  0  0  0  0  0  0
   -7.0050   -4.8305   10.7847 O   0  0  0  0  0  0  0  0  0  0  0  0
   -6.3683   -7.0648   10.4101 C   0  0  1  0  0  0  0  0  0  0  0  0
   -6.9926   -8.3464   10.5302 O   0  0  0  0  0  0  0  0  0  0  0  0
   -6.6842   -6.4142    9.0733 C   0  0  1  0  0  0  0  0  0  0  0  0
   -8.0137   -6.7508    8.6522 O   0  0  0  0  0  0  0  0  0  0  0  0
   -6.7097   -4.9312    9.3861 C   0  0  2  0  0  0  0  0  0  0  0  0
   -4.3192   -0.4290    9.6561 N   0  0  0  0  0  0  0  0  0  0  0  0
   -5.6234   -0.7230    9.8610 C   0  0  1  0  0  0  0  0  0  0  0  0
   -6.4787    0.2693   10.1961 N   0  0  0  0  0  0  0  0  0  0  0  0
   -6.0794   -1.9912    9.7350 N   0  0  0  0  0  0  0  0  0  0  0  0
   -5.2179   -2.9809    9.3986 C   0  0  1  0  0  0  0  0  0  0  0  0
   -3.8814   -2.7090    9.1818 C   0  0  2  0  0  0  0  0  0  0  0  0
   -3.4382   -1.3987    9.3184 C   0  0  0  0  0  0  0  0  0  0  0  0
   -2.2398   -1.1097    9.1316 O   0  0  0  0  0  0  0  0  0  0  0  0
   -3.2835   -3.8746    8.8612 N   0  0  0  0  0  0  0  0  0  0  0  0
   -4.2281   -4.8436    8.8873 C   0  0  0  0  0  0  0  0  0  0  0  0
   -5.3959   -4.2828    9.2169 N   0  0  1  0  0  0  0  0  0  0  0  0
  1  2  1  1  0  0  0
  1  3  1  0  0  0  0
  1  4  2  0  0  0  0
  1  6  1  0  0  0  0
  5  6  1  0  0  0  0
  7  5  1  1  0  0  0
  7  8  1  0  0  0  0
  7  9  1  0  0  0  0
  9 10  1  6  0  0  0
  9 11  1  0  0  0  0
 11 12  1  1  0  0  0
 11 13  1  0  0  0  0
 13  8  1  1  0  0  0
 13 24  1  0  0  0  0
 14 15  1  0  0  0  0
 14 20  1  0  0  0  0
 15 16  1  6  0  0  0
 15 17  1  0  0  0  0
 18 17  1  1  0  0  0
 18 19  1  0  0  0  0
 18 24  1  0  0  0  0
 19 20  1  6  0  0  0
 19 22  1  0  0  0  0
 20 21  2  0  0  0  0
 22 23  1  0  0  0  0
 24 23  1  1  0  0  0
M  CHG  1   3  -1
M  END
>  <CHROM.1>
56.34884327,173.37343733,-177.29174493,-67.12210575,-5.66990887,-4.96430462
11.17255197,-2.02499007,-1.06778879,-1.08105139

>  <Name>
ligand

>  <RI>
0

>  <Rbt.Current_Directory>
/home/itssahil/PROJECTS/Mol_Feturizer/New_Systems/rnas/3SLQ

>  <Rbt.Executable>
rbdock ($Id: //depot/dev/client3/rdock/2013.1/src/exe/rbdock.cxx#4 $)

>  <Rbt.Library>
libRbt.so (2013.1, Build901 2013/11/27)

>  <Rbt.Parameter_File>
/export/apps/rDock/src/rDock_2013.1_src/data/scripts/dock_solv.prm

>  <Rbt.Receptor>
prm/pocket_docking_3.prm

>  <SCORE>
-23.4896

>  <SCORE.INTER>
-17.4371

>  <SCORE.INTER.CONST>
1

>  <SCORE.INTER.POLAR>
0

>  <SCORE.INTER.ROT>
4

>  <SCORE.INTER.SOLV>
20.5399

>  <SCORE.INTER.VDW>
-24.738

>  <SCORE.INTER.norm>
-0.726544

>  <SCORE.INTRA>
-6.05257

>  <SCORE.INTRA.DIHEDRAL>
-11.8435

>  <SCORE.INTRA.DIHEDRAL.0>
13.2525

>  <SCORE.INTRA.POLAR>
0

>  <SCORE.INTRA.POLAR.0>
0

>  <SCORE.INTRA.REPUL>
0

>  <SCORE.INTRA.REPUL.0>
0

>  <SCORE.INTRA.SOLV>
0.0537234

>  <SCORE.INTRA.SOLV.lig_0>
-70.7221

>  <SCORE.INTRA.VDW>
-0.157697

>  <SCORE.INTRA.VDW.0>
-1.46337

>  <SCORE.INTRA.norm>
-0.252191

>  <SCORE.RESTR>
0

>  <SCORE.RESTR.CAVITY>
0

>  <SCORE.RESTR.norm>
0

>  <SCORE.SYSTEM>
0

>  <SCORE.SYSTEM.CONST>
0

>  <SCORE.SYSTEM.DIHEDRAL>
0

>  <SCORE.SYSTEM.SOLV>
0

>  <SCORE.SYSTEM.norm>
0

>  <SCORE.heavy>
24

>  <SCORE.norm>
-0.978735

>  <RMSD>
0.966

$$$$
ligand
 OpenBabel11021811483D
libRbt.so/2013.1/901 2013/11/27
 24 26  0  0  0  0  0  0  0  0999 V2000
   -7.4640   -7.5022   14.7128 P   0  0  1  0  0  0  0  0  0  0  0  0
   -8.7029   -7.1664   13.9104 O   0  0  0  0  0  0  0  0  0  0  0  0
   -7.2574   -6.7174   15.9869 O   0  5  0  0  0  0  0  0  0  0  0  0
   -7.2317   -8.9944   14.8972 O   0  0  0  0  0  0  0  0  0  0  0  0
   -6.3055   -5.7002   13.0623 C   0  0  0  0  0  0  0  0  0  0  0  0
   -6.2465   -6.9321   13.8019 O   0  0  0  0  0  0  0  0  0  0  0  0
   -7.0521   -5.9200   11.7432 C   0  0  1  0  0  0  0  0  0  0  0  0
   -7.2039   -4.7006   11.0055 O   0  0  0  0  0  0  0  0  0  0  0  0
   -6.3868   -6.8968   10.7888 C   0  0  1  0  0  0  0  0  0  0  0  0
   -6.8885   -8.2114   11.0474 O   0  0  0  0  0  0  0  0  0  0  0  0
   -6.8161   -6.3959    9.4194 C   0  0  1  0  0  0  0  0  0  0  0  0
   -8.1269   -6.8805    9.0953 O   0  0  0  0  0  0  0  0  0  0  0  0
   -6.9606   -4.8987    9.6072 C   0  0  2  0  0  0  0  0  0  0  0  0
   -4.8968   -0.2300    9.6327 N   0  0  0  0  0  0  0  0  0  0  0  0
   -6.1528   -0.6160    9.9536 C   0  0  1  0  0  0  0  0  0  0  0  0
   -7.0470    0.3155   10.3551 N   0  0  0  0  0  0  0  0  0  0  0  0
   -6.5225   -1.9159    9.8776 N   0  0  0  0  0  0  0  0  0  0  0  0
   -5.6224   -2.8442    9.4742 C   0  0  1  0  0  0  0  0  0  0  0  0
   -4.3337   -2.4781    9.1389 C   0  0  2  0  0  0  0  0  0  0  0  0
   -3.9789   -1.1370    9.2263 C   0  0  0  0  0  0  0  0  0  0  0  0
   -2.8261   -0.7635    8.9328 O   0  0  0  0  0  0  0  0  0  0  0  0
   -3.6810   -3.6010    8.7757 N   0  0  0  0  0  0  0  0  0  0  0  0
   -4.5451   -4.6363    8.8918 C   0  0  0  0  0  0  0  0  0  0  0  0
   -5.7183   -4.1581    9.3185 N   0  0  1  0  0  0  0  0  0  0  0  0
  1  2  1  6  0  0  0
  1  3  1  0  0  0  0
  1  4  2  0  0  0  0
  1  6  1  0  0  0  0
  5  6  1  0  0  0  0
  7  5  1  1  0  0  0
  7  8  1  0  0  0  0
  7  9  1  0  0  0  0
  9 10  1  1  0  0  0
  9 11  1  0  0  0  0
 11 12  1  1  0  0  0
 11 13  1  0  0  0  0
 13  8  1  1  0  0  0
 13 24  1  0  0  0  0
 14 15  1  0  0  0  0
 14 20  1  0  0  0  0
 15 16  1  6  0  0  0
 15 17  1  0  0  0  0
 18 17  1  1  0  0  0
 18 19  1  0  0  0  0
 18 24  1  0  0  0  0
 19 20  1  6  0  0  0
 19 22  1  0  0  0  0
 20 21  2  0  0  0  0
 22 23  1  0  0  0  0
 24 23  1  1  0  0  0
M  CHG  1   3  -1
M  END
>  <CHROM.1>
38.62859908,176.63839506,-80.95807889,-62.12612713,-6.28401913,-4.80643137
11.23789501,3.10170062,-1.25351302,-2.27182086

>  <Name>
ligand

>  <RI>
0

>  <Rbt.Current_Directory>
/home/itssahil/PROJECTS/Mol_Feturizer/New_Systems/rnas/3SLQ

>  <Rbt.Executable>
rbdock ($Id: //depot/dev/client3/rdock/2013.1/src/exe/rbdock.cxx#4 $)

>  <Rbt.Library>
libRbt.so (2013.1, Build901 2013/11/27)

>  <Rbt.Parameter_File>
/export/apps/rDock/src/rDock_2013.1_src/data/scripts/dock_solv.prm

>  <Rbt.Receptor>
prm/pocket_docking_2.prm

>  <SCORE>
-18.4042

>  <SCORE.INTER>
-13.8587

>  <SCORE.INTER.CONST>
1

>  <SCORE.INTER.POLAR>
0

>  <SCORE.INTER.ROT>
4

>  <SCORE.INTER.SOLV>
23.0913

>  <SCORE.INTER.VDW>
-23.2029

>  <SCORE.INTER.norm>
-0.577446

>  <SCORE.INTRA>
-4.55155

>  <SCORE.INTRA.DIHEDRAL>
-9.38215

>  <SCORE.INTRA.DIHEDRAL.0>
13.2525

>  <SCORE.INTRA.POLAR>
0

>  <SCORE.INTRA.POLAR.0>
0

>  <SCORE.INTRA.REPUL>
0

>  <SCORE.INTRA.REPUL.0>
0

>  <SCORE.INTRA.SOLV>
1.26536

>  <SCORE.INTRA.SOLV.lig_0>
-70.7221

>  <SCORE.INTRA.VDW>
-0.493153

>  <SCORE.INTRA.VDW.0>
-1.46337

>  <SCORE.INTRA.norm>
-0.189648

>  <SCORE.RESTR>
0.00608019

>  <SCORE.RESTR.CAVITY>
0.00608019

>  <SCORE.RESTR.norm>
0.000253341

>  <SCORE.SYSTEM>
0

>  <SCORE.SYSTEM.CONST>
0

>  <SCORE.SYSTEM.DIHEDRAL>
0

>  <SCORE.SYSTEM.SOLV>
0

>  <SCORE.SYSTEM.norm>
0

>  <SCORE.heavy>
24

>  <SCORE.norm>
-0.766841

>  <RMSD>
0.967

$$$$
ligand
 OpenBabel11021811483D
libRbt.so/2013.1/901 2013/11/27
 24 26  0  0  0  0  0  0  0  0999 V2000
   -5.8914   -7.6519   14.9260 P   0  0  1  0  0  0  0  0  0  0  0  0
   -6.5533   -6.6003   15.7907 O   0  0  0  0  0  0  0  0  0  0  0  0
   -4.4053   -7.4980   14.7030 O   0  5  0  0  0  0  0  0  0  0  0  0
   -6.2892   -9.0787   15.2730 O   0  0  0  0  0  0  0  0  0  0  0  0
   -6.3182   -6.0724   12.7727 C   0  0  0  0  0  0  0  0  0  0  0  0
   -6.4577   -7.3407   13.4362 O   0  0  0  0  0  0  0  0  0  0  0  0
   -7.0047   -6.1220   11.4045 C   0  0  1  0  0  0  0  0  0  0  0  0
   -7.0156   -4.8393   10.7652 O   0  0  0  0  0  0  0  0  0  0  0  0
   -6.3679   -7.0729   10.4054 C   0  0  1  0  0  0  0  0  0  0  0  0
   -6.9880   -8.3564   10.5276 O   0  0  0  0  0  0  0  0  0  0  0  0
   -6.6775   -6.4298    9.0635 C   0  0  1  0  0  0  0  0  0  0  0  0
   -8.0030   -6.7737    8.6354 O   0  0  0  0  0  0  0  0  0  0  0  0
   -6.7108   -4.9455    9.3690 C   0  0  2  0  0  0  0  0  0  0  0  0
   -4.3340   -0.4375    9.6601 N   0  0  0  0  0  0  0  0  0  0  0  0
   -5.6378   -0.7359    9.8608 C   0  0  1  0  0  0  0  0  0  0  0  0
   -6.4968    0.2529   10.1969 N   0  0  0  0  0  0  0  0  0  0  0  0
   -6.0899   -2.0050    9.7294 N   0  0  0  0  0  0  0  0  0  0  0  0
   -5.2247   -2.9910    9.3918 C   0  0  1  0  0  0  0  0  0  0  0  0
   -3.8884   -2.7146    9.1793 C   0  0  2  0  0  0  0  0  0  0  0  0
   -3.4493   -1.4034    9.3214 C   0  0  0  0  0  0  0  0  0  0  0  0
   -2.2512   -1.1104    9.1386 O   0  0  0  0  0  0  0  0  0  0  0  0
   -3.2863   -3.8774    8.8564 N   0  0  0  0  0  0  0  0  0  0  0  0
   -4.2282   -4.8492    8.8768 C   0  0  0  0  0  0  0  0  0  0  0  0
   -5.3985   -4.2928    9.2053 N   0  0  1  0  0  0  0  0  0  0  0  0
  1  2  1  1  0  0  0
  1  3  1  0  0  0  0
  1  4  2  0  0  0  0
  1  6  1  0  0  0  0
  5  6  1  0  0  0  0
  7  5  1  1  0  0  0
  7  8  1  0  0  0  0
  7  9  1  0  0  0  0
  9 10  1  6  0  0  0
  9 11  1  0  0  0  0
 11 12  1  1  0  0  0
 11 13  1  0  0  0  0
 13  8  1  1  0  0  0
 13 24  1  0  0  0  0
 14 15  1  0  0  0  0
 14 20  1  0  0  0  0
 15 16  1  6  0  0  0
 15 17  1  0  0  0  0
 18 17  1  1  0  0  0
 18 19  1  0  0  0  0
 18 24  1  0  0  0  0
 19 20  1  6  0  0  0
 19 22  1  0  0  0  0
 20 21  2  0  0  0  0
 22 23  1  0  0  0  0
 24 23  1  1  0  0  0
M  CHG  1   3  -1
M  END
>  <CHROM.1>
56.91685863,173.82519612,-178.27222575,-66.60068775,-5.67327703,-4.97006200
11.16429411,-2.02571799,-1.07126196,-1.08186093

>  <Name>
ligand

>  <RI>
0

>  <Rbt.Current_Directory>
/home/itssahil/PROJECTS/Mol_Feturizer/New_Systems/rnas/3SLQ

>  <Rbt.Executable>
rbdock ($Id: //depot/dev/client3/rdock/2013.1/src/exe/rbdock.cxx#4 $)

>  <Rbt.Library>
libRbt.so (2013.1, Build901 2013/11/27)

>  <Rbt.Parameter_File>
/export/apps/rDock/src/rDock_2013.1_src/data/scripts/dock_solv.prm

>  <Rbt.Receptor>
prm/pocket_docking_3.prm

>  <SCORE>
-23.5025

>  <SCORE.INTER>
-17.4349

>  <SCORE.INTER.CONST>
1

>  <SCORE.INTER.POLAR>
0

>  <SCORE.INTER.ROT>
4

>  <SCORE.INTER.SOLV>
20.5631

>  <SCORE.INTER.VDW>
-24.7443

>  <SCORE.INTER.norm>
-0.726456

>  <SCORE.INTRA>
-6.06756

>  <SCORE.INTRA.DIHEDRAL>
-11.8911

>  <SCORE.INTRA.DIHEDRAL.0>
13.2525

>  <SCORE.INTRA.POLAR>
0

>  <SCORE.INTRA.POLAR.0>
0

>  <SCORE.INTRA.REPUL>
0

>  <SCORE.INTRA.REPUL.0>
0

>  <SCORE.INTRA.SOLV>
0.0670865

>  <SCORE.INTRA.SOLV.lig_0>
-70.7221

>  <SCORE.INTRA.VDW>
-0.155558

>  <SCORE.INTRA.VDW.0>
-1.46337

>  <SCORE.INTRA.norm>
-0.252815

>  <SCORE.RESTR>
0

>  <SCORE.RESTR.CAVITY>
0

>  <SCORE.RESTR.norm>
0

>  <SCORE.SYSTEM>
0

>  <SCORE.SYSTEM.CONST>
0

>  <SCORE.SYSTEM.DIHEDRAL>
0

>  <SCORE.SYSTEM.SOLV>
0

>  <SCORE.SYSTEM.norm>
0

>  <SCORE.heavy>
24

>  <SCORE.norm>
-0.979271

>  <RMSD>
0.972

$$$$
ligand
 OpenBabel11021811483D
libRbt.so/2013.1/901 2013/11/27
 24 26  0  0  0  0  0  0  0  0999 V2000
   -5.8848   -7.5371   14.9078 P   0  0  1  0  0  0  0  0  0  0  0  0
   -6.4672   -6.6548   15.9912 O   0  0  0  0  0  0  0  0  0  0  0  0
   -4.3940   -7.4331   14.6878 O   0  5  0  0  0  0  0  0  0  0  0  0
   -6.3733   -8.9773   14.9533 O   0  0  0  0  0  0  0  0  0  0  0  0
   -5.9531   -7.2199   12.2229 C   0  0  0  0  0  0  0  0  0  0  0  0
   -6.4433   -6.8803   13.5316 O   0  0  0  0  0  0  0  0  0  0  0  0
   -6.9300   -6.7194   11.1548 C   0  0  1  0  0  0  0  0  0  0  0  0
   -6.8799   -5.2943   11.0105 O   0  0  0  0  0  0  0  0  0  0  0  0
   -6.6960   -7.2812    9.7629 C   0  0  1  0  0  0  0  0  0  0  0  0
   -7.4695   -8.4748    9.6092 O   0  0  0  0  0  0  0  0  0  0  0  0
   -7.1941   -6.1729    8.8497 C   0  0  1  0  0  0  0  0  0  0  0  0
   -8.6195   -6.2449    8.7033 O   0  0  0  0  0  0  0  0  0  0  0  0
   -6.9196   -4.9041    9.6323 C   0  0  2  0  0  0  0  0  0  0  0  0
   -4.3116   -0.5169    9.5477 N   0  0  0  0  0  0  0  0  0  0  0  0
   -5.6117   -0.7379    9.8480 C   0  0  1  0  0  0  0  0  0  0  0  0
   -6.3965    0.3082   10.1917 N   0  0  0  0  0  0  0  0  0  0  0  0
   -6.1330   -1.9865    9.8082 N   0  0  0  0  0  0  0  0  0  0  0  0
   -5.3419   -3.0303    9.4626 C   0  0  1  0  0  0  0  0  0  0  0  0
   -4.0113   -2.8334    9.1495 C   0  0  2  0  0  0  0  0  0  0  0  0
   -3.5002   -1.5417    9.1988 C   0  0  0  0  0  0  0  0  0  0  0  0
   -2.3045   -1.3197    8.9236 O   0  0  0  0  0  0  0  0  0  0  0  0
   -3.4900   -4.0392    8.8443 N   0  0  0  0  0  0  0  0  0  0  0  0
   -4.4746   -4.9590    8.9737 C   0  0  0  0  0  0  0  0  0  0  0  0
   -5.5912   -4.3284    9.3511 N   0  0  1  0  0  0  0  0  0  0  0  0
  1  2  1  1  0  0  0
  1  3  1  0  0  0  0
  1  4  2  0  0  0  0
  1  6  1  0  0  0  0
  5  6  1  0  0  0  0
  7  5  1  1  0  0  0
  7  8  1  0  0  0  0
  7  9  1  0  0  0  0
  9 10  1  1  0  0  0
  9 11  1  0  0  0  0
 11 12  1  1  0  0  0
 11 13  1  0  0  0  0
 13  8  1  1  0  0  0
 13 24  1  0  0  0  0
 14 15  1  0  0  0  0
 14 20  1  0  0  0  0
 15 16  1  6  0  0  0
 15 17  1  0  0  0  0
 18 17  1  1  0  0  0
 18 19  1  0  0  0  0
 18 24  1  0  0  0  0
 19 20  1  6  0  0  0
 19 22  1  0  0  0  0
 20 21  2  0  0  0  0
 22 23  1  0  0  0  0
 24 23  1  1  0  0  0
M  CHG  1   3  -1
M  END
>  <CHROM.1>
167.61815081,72.80059104,164.74876714,-92.73178404,-5.76846198,-5.03145125
11.07523516,-1.97093516,-1.01169635,-1.01898459

>  <Name>
ligand

>  <RI>
0

>  <Rbt.Current_Directory>
/home/itssahil/PROJECTS/Mol_Feturizer/New_Systems/rnas/3SLQ

>  <Rbt.Executable>
rbdock ($Id: //depot/dev/client3/rdock/2013.1/src/exe/rbdock.cxx#4 $)

>  <Rbt.Library>
libRbt.so (2013.1, Build901 2013/11/27)

>  <Rbt.Parameter_File>
/export/apps/rDock/src/rDock_2013.1_src/data/scripts/dock_solv.prm

>  <Rbt.Receptor>
prm/pocket_docking_3.prm

>  <SCORE>
-20.7927

>  <SCORE.INTER>
-15.8455

>  <SCORE.INTER.CONST>
1

>  <SCORE.INTER.POLAR>
0

>  <SCORE.INTER.ROT>
4

>  <SCORE.INTER.SOLV>
20.3274

>  <SCORE.INTER.VDW>
-23.6062

>  <SCORE.INTER.norm>
-0.660231

>  <SCORE.INTRA>
-4.94715

>  <SCORE.INTRA.DIHEDRAL>
-10.1732

>  <SCORE.INTRA.DIHEDRAL.0>
13.2525

>  <SCORE.INTRA.POLAR>
0

>  <SCORE.INTRA.POLAR.0>
0

>  <SCORE.INTRA.REPUL>
0

>  <SCORE.INTRA.REPUL.0>
0

>  <SCORE.INTRA.SOLV>
0.458797

>  <SCORE.INTRA.SOLV.lig_0>
-70.7221

>  <SCORE.INTRA.VDW>
-0.0899603

>  <SCORE.INTRA.VDW.0>
-1.46337

>  <SCORE.INTRA.norm>
-0.206131

>  <SCORE.RESTR>
0

>  <SCORE.RESTR.CAVITY>
0

>  <SCORE.RESTR.norm>
0

>  <SCORE.SYSTEM>
0

>  <SCORE.SYSTEM.CONST>
0

>  <SCORE.SYSTEM.DIHEDRAL>
0

>  <SCORE.SYSTEM.SOLV>
0

>  <SCORE.SYSTEM.norm>
0

>  <SCORE.heavy>
24

>  <SCORE.norm>
-0.866362

>  <RMSD>
0.974

$$$$
ligand
 OpenBabel11021811483D
libRbt.so/2013.1/901 2013/11/27
 24 26  0  0  0  0  0  0  0  0999 V2000
   -5.8963   -7.6609   14.9161 P   0  0  1  0  0  0  0  0  0  0  0  0
   -6.5598   -6.6238   15.7968 O   0  0  0  0  0  0  0  0  0  0  0  0
   -4.4124   -7.4955   14.6870 O   0  5  0  0  0  0  0  0  0  0  0  0
   -6.2837   -9.0942   15.2482 O   0  0  0  0  0  0  0  0  0  0  0  0
   -6.3068   -6.0719   12.7667 C   0  0  0  0  0  0  0  0  0  0  0  0
   -6.4726   -7.3354   13.4332 O   0  0  0  0  0  0  0  0  0  0  0  0
   -6.9991   -6.1087   11.4010 C   0  0  1  0  0  0  0  0  0  0  0  0
   -7.0062   -4.8216   10.7706 O   0  0  0  0  0  0  0  0  0  0  0  0
   -6.3712   -7.0559   10.3928 C   0  0  1  0  0  0  0  0  0  0  0  0
   -6.9973   -8.3370   10.5087 O   0  0  0  0  0  0  0  0  0  0  0  0
   -6.6831   -6.4020    9.0566 C   0  0  1  0  0  0  0  0  0  0  0  0
   -8.0120   -6.7362    8.6316 O   0  0  0  0  0  0  0  0  0  0  0  0
   -6.7077   -4.9197    9.3725 C   0  0  2  0  0  0  0  0  0  0  0  0
   -4.3159   -0.4182    9.6418 N   0  0  0  0  0  0  0  0  0  0  0  0
   -5.6213   -0.7109    9.8414 C   0  0  1  0  0  0  0  0  0  0  0  0
   -6.4775    0.2828   10.1697 N   0  0  0  0  0  0  0  0  0  0  0  0
   -6.0774   -1.9792    9.7166 N   0  0  0  0  0  0  0  0  0  0  0  0
   -5.2148   -2.9702    9.3869 C   0  0  1  0  0  0  0  0  0  0  0  0
   -3.8771   -2.6996    9.1758 C   0  0  2  0  0  0  0  0  0  0  0  0
   -3.4339   -1.3892    9.3110 C   0  0  0  0  0  0  0  0  0  0  0  0
   -2.2344   -1.1013    9.1291 O   0  0  0  0  0  0  0  0  0  0  0  0
   -3.2783   -3.8664    8.8612 N   0  0  0  0  0  0  0  0  0  0  0  0
   -4.2236   -4.8349    8.8853 C   0  0  0  0  0  0  0  0  0  0  0  0
   -5.3927   -4.2725    9.2078 N   0  0  1  0  0  0  0  0  0  0  0  0
  1  2  1  1  0  0  0
  1  3  1  0  0  0  0
  1  4  2  0  0  0  0
  1  6  1  0  0  0  0
  5  6  1  0  0  0  0
  7  5  1  1  0  0  0
  7  8  1  0  0  0  0
  7  9  1  0  0  0  0
  9 10  1  6  0  0  0
  9 11  1  0  0  0  0
 11 12  1  1  0  0  0
 11 13  1  0  0  0  0
 13  8  1  1  0  0  0
 13 24  1  0  0  0  0
 14 15  1  0  0  0  0
 14 20  1  0  0  0  0
 15 16  1  6  0  0  0
 15 17  1  0  0  0  0
 18 17  1  1  0  0  0
 18 19  1  0  0  0  0
 18 24  1  0  0  0  0
 19 20  1  6  0  0  0
 19 22  1  0  0  0  0
 20 21  2  0  0  0  0
 22 23  1  0  0  0  0
 24 23  1  1  0  0  0
M  CHG  1   3  -1
M  END
>  <CHROM.1>
59.00617550,172.69595093,-178.85606940,-67.42959873,-5.66948897,-4.95818848
11.15656482,-2.02241378,-1.06401032,-1.07540974

>  <Name>
ligand

>  <RI>
0

>  <Rbt.Current_Directory>
/home/itssahil/PROJECTS/Mol_Feturizer/New_Systems/rnas/3SLQ

>  <Rbt.Executable>
rbdock ($Id: //depot/dev/client3/rdock/2013.1/src/exe/rbdock.cxx#4 $)

>  <Rbt.Library>
libRbt.so (2013.1, Build901 2013/11/27)

>  <Rbt.Parameter_File>
/export/apps/rDock/src/rDock_2013.1_src/data/scripts/dock_solv.prm

>  <Rbt.Receptor>
prm/pocket_docking_3.prm

>  <SCORE>
-23.5158

>  <SCORE.INTER>
-17.4669

>  <SCORE.INTER.CONST>
1

>  <SCORE.INTER.POLAR>
0

>  <SCORE.INTER.ROT>
4

>  <SCORE.INTER.SOLV>
20.554

>  <SCORE.INTER.VDW>
-24.7626

>  <SCORE.INTER.norm>
-0.727787

>  <SCORE.INTRA>
-6.0489

>  <SCORE.INTRA.DIHEDRAL>
-11.8596

>  <SCORE.INTRA.DIHEDRAL.0>
13.2525

>  <SCORE.INTRA.POLAR>
0

>  <SCORE.INTRA.POLAR.0>
0

>  <SCORE.INTRA.REPUL>
0

>  <SCORE.INTRA.REPUL.0>
0

>  <SCORE.INTRA.SOLV>
0.080512

>  <SCORE.INTRA.SOLV.lig_0>
-70.7221

>  <SCORE.INTRA.VDW>
-0.159357

>  <SCORE.INTRA.VDW.0>
-1.46337

>  <SCORE.INTRA.norm>
-0.252038

>  <SCORE.RESTR>
0

>  <SCORE.RESTR.CAVITY>
0

>  <SCORE.RESTR.norm>
0

>  <SCORE.SYSTEM>
0

>  <SCORE.SYSTEM.CONST>
0

>  <SCORE.SYSTEM.DIHEDRAL>
0

>  <SCORE.SYSTEM.SOLV>
0

>  <SCORE.SYSTEM.norm>
0

>  <SCORE.heavy>
24

>  <SCORE.norm>
-0.979825

>  <RMSD>
0.975

$$$$
ligand
 OpenBabel11021811483D
libRbt.so/2013.1/901 2013/11/27
 24 26  0  0  0  0  0  0  0  0999 V2000
   -5.8455   -7.6595   14.8346 P   0  0  1  0  0  0  0  0  0  0  0  0
   -4.3704   -7.3524   14.6889 O   0  0  0  0  0  0  0  0  0  0  0  0
   -6.2164   -9.1174   14.9718 O   0  5  0  0  0  0  0  0  0  0  0  0
   -6.5662   -6.7725   15.8389 O   0  0  0  0  0  0  0  0  0  0  0  0
   -6.3854   -6.0318   12.7435 C   0  0  0  0  0  0  0  0  0  0  0  0
   -6.4573   -7.3253   13.3679 O   0  0  0  0  0  0  0  0  0  0  0  0
   -7.0540   -6.0803   11.3664 C   0  0  1  0  0  0  0  0  0  0  0  0
   -7.0478   -4.7992   10.7239 O   0  0  0  0  0  0  0  0  0  0  0  0
   -6.4105   -7.0380   10.3782 C   0  0  1  0  0  0  0  0  0  0  0  0
   -7.0408   -8.3170   10.4953 O   0  0  0  0  0  0  0  0  0  0  0  0
   -6.6980   -6.3963    9.0307 C   0  0  1  0  0  0  0  0  0  0  0  0
   -8.0200   -6.7323    8.5859 O   0  0  0  0  0  0  0  0  0  0  0  0
   -6.7253   -4.9110    9.3322 C   0  0  2  0  0  0  0  0  0  0  0  0
   -4.3189   -0.4212    9.6598 N   0  0  0  0  0  0  0  0  0  0  0  0
   -5.6270   -0.7105    9.8456 C   0  0  1  0  0  0  0  0  0  0  0  0
   -6.4823    0.2838   10.1748 N   0  0  0  0  0  0  0  0  0  0  0  0
   -6.0868   -1.9759    9.7063 N   0  0  0  0  0  0  0  0  0  0  0  0
   -5.2252   -2.9675    9.3757 C   0  0  1  0  0  0  0  0  0  0  0  0
   -3.8847   -2.7004    9.1784 C   0  0  2  0  0  0  0  0  0  0  0  0
   -3.4377   -1.3928    9.3284 C   0  0  0  0  0  0  0  0  0  0  0  0
   -2.2356   -1.1081    9.1592 O   0  0  0  0  0  0  0  0  0  0  0  0
   -3.2877   -3.8668    8.8592 N   0  0  0  0  0  0  0  0  0  0  0  0
   -4.2369   -4.8317    8.8671 C   0  0  0  0  0  0  0  0  0  0  0  0
   -5.4065   -4.2676    9.1842 N   0  0  1  0  0  0  0  0  0  0  0  0
  1  2  1  1  0  0  0
  1  3  1  0  0  0  0
  1  4  2  0  0  0  0
  1  6  1  0  0  0  0
  5  6  1  0  0  0  0
  7  5  1  1  0  0  0
  7  8  1  0  0  0  0
  7  9  1  0  0  0  0
  9 10  1  6  0  0  0
  9 11  1  0  0  0  0
 11 12  1  1  0  0  0
 11 13  1  0  0  0  0
 13  8  1  1  0  0  0
 13 24  1  0  0  0  0
 14 15  1  0  0  0  0
 14 20  1  0  0  0  0
 15 16  1  6  0  0  0
 15 17  1  0  0  0  0
 18 17  1  1  0  0  0
 18 19  1  0  0  0  0
 18 24  1  0  0  0  0
 19 20  1  6  0  0  0
 19 22  1  0  0  0  0
 20 21  2  0  0  0  0
 22 23  1  0  0  0  0
 24 23  1  1  0  0  0
M  CHG  1   3  -1
M  END
>  <CHROM.1>
-59.73208418,177.98122342,179.64502209,-66.28830133,-5.67470244,-4.95303455
11.12680627,-2.00463847,-1.04554139,-1.04620210

>  <Name>
ligand

>  <RI>
0

>  <Rbt.Current_Directory>
/home/itssahil/PROJECTS/Mol_Feturizer/New_Systems/rnas/3SLQ

>  <Rbt.Executable>
rbdock ($Id: //depot/dev/client3/rdock/2013.1/src/exe/rbdock.cxx#4 $)

>  <Rbt.Library>
libRbt.so (2013.1, Build901 2013/11/27)

>  <Rbt.Parameter_File>
/export/apps/rDock/src/rDock_2013.1_src/data/scripts/dock_solv.prm

>  <Rbt.Receptor>
prm/pocket_docking_3.prm

>  <SCORE>
-22.6225

>  <SCORE.INTER>
-16.3988

>  <SCORE.INTER.CONST>
1

>  <SCORE.INTER.POLAR>
0

>  <SCORE.INTER.ROT>
4

>  <SCORE.INTER.SOLV>
22.2938

>  <SCORE.INTER.VDW>
-24.6304

>  <SCORE.INTER.norm>
-0.683282

>  <SCORE.INTRA>
-6.22951

>  <SCORE.INTRA.DIHEDRAL>
-12.0422

>  <SCORE.INTRA.DIHEDRAL.0>
13.2525

>  <SCORE.INTRA.POLAR>
0

>  <SCORE.INTRA.POLAR.0>
0

>  <SCORE.INTRA.REPUL>
0

>  <SCORE.INTRA.REPUL.0>
0

>  <SCORE.INTRA.SOLV>
0.0325524

>  <SCORE.INTRA.SOLV.lig_0>
-70.7221

>  <SCORE.INTRA.VDW>
-0.224678

>  <SCORE.INTRA.VDW.0>
-1.46337

>  <SCORE.INTRA.norm>
-0.259563

>  <SCORE.RESTR>
0.005785

>  <SCORE.RESTR.CAVITY>
0.005785

>  <SCORE.RESTR.norm>
0.000241042

>  <SCORE.SYSTEM>
0

>  <SCORE.SYSTEM.CONST>
0

>  <SCORE.SYSTEM.DIHEDRAL>
0

>  <SCORE.SYSTEM.SOLV>
0

>  <SCORE.SYSTEM.norm>
0

>  <SCORE.heavy>
24

>  <SCORE.norm>
-0.942603

>  <RMSD>
0.976

$$$$
ligand
 OpenBabel11021811483D
libRbt.so/2013.1/901 2013/11/27
 24 26  0  0  0  0  0  0  0  0999 V2000
   -7.5632   -7.4009   14.4773 P   0  0  1  0  0  0  0  0  0  0  0  0
   -8.2334   -7.2986   15.8308 O   0  0  0  0  0  0  0  0  0  0  0  0
   -6.1573   -7.9532   14.4655 O   0  5  0  0  0  0  0  0  0  0  0  0
   -8.4429   -8.0092   13.3954 O   0  0  0  0  0  0  0  0  0  0  0  0
   -6.4100   -5.4527   12.9979 C   0  0  0  0  0  0  0  0  0  0  0  0
   -7.2876   -5.8548   14.0640 O   0  0  0  0  0  0  0  0  0  0  0  0
   -7.0556   -5.7675   11.6452 C   0  0  1  0  0  0  0  0  0  0  0  0
   -7.1813   -4.5969   10.8278 O   0  0  0  0  0  0  0  0  0  0  0  0
   -6.3025   -6.7797   10.7991 C   0  0  1  0  0  0  0  0  0  0  0  0
   -6.7922   -8.0900   11.0993 O   0  0  0  0  0  0  0  0  0  0  0  0
   -6.6441   -6.3698    9.3759 C   0  0  1  0  0  0  0  0  0  0  0  0
   -7.9175   -6.9065    8.9902 O   0  0  0  0  0  0  0  0  0  0  0  0
   -6.8347   -4.8686    9.4642 C   0  0  2  0  0  0  0  0  0  0  0  0
   -4.8180   -0.1811    9.5958 N   0  0  0  0  0  0  0  0  0  0  0  0
   -6.0791   -0.5821    9.8755 C   0  0  1  0  0  0  0  0  0  0  0  0
   -6.9938    0.3369   10.2591 N   0  0  0  0  0  0  0  0  0  0  0  0
   -6.4338   -1.8846    9.7760 N   0  0  0  0  0  0  0  0  0  0  0  0
   -5.5131   -2.8004    9.3907 C   0  0  1  0  0  0  0  0  0  0  0  0
   -4.2187   -2.4188    9.0973 C   0  0  2  0  0  0  0  0  0  0  0  0
   -3.8797   -1.0753    9.2081 C   0  0  0  0  0  0  0  0  0  0  0  0
   -2.7224   -0.6881    8.9526 O   0  0  0  0  0  0  0  0  0  0  0  0
   -3.5446   -3.5319    8.7430 N   0  0  0  0  0  0  0  0  0  0  0  0
   -4.4017   -4.5764    8.8234 C   0  0  0  0  0  0  0  0  0  0  0  0
   -5.5916   -4.1135    9.2196 N   0  0  1  0  0  0  0  0  0  0  0  0
  1  2  1  1  0  0  0
  1  3  1  0  0  0  0
  1  4  2  0  0  0  0
  1  6  1  0  0  0  0
  5  6  1  0  0  0  0
  7  5  1  1  0  0  0
  7  8  1  0  0  0  0
  7  9  1  0  0  0  0
  9 10  1  1  0  0  0
  9 11  1  0  0  0  0
 11 12  1  1  0  0  0
 11 13  1  0  0  0  0
 13  8  1  1  0  0  0
 13 24  1  0  0  0  0
 14 15  1  0  0  0  0
 14 20  1  0  0  0  0
 15 16  1  6  0  0  0
 15 17  1  0  0  0  0
 18 17  1  1  0  0  0
 18 19  1  0  0  0  0
 18 24  1  0  0  0  0
 19 20  1  6  0  0  0
 19 22  1  0  0  0  0
 20 21  2  0  0  0  0
 22 23  1  0  0  0  0
 24 23  1  1  0  0  0
M  CHG  1   3  -1
M  END
>  <CHROM.1>
165.76841658,122.64942081,72.68204754,-57.49382023,-6.25685661,-4.71498088
11.13314306,2.86265541,-1.20375193,-2.51965199

>  <Name>
ligand

>  <RI>
0

>  <Rbt.Current_Directory>
/home/itssahil/PROJECTS/Mol_Feturizer/New_Systems/rnas/3SLQ

>  <Rbt.Executable>
rbdock ($Id: //depot/dev/client3/rdock/2013.1/src/exe/rbdock.cxx#4 $)

>  <Rbt.Library>
libRbt.so (2013.1, Build901 2013/11/27)

>  <Rbt.Parameter_File>
/export/apps/rDock/src/rDock_2013.1_src/data/scripts/dock_solv.prm

>  <Rbt.Receptor>
prm/pocket_docking_2.prm

>  <SCORE>
-16.9806

>  <SCORE.INTER>
-15.8692

>  <SCORE.INTER.CONST>
1

>  <SCORE.INTER.POLAR>
0

>  <SCORE.INTER.ROT>
4

>  <SCORE.INTER.SOLV>
19.6451

>  <SCORE.INTER.VDW>
-23.3945

>  <SCORE.INTER.norm>
-0.661216

>  <SCORE.INTRA>
-1.19473

>  <SCORE.INTRA.DIHEDRAL>
-5.71488

>  <SCORE.INTRA.DIHEDRAL.0>
13.2525

>  <SCORE.INTRA.POLAR>
0

>  <SCORE.INTRA.POLAR.0>
0

>  <SCORE.INTRA.REPUL>
0

>  <SCORE.INTRA.REPUL.0>
0

>  <SCORE.INTRA.SOLV>
4.81284

>  <SCORE.INTRA.SOLV.lig_0>
-70.7221

>  <SCORE.INTRA.VDW>
-0.743711

>  <SCORE.INTRA.VDW.0>
-1.46337

>  <SCORE.INTRA.norm>
-0.0497805

>  <SCORE.RESTR>
0.0833663

>  <SCORE.RESTR.CAVITY>
0.0833663

>  <SCORE.RESTR.norm>
0.00347359

>  <SCORE.SYSTEM>
0

>  <SCORE.SYSTEM.CONST>
0

>  <SCORE.SYSTEM.DIHEDRAL>
0

>  <SCORE.SYSTEM.SOLV>
0

>  <SCORE.SYSTEM.norm>
0

>  <SCORE.heavy>
24

>  <SCORE.norm>
-0.707523

>  <RMSD>
0.979

$$$$
ligand
 OpenBabel11021811483D
libRbt.so/2013.1/901 2013/11/27
 24 26  0  0  0  0  0  0  0  0999 V2000
   -7.2139   -7.8368   14.3854 P   0  0  1  0  0  0  0  0  0  0  0  0
   -8.3125   -7.9857   13.3546 O   0  0  0  0  0  0  0  0  0  0  0  0
   -7.4909   -6.8887   15.5283 O   0  5  0  0  0  0  0  0  0  0  0  0
   -6.6167   -9.1573   14.8485 O   0  0  0  0  0  0  0  0  0  0  0  0
   -6.2380   -5.7454   12.9757 C   0  0  0  0  0  0  0  0  0  0  0  0
   -6.0477   -7.0296   13.5945 O   0  0  0  0  0  0  0  0  0  0  0  0
   -6.9953   -5.9109   11.6548 C   0  0  1  0  0  0  0  0  0  0  0  0
   -7.1472   -4.6633   10.9660 O   0  0  0  0  0  0  0  0  0  0  0  0
   -6.3414   -6.8528   10.6583 C   0  0  1  0  0  0  0  0  0  0  0  0
   -6.8470   -8.1743   10.8697 O   0  0  0  0  0  0  0  0  0  0  0  0
   -6.7787   -6.2975    9.3127 C   0  0  1  0  0  0  0  0  0  0  0  0
   -8.0941   -6.7638    8.9800 O   0  0  0  0  0  0  0  0  0  0  0  0
   -6.9152   -4.8081    9.5593 C   0  0  2  0  0  0  0  0  0  0  0  0
   -4.8602   -0.1365    9.6575 N   0  0  0  0  0  0  0  0  0  0  0  0
   -6.1182   -0.5284    9.9630 C   0  0  1  0  0  0  0  0  0  0  0  0
   -7.0175    0.3968   10.3677 N   0  0  0  0  0  0  0  0  0  0  0  0
   -6.4849   -1.8279    9.8685 N   0  0  0  0  0  0  0  0  0  0  0  0
   -5.5796   -2.7499    9.4620 C   0  0  1  0  0  0  0  0  0  0  0  0
   -4.2888   -2.3776    9.1421 C   0  0  2  0  0  0  0  0  0  0  0  0
   -3.9372   -1.0370    9.2483 C   0  0  0  0  0  0  0  0  0  0  0  0
   -2.7826   -0.6581    8.9691 O   0  0  0  0  0  0  0  0  0  0  0  0
   -3.6309   -3.4951    8.7713 N   0  0  0  0  0  0  0  0  0  0  0  0
   -4.4941   -4.5331    8.8678 C   0  0  0  0  0  0  0  0  0  0  0  0
   -5.6718   -4.0620    9.2900 N   0  0  1  0  0  0  0  0  0  0  0  0
  1  2  1  6  0  0  0
  1  3  1  0  0  0  0
  1  4  2  0  0  0  0
  1  6  1  0  0  0  0
  5  6  1  0  0  0  0
  7  5  1  1  0  0  0
  7  8  1  0  0  0  0
  7  9  1  0  0  0  0
  9 10  1  1  0  0  0
  9 11  1  0  0  0  0
 11 12  1  1  0  0  0
 11 13  1  0  0  0  0
 13  8  1  1  0  0  0
 13 24  1  0  0  0  0
 14 15  1  0  0  0  0
 14 20  1  0  0  0  0
 15 16  1  6  0  0  0
 15 17  1  0  0  0  0
 18 17  1  1  0  0  0
 18 19  1  0  0  0  0
 18 24  1  0  0  0  0
 19 20  1  6  0  0  0
 19 22  1  0  0  0  0
 20 21  2  0  0  0  0
 22 23  1  0  0  0  0
 24 23  1  1  0  0  0
M  CHG  1   3  -1
M  END
>  <CHROM.1>
57.37707478,-176.93184541,-76.76384690,-63.95690952,-6.18600605,-4.83676945
11.12142895,-3.08672678,-1.28035584,-2.10862393

>  <Name>
ligand

>  <RI>
0

>  <Rbt.Current_Directory>
/home/itssahil/PROJECTS/Mol_Feturizer/New_Systems/rnas/3SLQ

>  <Rbt.Executable>
rbdock ($Id: //depot/dev/client3/rdock/2013.1/src/exe/rbdock.cxx#4 $)

>  <Rbt.Library>
libRbt.so (2013.1, Build901 2013/11/27)

>  <Rbt.Parameter_File>
/export/apps/rDock/src/rDock_2013.1_src/data/scripts/dock_solv.prm

>  <Rbt.Receptor>
prm/pocket_docking_2.prm

>  <SCORE>
-18.7414

>  <SCORE.INTER>
-13.4974

>  <SCORE.INTER.CONST>
1

>  <SCORE.INTER.POLAR>
0

>  <SCORE.INTER.ROT>
4

>  <SCORE.INTER.SOLV>
21.5856

>  <SCORE.INTER.VDW>
-22.4602

>  <SCORE.INTER.norm>
-0.562393

>  <SCORE.INTRA>
-5.27062

>  <SCORE.INTRA.DIHEDRAL>
-10.7114

>  <SCORE.INTRA.DIHEDRAL.0>
13.2525

>  <SCORE.INTRA.POLAR>
0

>  <SCORE.INTRA.POLAR.0>
0

>  <SCORE.INTRA.REPUL>
0

>  <SCORE.INTRA.REPUL.0>
0

>  <SCORE.INTRA.SOLV>
1.53948

>  <SCORE.INTRA.SOLV.lig_0>
-70.7221

>  <SCORE.INTRA.VDW>
-0.684681

>  <SCORE.INTRA.VDW.0>
-1.46337

>  <SCORE.INTRA.norm>
-0.219609

>  <SCORE.RESTR>
0.0266602

>  <SCORE.RESTR.CAVITY>
0.0266602

>  <SCORE.RESTR.norm>
0.00111084

>  <SCORE.SYSTEM>
0

>  <SCORE.SYSTEM.CONST>
0

>  <SCORE.SYSTEM.DIHEDRAL>
0

>  <SCORE.SYSTEM.SOLV>
0

>  <SCORE.SYSTEM.norm>
0

>  <SCORE.heavy>
24

>  <SCORE.norm>
-0.780892

>  <RMSD>
0.980

$$$$
ligand
 OpenBabel11021811483D
libRbt.so/2013.1/901 2013/11/27
 24 26  0  0  0  0  0  0  0  0999 V2000
   -5.8959   -7.6564   14.8412 P   0  0  1  0  0  0  0  0  0  0  0  0
   -4.4063   -7.4151   14.7213 O   0  0  0  0  0  0  0  0  0  0  0  0
   -6.3310   -9.0935   15.0060 O   0  5  0  0  0  0  0  0  0  0  0  0
   -6.5997   -6.7146   15.8067 O   0  0  0  0  0  0  0  0  0  0  0  0
   -6.3496   -6.0525   12.7116 C   0  0  0  0  0  0  0  0  0  0  0  0
   -6.4613   -7.3347   13.3532 O   0  0  0  0  0  0  0  0  0  0  0  0
   -7.0123   -6.1012   11.3317 C   0  0  1  0  0  0  0  0  0  0  0  0
   -7.0174   -4.8168   10.6957 O   0  0  0  0  0  0  0  0  0  0  0  0
   -6.3546   -7.0468   10.3412 C   0  0  1  0  0  0  0  0  0  0  0  0
   -6.9715   -8.3331   10.4493 O   0  0  0  0  0  0  0  0  0  0  0  0
   -6.6437   -6.4014    8.9958 C   0  0  1  0  0  0  0  0  0  0  0  0
   -7.9602   -6.7493    8.5441 O   0  0  0  0  0  0  0  0  0  0  0  0
   -6.6882   -4.9180    9.3047 C   0  0  2  0  0  0  0  0  0  0  0  0
   -4.3295   -0.4063    9.6755 N   0  0  0  0  0  0  0  0  0  0  0  0
   -5.6349   -0.7108    9.8558 C   0  0  1  0  0  0  0  0  0  0  0  0
   -6.5013    0.2718   10.1913 N   0  0  0  0  0  0  0  0  0  0  0  0
   -6.0812   -1.9797    9.7048 N   0  0  0  0  0  0  0  0  0  0  0  0
   -5.2086   -2.9594    9.3681 C   0  0  1  0  0  0  0  0  0  0  0  0
   -3.8705   -2.6767    9.1762 C   0  0  2  0  0  0  0  0  0  0  0  0
   -3.4375   -1.3659    9.3382 C   0  0  0  0  0  0  0  0  0  0  0  0
   -2.2380   -1.0673    9.1743 O   0  0  0  0  0  0  0  0  0  0  0  0
   -3.2606   -3.8342    8.8486 N   0  0  0  0  0  0  0  0  0  0  0  0
   -4.1996   -4.8089    8.8462 C   0  0  0  0  0  0  0  0  0  0  0  0
   -5.3759   -4.2597    9.1652 N   0  0  1  0  0  0  0  0  0  0  0  0
  1  2  1  1  0  0  0
  1  3  1  0  0  0  0
  1  4  2  0  0  0  0
  1  6  1  0  0  0  0
  5  6  1  0  0  0  0
  7  5  1  1  0  0  0
  7  8  1  0  0  0  0
  7  9  1  0  0  0  0
  9 10  1  6  0  0  0
  9 11  1  0  0  0  0
 11 12  1  1  0  0  0
 11 13  1  0  0  0  0
 13  8  1  1  0  0  0
 13 24  1  0  0  0  0
 14 15  1  0  0  0  0
 14 20  1  0  0  0  0
 15 16  1  6  0  0  0
 15 17  1  0  0  0  0
 18 17  1  1  0  0  0
 18 19  1  0  0  0  0
 18 24  1  0  0  0  0
 19 20  1  6  0  0  0
 19 22  1  0  0  0  0
 20 21  2  0  0  0  0
 22 23  1  0  0  0  0
 24 23  1  1  0  0  0
M  CHG  1   3  -1
M  END
>  <CHROM.1>
-61.29392905,175.50024877,-178.93490357,-66.07671336,-5.66878180,-4.95079978
11.11723614,-2.03984920,-1.07496408,-1.08386506

>  <Name>
ligand

>  <RI>
0

>  <Rbt.Current_Directory>
/home/itssahil/PROJECTS/Mol_Feturizer/New_Systems/rnas/3SLQ

>  <Rbt.Executable>
rbdock ($Id: //depot/dev/client3/rdock/2013.1/src/exe/rbdock.cxx#4 $)

>  <Rbt.Library>
libRbt.so (2013.1, Build901 2013/11/27)

>  <Rbt.Parameter_File>
/export/apps/rDock/src/rDock_2013.1_src/data/scripts/dock_solv.prm

>  <Rbt.Receptor>
prm/pocket_docking_3.prm

>  <SCORE>
-22.6661

>  <SCORE.INTER>
-16.459

>  <SCORE.INTER.CONST>
1

>  <SCORE.INTER.POLAR>
0

>  <SCORE.INTER.ROT>
4

>  <SCORE.INTER.SOLV>
22.4553

>  <SCORE.INTER.VDW>
-24.7244

>  <SCORE.INTER.norm>
-0.685792

>  <SCORE.INTRA>
-6.20713

>  <SCORE.INTRA.DIHEDRAL>
-11.9762

>  <SCORE.INTRA.DIHEDRAL.0>
13.2525

>  <SCORE.INTRA.POLAR>
0

>  <SCORE.INTRA.POLAR.0>
0

>  <SCORE.INTRA.REPUL>
0

>  <SCORE.INTRA.REPUL.0>
0

>  <SCORE.INTRA.SOLV>
0.032948

>  <SCORE.INTRA.SOLV.lig_0>
-70.7221

>  <SCORE.INTRA.VDW>
-0.235503

>  <SCORE.INTRA.VDW.0>
-1.46337

>  <SCORE.INTRA.norm>
-0.25863

>  <SCORE.RESTR>
0

>  <SCORE.RESTR.CAVITY>
0

>  <SCORE.RESTR.norm>
0

>  <SCORE.SYSTEM>
0

>  <SCORE.SYSTEM.CONST>
0

>  <SCORE.SYSTEM.DIHEDRAL>
0

>  <SCORE.SYSTEM.SOLV>
0

>  <SCORE.SYSTEM.norm>
0

>  <SCORE.heavy>
24

>  <SCORE.norm>
-0.944423

>  <RMSD>
0.980

$$$$
ligand
 OpenBabel11021811483D
libRbt.so/2013.1/901 2013/11/27
 24 26  0  0  0  0  0  0  0  0999 V2000
   -6.8440   -7.6029   14.8636 P   0  0  1  0  0  0  0  0  0  0  0  0
   -7.9083   -6.9823   15.7432 O   0  0  0  0  0  0  0  0  0  0  0  0
   -5.4502   -7.0361   14.9965 O   0  5  0  0  0  0  0  0  0  0  0  0
   -6.8613   -9.1241   14.8508 O   0  0  0  0  0  0  0  0  0  0  0  0
   -6.4101   -7.3086   12.2105 C   0  0  0  0  0  0  0  0  0  0  0  0
   -7.2363   -7.1022   13.3694 O   0  0  0  0  0  0  0  0  0  0  0  0
   -7.2171   -7.0293   10.9391 C   0  0  1  0  0  0  0  0  0  0  0  0
   -7.3143   -5.6259   10.6654 O   0  0  0  0  0  0  0  0  0  0  0  0
   -6.6533   -7.6558    9.6752 C   0  0  1  0  0  0  0  0  0  0  0  0
   -7.2315   -8.9531    9.5037 O   0  0  0  0  0  0  0  0  0  0  0  0
   -7.0979   -6.6985    8.5815 C   0  0  1  0  0  0  0  0  0  0  0  0
   -8.4490   -6.9777    8.1879 O   0  0  0  0  0  0  0  0  0  0  0  0
   -7.1357   -5.3490    9.2708 C   0  0  2  0  0  0  0  0  0  0  0  0
   -5.0340   -0.7285    9.8102 N   0  0  0  0  0  0  0  0  0  0  0  0
   -6.3246   -1.1073    9.9525 C   0  0  1  0  0  0  0  0  0  0  0  0
   -7.2502   -0.1820   10.2925 N   0  0  0  0  0  0  0  0  0  0  0  0
   -6.6980   -2.3939    9.7591 N   0  0  0  0  0  0  0  0  0  0  0  0
   -5.7663   -3.3161    9.4180 C   0  0  1  0  0  0  0  0  0  0  0  0
   -4.4417   -2.9570    9.2644 C   0  0  2  0  0  0  0  0  0  0  0  0
   -4.0841   -1.6295    9.4694 C   0  0  0  0  0  0  0  0  0  0  0  0
   -2.8993   -1.2627    9.3410 O   0  0  0  0  0  0  0  0  0  0  0  0
   -3.7629   -4.0709    8.9219 N   0  0  0  0  0  0  0  0  0  0  0  0
   -4.6473   -5.0943    8.8731 C   0  0  0  0  0  0  0  0  0  0  0  0
   -5.8583   -4.6176    9.1785 N   0  0  1  0  0  0  0  0  0  0  0  0
  1  2  1  1  0  0  0
  1  3  1  0  0  0  0
  1  4  2  0  0  0  0
  1  6  1  0  0  0  0
  5  6  1  0  0  0  0
  7  5  1  1  0  0  0
  7  8  1  0  0  0  0
  7  9  1  0  0  0  0
  9 10  1  6  0  0  0
  9 11  1  0  0  0  0
 11 12  1  1  0  0  0
 11 13  1  0  0  0  0
 13  8  1  1  0  0  0
 13 24  1  0  0  0  0
 14 15  1  0  0  0  0
 14 20  1  0  0  0  0
 15 16  1  6  0  0  0
 15 17  1  0  0  0  0
 18 17  1  1  0  0  0
 18 19  1  0  0  0  0
 18 24  1  0  0  0  0
 19 20  1  6  0  0  0
 19 22  1  0  0  0  0
 20 21  2  0  0  0  0
 22 23  1  0  0  0  0
 24 23  1  1  0  0  0
M  CHG  1   3  -1
M  END
>  <CHROM.1>
172.02576686,79.94246898,166.14209207,-81.59214641,-6.26604004,-5.27205301
11.02309271,-2.38334476,-1.22211053,-1.44889107

>  <Name>
ligand

>  <RI>
0

>  <Rbt.Current_Directory>
/home/itssahil/PROJECTS/Mol_Feturizer/New_Systems/rnas/3SLQ

>  <Rbt.Executable>
rbdock ($Id: //depot/dev/client3/rdock/2013.1/src/exe/rbdock.cxx#4 $)

>  <Rbt.Library>
libRbt.so (2013.1, Build901 2013/11/27)

>  <Rbt.Parameter_File>
/export/apps/rDock/src/rDock_2013.1_src/data/scripts/dock_solv.prm

>  <Rbt.Receptor>
prm/pocket_docking_2.prm

>  <SCORE>
-16.7736

>  <SCORE.INTER>
-12.0226

>  <SCORE.INTER.CONST>
1

>  <SCORE.INTER.POLAR>
0

>  <SCORE.INTER.ROT>
4

>  <SCORE.INTER.SOLV>
21.6758

>  <SCORE.INTER.VDW>
-21.507

>  <SCORE.INTER.norm>
-0.500942

>  <SCORE.INTRA>
-4.75168

>  <SCORE.INTRA.DIHEDRAL>
-9.75113

>  <SCORE.INTRA.DIHEDRAL.0>
13.2525

>  <SCORE.INTRA.POLAR>
0

>  <SCORE.INTRA.POLAR.0>
0

>  <SCORE.INTRA.REPUL>
0

>  <SCORE.INTRA.REPUL.0>
0

>  <SCORE.INTRA.SOLV>
0.460426

>  <SCORE.INTRA.SOLV.lig_0>
-70.7221

>  <SCORE.INTRA.VDW>
-0.106329

>  <SCORE.INTRA.VDW.0>
-1.46337

>  <SCORE.INTRA.norm>
-0.197987

>  <SCORE.RESTR>
0.000658718

>  <SCORE.RESTR.CAVITY>
0.000658718

>  <SCORE.RESTR.norm>
2.74466e-05

>  <SCORE.SYSTEM>
0

>  <SCORE.SYSTEM.CONST>
0

>  <SCORE.SYSTEM.DIHEDRAL>
0

>  <SCORE.SYSTEM.SOLV>
0

>  <SCORE.SYSTEM.norm>
0

>  <SCORE.heavy>
24

>  <SCORE.norm>
-0.698901

>  <RMSD>
0.983

$$$$
ligand
 OpenBabel11021811483D
libRbt.so/2013.1/901 2013/11/27
 24 26  0  0  0  0  0  0  0  0999 V2000
   -6.8336   -7.5874   14.8539 P   0  0  1  0  0  0  0  0  0  0  0  0
   -7.8964   -6.9648   15.7338 O   0  0  0  0  0  0  0  0  0  0  0  0
   -5.4358   -7.0328   14.9965 O   0  5  0  0  0  0  0  0  0  0  0  0
   -6.8629   -9.1084   14.8298 O   0  0  0  0  0  0  0  0  0  0  0  0
   -6.4054   -7.3109   12.1980 C   0  0  0  0  0  0  0  0  0  0  0  0
   -7.2158   -7.0726   13.3619 O   0  0  0  0  0  0  0  0  0  0  0  0
   -7.2191   -7.0316   10.9308 C   0  0  1  0  0  0  0  0  0  0  0  0
   -7.3193   -5.6281   10.6586 O   0  0  0  0  0  0  0  0  0  0  0  0
   -6.6609   -7.6565    9.6637 C   0  0  1  0  0  0  0  0  0  0  0  0
   -7.2384   -8.9544    9.4941 O   0  0  0  0  0  0  0  0  0  0  0  0
   -7.1121   -6.6990    8.5729 C   0  0  1  0  0  0  0  0  0  0  0  0
   -8.4648   -6.9795    8.1858 O   0  0  0  0  0  0  0  0  0  0  0  0
   -7.1480   -5.3500    9.2633 C   0  0  2  0  0  0  0  0  0  0  0  0
   -5.0417   -0.7352    9.8323 N   0  0  0  0  0  0  0  0  0  0  0  0
   -6.3306   -1.1161    9.9846 C   0  0  1  0  0  0  0  0  0  0  0  0
   -7.2525   -0.1951   10.3455 N   0  0  0  0  0  0  0  0  0  0  0  0
   -6.7057   -2.4006    9.7806 N   0  0  0  0  0  0  0  0  0  0  0  0
   -5.7776   -3.3184    9.4185 C   0  0  1  0  0  0  0  0  0  0  0  0
   -4.4549   -2.9570    9.2543 C   0  0  2  0  0  0  0  0  0  0  0  0
   -4.0954   -1.6318    9.4706 C   0  0  0  0  0  0  0  0  0  0  0  0
   -2.9123   -1.2630    9.3331 O   0  0  0  0  0  0  0  0  0  0  0  0
   -3.7796   -4.0666    8.8915 N   0  0  0  0  0  0  0  0  0  0  0  0
   -4.6643   -5.0897    8.8408 C   0  0  0  0  0  0  0  0  0  0  0  0
   -5.8719   -4.6171    9.1652 N   0  0  1  0  0  0  0  0  0  0  0  0
  1  2  1  1  0  0  0
  1  3  1  0  0  0  0
  1  4  2  0  0  0  0
  1  6  1  0  0  0  0
  5  6  1  0  0  0  0
  7  5  1  1  0  0  0
  7  8  1  0  0  0  0
  7  9  1  0  0  0  0
  9 10  1  6  0  0  0
  9 11  1  0  0  0  0
 11 12  1  1  0  0  0
 11 13  1  0  0  0  0
 13  8  1  1  0  0  0
 13 24  1  0  0  0  0
 14 15  1  0  0  0  0
 14 20  1  0  0  0  0
 15 16  1  6  0  0  0
 15 17  1  0  0  0  0
 18 17  1  1  0  0  0
 18 19  1  0  0  0  0
 18 24  1  0  0  0  0
 19 20  1  6  0  0  0
 19 22  1  0  0  0  0
 20 21  2  0  0  0  0
 22 23  1  0  0  0  0
 24 23  1  1  0  0  0
M  CHG  1   3  -1
M  END
>  <CHROM.1>
173.91187135,78.45221370,164.87532502,-80.87848929,-6.26991634,-5.26938505
11.01932032,-2.38375199,-1.22332597,-1.44921912

>  <Name>
ligand

>  <RI>
0

>  <Rbt.Current_Directory>
/home/itssahil/PROJECTS/Mol_Feturizer/New_Systems/rnas/3SLQ

>  <Rbt.Executable>
rbdock ($Id: //depot/dev/client3/rdock/2013.1/src/exe/rbdock.cxx#4 $)

>  <Rbt.Library>
libRbt.so (2013.1, Build901 2013/11/27)

>  <Rbt.Parameter_File>
/export/apps/rDock/src/rDock_2013.1_src/data/scripts/dock_solv.prm

>  <Rbt.Receptor>
prm/pocket_docking_2.prm

>  <SCORE>
-16.7701

>  <SCORE.INTER>
-11.98

>  <SCORE.INTER.CONST>
1

>  <SCORE.INTER.POLAR>
0

>  <SCORE.INTER.ROT>
4

>  <SCORE.INTER.SOLV>
21.6303

>  <SCORE.INTER.VDW>
-21.4634

>  <SCORE.INTER.norm>
-0.499165

>  <SCORE.INTRA>
-4.79013

>  <SCORE.INTRA.DIHEDRAL>
-9.80247

>  <SCORE.INTRA.DIHEDRAL.0>
13.2525

>  <SCORE.INTRA.POLAR>
0

>  <SCORE.INTRA.POLAR.0>
0

>  <SCORE.INTRA.REPUL>
0

>  <SCORE.INTRA.REPUL.0>
0

>  <SCORE.INTRA.SOLV>
0.465326

>  <SCORE.INTRA.SOLV.lig_0>
-70.7221

>  <SCORE.INTRA.VDW>
-0.121559

>  <SCORE.INTRA.VDW.0>
-1.46337

>  <SCORE.INTRA.norm>
-0.199589

>  <SCORE.RESTR>
0

>  <SCORE.RESTR.CAVITY>
0

>  <SCORE.RESTR.norm>
0

>  <SCORE.SYSTEM>
0

>  <SCORE.SYSTEM.CONST>
0

>  <SCORE.SYSTEM.DIHEDRAL>
0

>  <SCORE.SYSTEM.SOLV>
0

>  <SCORE.SYSTEM.norm>
0

>  <SCORE.heavy>
24

>  <SCORE.norm>
-0.698754

>  <RMSD>
0.985

$$$$
ligand
 OpenBabel11021811483D
libRbt.so/2013.1/901 2013/11/27
 24 26  0  0  0  0  0  0  0  0999 V2000
   -5.8510   -8.5828   14.8963 P   0  0  1  0  0  0  0  0  0  0  0  0
   -5.4905   -7.6143   16.0025 O   0  0  0  0  0  0  0  0  0  0  0  0
   -5.3670  -10.0037   15.0654 O   0  5  0  0  0  0  0  0  0  0  0  0
   -7.3051   -8.5056   14.4555 O   0  0  0  0  0  0  0  0  0  0  0  0
   -4.9622   -6.7638   13.1033 C   0  0  0  0  0  0  0  0  0  0  0  0
   -4.9393   -8.0965   13.6435 O   0  0  0  0  0  0  0  0  0  0  0  0
   -6.1918   -6.5860   12.2077 C   0  0  1  0  0  0  0  0  0  0  0  0
   -6.3684   -5.2212   11.8073 O   0  0  0  0  0  0  0  0  0  0  0  0
   -6.1648   -7.3912   10.9198 C   0  0  1  0  0  0  0  0  0  0  0  0
   -6.7814   -8.6607   11.1544 O   0  0  0  0  0  0  0  0  0  0  0  0
   -6.9827   -6.5433    9.9595 C   0  0  1  0  0  0  0  0  0  0  0  0
   -8.3849   -6.7813   10.1482 O   0  0  0  0  0  0  0  0  0  0  0  0
   -6.7354   -5.1223   10.4256 C   0  0  2  0  0  0  0  0  0  0  0  0
   -4.6631   -0.5984    9.2871 N   0  0  0  0  0  0  0  0  0  0  0  0
   -5.8183   -0.8761    9.9335 C   0  0  1  0  0  0  0  0  0  0  0  0
   -6.5870    0.1436   10.3782 N   0  0  0  0  0  0  0  0  0  0  0  0
   -6.2114   -2.1550   10.1385 N   0  0  0  0  0  0  0  0  0  0  0  0
   -5.4373   -3.1721    9.6901 C   0  0  1  0  0  0  0  0  0  0  0  0
   -4.2537   -2.9176    9.0256 C   0  0  2  0  0  0  0  0  0  0  0  0
   -3.8721   -1.5957    8.8286 C   0  0  0  0  0  0  0  0  0  0  0  0
   -2.8113   -1.3216    8.2334 O   0  0  0  0  0  0  0  0  0  0  0  0
   -3.7139   -4.1100    8.7002 N   0  0  0  0  0  0  0  0  0  0  0  0
   -4.5417   -5.0769    9.1603 C   0  0  0  0  0  0  0  0  0  0  0  0
   -5.5819   -4.4889    9.7597 N   0  0  1  0  0  0  0  0  0  0  0  0
  1  2  1  1  0  0  0
  1  3  1  0  0  0  0
  1  4  2  0  0  0  0
  1  6  1  0  0  0  0
  5  6  1  0  0  0  0
  7  5  1  6  0  0  0
  7  8  1  0  0  0  0
  7  9  1  0  0  0  0
  9 10  1  1  0  0  0
  9 11  1  0  0  0  0
 11 12  1  1  0  0  0
 11 13  1  0  0  0  0
 13  8  1  1  0  0  0
 13 24  1  0  0  0  0
 14 15  1  0  0  0  0
 14 20  1  0  0  0  0
 15 16  1  6  0  0  0
 15 17  1  0  0  0  0
 18 17  1  1  0  0  0
 18 19  1  0  0  0  0
 18 24  1  0  0  0  0
 19 20  1  6  0  0  0
 19 22  1  0  0  0  0
 20 21  2  0  0  0  0
 22 23  1  0  0  0  0
 24 23  1  1  0  0  0
M  CHG  1   3  -1
M  END
>  <CHROM.1>
-56.23857155,171.27734855,-78.56400776,-86.44616589,-5.66379800,-5.39086085
11.42013046,-1.87478195,-1.07638729,-0.90717094

>  <Name>
ligand

>  <RI>
0

>  <Rbt.Current_Directory>
/home/itssahil/PROJECTS/Mol_Feturizer/New_Systems/rnas/3SLQ

>  <Rbt.Executable>
rbdock ($Id: //depot/dev/client3/rdock/2013.1/src/exe/rbdock.cxx#4 $)

>  <Rbt.Library>
libRbt.so (2013.1, Build901 2013/11/27)

>  <Rbt.Parameter_File>
/export/apps/rDock/src/rDock_2013.1_src/data/scripts/dock_solv.prm

>  <Rbt.Receptor>
prm/pocket_docking_3.prm

>  <SCORE>
-18.2643

>  <SCORE.INTER>
-13.5768

>  <SCORE.INTER.CONST>
1

>  <SCORE.INTER.POLAR>
0

>  <SCORE.INTER.ROT>
4

>  <SCORE.INTER.SOLV>
16.3713

>  <SCORE.INTER.VDW>
-20.7749

>  <SCORE.INTER.norm>
-0.565698

>  <SCORE.INTRA>
-4.68756

>  <SCORE.INTRA.DIHEDRAL>
-10.2046

>  <SCORE.INTRA.DIHEDRAL.0>
13.2525

>  <SCORE.INTRA.POLAR>
0

>  <SCORE.INTRA.POLAR.0>
0

>  <SCORE.INTRA.REPUL>
0

>  <SCORE.INTRA.REPUL.0>
0

>  <SCORE.INTRA.SOLV>
2.48955

>  <SCORE.INTRA.SOLV.lig_0>
-70.7221

>  <SCORE.INTRA.VDW>
-0.830049

>  <SCORE.INTRA.VDW.0>
-1.46337

>  <SCORE.INTRA.norm>
-0.195315

>  <SCORE.RESTR>
0

>  <SCORE.RESTR.CAVITY>
0

>  <SCORE.RESTR.norm>
0

>  <SCORE.SYSTEM>
0

>  <SCORE.SYSTEM.CONST>
0

>  <SCORE.SYSTEM.DIHEDRAL>
0

>  <SCORE.SYSTEM.SOLV>
0

>  <SCORE.SYSTEM.norm>
0

>  <SCORE.heavy>
24

>  <SCORE.norm>
-0.761013

>  <RMSD>
1.008

$$$$
ligand
 OpenBabel11021811483D
libRbt.so/2013.1/901 2013/11/27
 24 26  0  0  0  0  0  0  0  0999 V2000
   -5.9024   -7.5634   14.8954 P   0  0  1  0  0  0  0  0  0  0  0  0
   -4.4002   -7.3832   14.8452 O   0  0  0  0  0  0  0  0  0  0  0  0
   -6.4128   -8.9786   14.7588 O   0  5  0  0  0  0  0  0  0  0  0  0
   -6.5799   -6.8004   16.0238 O   0  0  0  0  0  0  0  0  0  0  0  0
   -5.8579   -7.2359   12.2113 C   0  0  0  0  0  0  0  0  0  0  0  0
   -6.4168   -6.9168   13.4973 O   0  0  0  0  0  0  0  0  0  0  0  0
   -6.8197   -6.7988   11.1024 C   0  0  1  0  0  0  0  0  0  0  0  0
   -6.8172   -5.3769   10.9226 O   0  0  0  0  0  0  0  0  0  0  0  0
   -6.5236   -7.3861    9.7330 C   0  0  1  0  0  0  0  0  0  0  0  0
   -7.2482   -8.6111    9.5880 O   0  0  0  0  0  0  0  0  0  0  0  0
   -7.0339   -6.3202    8.7771 C   0  0  1  0  0  0  0  0  0  0  0  0
   -8.4507   -6.4487    8.5911 O   0  0  0  0  0  0  0  0  0  0  0  0
   -6.8296   -5.0229    9.5340 C   0  0  2  0  0  0  0  0  0  0  0  0
   -4.3277   -0.5743    9.6171 N   0  0  0  0  0  0  0  0  0  0  0  0
   -5.6225   -0.8375    9.9065 C   0  0  1  0  0  0  0  0  0  0  0  0
   -6.4326    0.1761   10.2873 N   0  0  0  0  0  0  0  0  0  0  0  0
   -6.1135   -2.0958    9.8195 N   0  0  0  0  0  0  0  0  0  0  0  0
   -5.2972   -3.1068    9.4369 C   0  0  1  0  0  0  0  0  0  0  0  0
   -3.9714   -2.8665    9.1338 C   0  0  2  0  0  0  0  0  0  0  0  0
   -3.4916   -1.5657    9.2319 C   0  0  0  0  0  0  0  0  0  0  0  0
   -2.3013   -1.3050    8.9673 O   0  0  0  0  0  0  0  0  0  0  0  0
   -3.4210   -4.0474    8.7851 N   0  0  0  0  0  0  0  0  0  0  0  0
   -4.3832   -4.9946    8.8784 C   0  0  0  0  0  0  0  0  0  0  0  0
   -5.5151   -4.4055    9.2769 N   0  0  1  0  0  0  0  0  0  0  0  0
  1  2  1  1  0  0  0
  1  3  1  0  0  0  0
  1  4  2  0  0  0  0
  1  6  1  0  0  0  0
  5  6  1  0  0  0  0
  7  5  1  1  0  0  0
  7  8  1  0  0  0  0
  7  9  1  0  0  0  0
  9 10  1  6  0  0  0
  9 11  1  0  0  0  0
 11 12  1  1  0  0  0
 11 13  1  0  0  0  0
 13  8  1  1  0  0  0
 13 24  1  0  0  0  0
 14 15  1  0  0  0  0
 14 20  1  0  0  0  0
 15 16  1  6  0  0  0
 15 17  1  0  0  0  0
 18 17  1  1  0  0  0
 18 19  1  0  0  0  0
 18 24  1  0  0  0  0
 19 20  1  6  0  0  0
 19 22  1  0  0  0  0
 20 21  2  0  0  0  0
 22 23  1  0  0  0  0
 24 23  1  1  0  0  0
M  CHG  1   3  -1
M  END
>  <CHROM.1>
49.60895502,74.44528450,162.97655192,-88.72806171,-5.72178284,-5.09951752
11.05483070,-2.02948274,-1.07195038,-1.08436142

>  <Name>
ligand

>  <RI>
0

>  <Rbt.Current_Directory>
/home/itssahil/PROJECTS/Mol_Feturizer/New_Systems/rnas/3SLQ

>  <Rbt.Executable>
rbdock ($Id: //depot/dev/client3/rdock/2013.1/src/exe/rbdock.cxx#4 $)

>  <Rbt.Library>
libRbt.so (2013.1, Build901 2013/11/27)

>  <Rbt.Parameter_File>
/export/apps/rDock/src/rDock_2013.1_src/data/scripts/dock_solv.prm

>  <Rbt.Receptor>
prm/pocket_docking_3.prm

>  <SCORE>
-19.9664

>  <SCORE.INTER>
-14.8219

>  <SCORE.INTER.CONST>
1

>  <SCORE.INTER.POLAR>
0

>  <SCORE.INTER.ROT>
4

>  <SCORE.INTER.SOLV>
22.8213

>  <SCORE.INTER.VDW>
-23.7551

>  <SCORE.INTER.norm>
-0.61758

>  <SCORE.INTRA>
-5.14442

>  <SCORE.INTRA.DIHEDRAL>
-9.84492

>  <SCORE.INTRA.DIHEDRAL.0>
13.2525

>  <SCORE.INTRA.POLAR>
0

>  <SCORE.INTRA.POLAR.0>
0

>  <SCORE.INTRA.REPUL>
0

>  <SCORE.INTRA.REPUL.0>
0

>  <SCORE.INTRA.SOLV>
-0.0751701

>  <SCORE.INTRA.SOLV.lig_0>
-70.7221

>  <SCORE.INTRA.VDW>
-0.184381

>  <SCORE.INTRA.VDW.0>
-1.46337

>  <SCORE.INTRA.norm>
-0.214351

>  <SCORE.RESTR>
0

>  <SCORE.RESTR.CAVITY>
0

>  <SCORE.RESTR.norm>
0

>  <SCORE.SYSTEM>
0

>  <SCORE.SYSTEM.CONST>
0

>  <SCORE.SYSTEM.DIHEDRAL>
0

>  <SCORE.SYSTEM.SOLV>
0

>  <SCORE.SYSTEM.norm>
0

>  <SCORE.heavy>
24

>  <SCORE.norm>
-0.831931

>  <RMSD>
1.009

$$$$
ligand
 OpenBabel11021811483D
libRbt.so/2013.1/901 2013/11/27
 24 26  0  0  0  0  0  0  0  0999 V2000
   -5.8682   -7.5195   14.8439 P   0  0  1  0  0  0  0  0  0  0  0  0
   -6.5092   -6.6543   15.9079 O   0  0  0  0  0  0  0  0  0  0  0  0
   -4.3777   -7.3593   14.6579 O   0  5  0  0  0  0  0  0  0  0  0  0
   -6.3019   -8.9771   14.8871 O   0  0  0  0  0  0  0  0  0  0  0  0
   -5.9546   -7.2932   12.1504 C   0  0  0  0  0  0  0  0  0  0  0  0
   -6.4191   -6.8921   13.4510 O   0  0  0  0  0  0  0  0  0  0  0  0
   -6.9213   -6.7903   11.0742 C   0  0  1  0  0  0  0  0  0  0  0  0
   -6.8792   -5.3637   10.9424 O   0  0  0  0  0  0  0  0  0  0  0  0
   -6.6660   -7.3387    9.6807 C   0  0  1  0  0  0  0  0  0  0  0  0
   -7.4292   -8.5362    9.5072 O   0  0  0  0  0  0  0  0  0  0  0  0
   -7.1601   -6.2262    8.7705 C   0  0  1  0  0  0  0  0  0  0  0  0
   -8.5830   -6.3065    8.6055 O   0  0  0  0  0  0  0  0  0  0  0  0
   -6.9043   -4.9621    9.5671 C   0  0  2  0  0  0  0  0  0  0  0  0
   -4.3395   -0.5492    9.4982 N   0  0  0  0  0  0  0  0  0  0  0  0
   -5.6431   -0.7812    9.7745 C   0  0  1  0  0  0  0  0  0  0  0  0
   -6.4451    0.2596   10.0939 N   0  0  0  0  0  0  0  0  0  0  0  0
   -6.1508   -2.0353    9.7346 N   0  0  0  0  0  0  0  0  0  0  0  0
   -5.3424   -3.0736    9.4133 C   0  0  1  0  0  0  0  0  0  0  0  0
   -4.0079   -2.8656    9.1251 C   0  0  2  0  0  0  0  0  0  0  0  0
   -3.5110   -1.5684    9.1739 C   0  0  0  0  0  0  0  0  0  0  0  0
   -2.3124   -1.3364    8.9206 O   0  0  0  0  0  0  0  0  0  0  0  0
   -3.4685   -4.0685    8.8403 N   0  0  0  0  0  0  0  0  0  0  0  0
   -4.4461   -4.9972    8.9577 C   0  0  0  0  0  0  0  0  0  0  0  0
   -5.5764   -4.3751    9.3077 N   0  0  1  0  0  0  0  0  0  0  0  0
  1  2  1  1  0  0  0
  1  3  1  0  0  0  0
  1  4  2  0  0  0  0
  1  6  1  0  0  0  0
  5  6  1  0  0  0  0
  7  5  1  1  0  0  0
  7  8  1  0  0  0  0
  7  9  1  0  0  0  0
  9 10  1  6  0  0  0
  9 11  1  0  0  0  0
 11 12  1  1  0  0  0
 11 13  1  0  0  0  0
 13  8  1  1  0  0  0
 13 24  1  0  0  0  0
 14 15  1  0  0  0  0
 14 20  1  0  0  0  0
 15 16  1  6  0  0  0
 15 17  1  0  0  0  0
 18 17  1  1  0  0  0
 18 19  1  0  0  0  0
 18 24  1  0  0  0  0
 19 20  1  6  0  0  0
 19 22  1  0  0  0  0
 20 21  2  0  0  0  0
 22 23  1  0  0  0  0
 24 23  1  1  0  0  0
M  CHG  1   3  -1
M  END
>  <CHROM.1>
172.46671484,69.06905007,165.06859139,-93.78332284,-5.76020460,-5.06251132
11.01467552,-1.97167870,-1.02153114,-1.02020662

>  <Name>
ligand

>  <RI>
0

>  <Rbt.Current_Directory>
/home/itssahil/PROJECTS/Mol_Feturizer/New_Systems/rnas/3SLQ

>  <Rbt.Executable>
rbdock ($Id: //depot/dev/client3/rdock/2013.1/src/exe/rbdock.cxx#4 $)

>  <Rbt.Library>
libRbt.so (2013.1, Build901 2013/11/27)

>  <Rbt.Parameter_File>
/export/apps/rDock/src/rDock_2013.1_src/data/scripts/dock_solv.prm

>  <Rbt.Receptor>
prm/pocket_docking_3.prm

>  <SCORE>
-20.7932

>  <SCORE.INTER>
-15.5482

>  <SCORE.INTER.CONST>
1

>  <SCORE.INTER.POLAR>
0

>  <SCORE.INTER.ROT>
4

>  <SCORE.INTER.SOLV>
20.4263

>  <SCORE.INTER.VDW>
-23.4409

>  <SCORE.INTER.norm>
-0.64784

>  <SCORE.INTRA>
-5.24501

>  <SCORE.INTRA.DIHEDRAL>
-10.6446

>  <SCORE.INTRA.DIHEDRAL.0>
13.2525

>  <SCORE.INTRA.POLAR>
0

>  <SCORE.INTRA.POLAR.0>
0

>  <SCORE.INTRA.REPUL>
0

>  <SCORE.INTRA.REPUL.0>
0

>  <SCORE.INTRA.SOLV>
0.455667

>  <SCORE.INTRA.SOLV.lig_0>
-70.7221

>  <SCORE.INTRA.VDW>
-0.150565

>  <SCORE.INTRA.VDW.0>
-1.46337

>  <SCORE.INTRA.norm>
-0.218542

>  <SCORE.RESTR>
0

>  <SCORE.RESTR.CAVITY>
0

>  <SCORE.RESTR.norm>
0

>  <SCORE.SYSTEM>
0

>  <SCORE.SYSTEM.CONST>
0

>  <SCORE.SYSTEM.DIHEDRAL>
0

>  <SCORE.SYSTEM.SOLV>
0

>  <SCORE.SYSTEM.norm>
0

>  <SCORE.heavy>
24

>  <SCORE.norm>
-0.866382

>  <RMSD>
1.013

$$$$
ligand
 OpenBabel11021811483D
libRbt.so/2013.1/901 2013/11/27
 24 26  0  0  0  0  0  0  0  0999 V2000
   -7.1665   -7.2190   14.5412 P   0  0  1  0  0  0  0  0  0  0  0  0
   -6.9201   -8.7039   14.3808 O   0  0  0  0  0  0  0  0  0  0  0  0
   -8.3449   -6.6497   13.7867 O   0  5  0  0  0  0  0  0  0  0  0  0
   -7.0998   -6.7325   15.9812 O   0  0  0  0  0  0  0  0  0  0  0  0
   -5.4793   -6.9583   12.4438 C   0  0  0  0  0  0  0  0  0  0  0  0
   -5.9311   -6.5328   13.7412 O   0  0  0  0  0  0  0  0  0  0  0  0
   -6.5334   -6.6151   11.3870 C   0  0  1  0  0  0  0  0  0  0  0  0
   -6.5941   -5.2063   11.1306 O   0  0  0  0  0  0  0  0  0  0  0  0
   -6.3161   -7.2694   10.0333 C   0  0  1  0  0  0  0  0  0  0  0  0
   -7.0054   -8.5228   10.0088 O   0  0  0  0  0  0  0  0  0  0  0  0
   -6.9313   -6.2760    9.0613 C   0  0  1  0  0  0  0  0  0  0  0  0
   -8.3524   -6.4591    8.9878 O   0  0  0  0  0  0  0  0  0  0  0  0
   -6.7190   -4.9321    9.7297 C   0  0  2  0  0  0  0  0  0  0  0  0
   -4.3689   -0.4121    9.4078 N   0  0  0  0  0  0  0  0  0  0  0  0
   -5.6286   -0.6990    9.8082 C   0  0  1  0  0  0  0  0  0  0  0  0
   -6.4413    0.3077   10.2014 N   0  0  0  0  0  0  0  0  0  0  0  0
   -6.0822   -1.9743    9.8193 N   0  0  0  0  0  0  0  0  0  0  0  0
   -5.2636   -2.9783    9.4237 C   0  0  1  0  0  0  0  0  0  0  0  0
   -3.9732   -2.7140    9.0084 C   0  0  2  0  0  0  0  0  0  0  0  0
   -3.5314   -1.3961    9.0071 C   0  0  0  0  0  0  0  0  0  0  0  0
   -2.3739   -1.1136    8.6397 O   0  0  0  0  0  0  0  0  0  0  0  0
   -3.4113   -3.8939    8.6751 N   0  0  0  0  0  0  0  0  0  0  0  0
   -4.3314   -4.8636    8.8872 C   0  0  0  0  0  0  0  0  0  0  0  0
   -5.4492   -4.2893    9.3430 N   0  0  1  0  0  0  0  0  0  0  0  0
  1  2  1  6  0  0  0
  1  3  1  0  0  0  0
  1  4  2  0  0  0  0
  1  6  1  0  0  0  0
  5  6  1  0  0  0  0
  7  5  1  1  0  0  0
  7  8  1  0  0  0  0
  7  9  1  0  0  0  0
  9 10  1  1  0  0  0
  9 11  1  0  0  0  0
 11 12  1  1  0  0  0
 11 13  1  0  0  0  0
 13  8  1  1  0  0  0
 13 24  1  0  0  0  0
 14 15  1  0  0  0  0
 14 20  1  0  0  0  0
 15 16  1  6  0  0  0
 15 17  1  0  0  0  0
 18 17  1  1  0  0  0
 18 19  1  0  0  0  0
 18 24  1  0  0  0  0
 19 20  1  6  0  0  0
 19 22  1  0  0  0  0
 20 21  2  0  0  0  0
 22 23  1  0  0  0  0
 24 23  1  1  0  0  0
M  CHG  1   3  -1
M  END
>  <CHROM.1>
44.96345903,72.00889866,69.05758270,-88.30010741,-5.96758414,-4.90559630
11.01925144,-2.94963596,-1.21481084,-2.02873336

>  <Name>
ligand

>  <RI>
0

>  <Rbt.Current_Directory>
/home/itssahil/PROJECTS/Mol_Feturizer/New_Systems/rnas/3SLQ

>  <Rbt.Executable>
rbdock ($Id: //depot/dev/client3/rdock/2013.1/src/exe/rbdock.cxx#4 $)

>  <Rbt.Library>
libRbt.so (2013.1, Build901 2013/11/27)

>  <Rbt.Parameter_File>
/export/apps/rDock/src/rDock_2013.1_src/data/scripts/dock_solv.prm

>  <Rbt.Receptor>
prm/pocket_docking_3.prm

>  <SCORE>
-19.5553

>  <SCORE.INTER>
-14.4619

>  <SCORE.INTER.CONST>
1

>  <SCORE.INTER.POLAR>
0

>  <SCORE.INTER.ROT>
4

>  <SCORE.INTER.SOLV>
23.2293

>  <SCORE.INTER.VDW>
-23.651

>  <SCORE.INTER.norm>
-0.602581

>  <SCORE.INTRA>
-5.0934

>  <SCORE.INTRA.DIHEDRAL>
-10.8212

>  <SCORE.INTRA.DIHEDRAL.0>
13.2525

>  <SCORE.INTRA.POLAR>
0

>  <SCORE.INTRA.POLAR.0>
0

>  <SCORE.INTRA.REPUL>
0

>  <SCORE.INTRA.REPUL.0>
0

>  <SCORE.INTRA.SOLV>
1.74776

>  <SCORE.INTRA.SOLV.lig_0>
-70.7221

>  <SCORE.INTRA.VDW>
-0.556689

>  <SCORE.INTRA.VDW.0>
-1.46337

>  <SCORE.INTRA.norm>
-0.212225

>  <SCORE.RESTR>
0

>  <SCORE.RESTR.CAVITY>
0

>  <SCORE.RESTR.norm>
0

>  <SCORE.SYSTEM>
0

>  <SCORE.SYSTEM.CONST>
0

>  <SCORE.SYSTEM.DIHEDRAL>
0

>  <SCORE.SYSTEM.SOLV>
0

>  <SCORE.SYSTEM.norm>
0

>  <SCORE.heavy>
24

>  <SCORE.norm>
-0.814806

>  <RMSD>
1.018

$$$$
ligand
 OpenBabel11021811483D
libRbt.so/2013.1/901 2013/11/27
 24 26  0  0  0  0  0  0  0  0999 V2000
   -5.6829   -7.7132   14.9393 P   0  0  1  0  0  0  0  0  0  0  0  0
   -6.3487   -6.7040   15.8503 O   0  0  0  0  0  0  0  0  0  0  0  0
   -4.2100   -7.5077   14.6743 O   0  5  0  0  0  0  0  0  0  0  0  0
   -6.0259   -9.1597   15.2626 O   0  0  0  0  0  0  0  0  0  0  0  0
   -6.2106   -6.1010   12.8331 C   0  0  0  0  0  0  0  0  0  0  0  0
   -6.3056   -7.3839   13.4761 O   0  0  0  0  0  0  0  0  0  0  0  0
   -6.9324   -6.1405   11.4829 C   0  0  1  0  0  0  0  0  0  0  0  0
   -6.9626   -4.8524   10.8552 O   0  0  0  0  0  0  0  0  0  0  0  0
   -6.3199   -7.0813   10.4594 C   0  0  1  0  0  0  0  0  0  0  0  0
   -6.9340   -8.3672   10.5866 O   0  0  0  0  0  0  0  0  0  0  0  0
   -6.6658   -6.4274    9.1316 C   0  0  1  0  0  0  0  0  0  0  0  0
   -8.0013   -6.7706    8.7352 O   0  0  0  0  0  0  0  0  0  0  0  0
   -6.6942   -4.9458    9.4507 C   0  0  2  0  0  0  0  0  0  0  0  0
   -4.3371   -0.4222    9.6442 N   0  0  0  0  0  0  0  0  0  0  0  0
   -5.6363   -0.7244    9.8684 C   0  0  1  0  0  0  0  0  0  0  0  0
   -6.4953    0.2645   10.2037 N   0  0  0  0  0  0  0  0  0  0  0  0
   -6.0835   -1.9975    9.7612 N   0  0  0  0  0  0  0  0  0  0  0  0
   -5.2182   -2.9837    9.4244 C   0  0  1  0  0  0  0  0  0  0  0  0
   -3.8867   -2.7034    9.1883 C   0  0  2  0  0  0  0  0  0  0  0  0
   -3.4525   -1.3883    9.3057 C   0  0  0  0  0  0  0  0  0  0  0  0
   -2.2588   -1.0917    9.1010 O   0  0  0  0  0  0  0  0  0  0  0  0
   -3.2833   -3.8675    8.8724 N   0  0  0  0  0  0  0  0  0  0  0  0
   -4.2196   -4.8437    8.9203 C   0  0  0  0  0  0  0  0  0  0  0  0
   -5.3878   -4.2888    9.2585 N   0  0  1  0  0  0  0  0  0  0  0  0
  1  2  1  1  0  0  0
  1  3  1  0  0  0  0
  1  4  2  0  0  0  0
  1  6  1  0  0  0  0
  5  6  1  0  0  0  0
  7  5  1  1  0  0  0
  7  8  1  0  0  0  0
  7  9  1  0  0  0  0
  9 10  1  6  0  0  0
  9 11  1  0  0  0  0
 11 12  1  1  0  0  0
 11 13  1  0  0  0  0
 13  8  1  1  0  0  0
 13 24  1  0  0  0  0
 14 15  1  0  0  0  0
 14 20  1  0  0  0  0
 15 16  1  6  0  0  0
 15 17  1  0  0  0  0
 18 17  1  1  0  0  0
 18 19  1  0  0  0  0
 18 24  1  0  0  0  0
 19 20  1  6  0  0  0
 19 22  1  0  0  0  0
 20 21  2  0  0  0  0
 22 23  1  0  0  0  0
 24 23  1  1  0  0  0
M  CHG  1   3  -1
M  END
>  <CHROM.1>
57.76842732,175.05847205,-178.76563142,-68.04756887,-5.60287841,-4.98463428
11.19666001,-1.94809848,-1.04365874,-1.00150047

>  <Name>
ligand

>  <RI>
0

>  <Rbt.Current_Directory>
/home/itssahil/PROJECTS/Mol_Feturizer/New_Systems/rnas/3SLQ

>  <Rbt.Executable>
rbdock ($Id: //depot/dev/client3/rdock/2013.1/src/exe/rbdock.cxx#4 $)

>  <Rbt.Library>
libRbt.so (2013.1, Build901 2013/11/27)

>  <Rbt.Parameter_File>
/export/apps/rDock/src/rDock_2013.1_src/data/scripts/dock_solv.prm

>  <Rbt.Receptor>
prm/pocket_docking_4.prm

>  <SCORE>
-23.561

>  <SCORE.INTER>
-17.4668

>  <SCORE.INTER.CONST>
1

>  <SCORE.INTER.POLAR>
0

>  <SCORE.INTER.ROT>
4

>  <SCORE.INTER.SOLV>
20.7248

>  <SCORE.INTER.VDW>
-24.8195

>  <SCORE.INTER.norm>
-0.727784

>  <SCORE.INTRA>
-6.09414

>  <SCORE.INTRA.DIHEDRAL>
-11.956

>  <SCORE.INTRA.DIHEDRAL.0>
13.2525

>  <SCORE.INTRA.POLAR>
0

>  <SCORE.INTRA.POLAR.0>
0

>  <SCORE.INTRA.REPUL>
0

>  <SCORE.INTRA.REPUL.0>
0

>  <SCORE.INTRA.SOLV>
0.0811895

>  <SCORE.INTRA.SOLV.lig_0>
-70.7221

>  <SCORE.INTRA.VDW>
-0.15673

>  <SCORE.INTRA.VDW.0>
-1.46337

>  <SCORE.INTRA.norm>
-0.253923

>  <SCORE.RESTR>
0

>  <SCORE.RESTR.CAVITY>
0

>  <SCORE.RESTR.norm>
0

>  <SCORE.SYSTEM>
0

>  <SCORE.SYSTEM.CONST>
0

>  <SCORE.SYSTEM.DIHEDRAL>
0

>  <SCORE.SYSTEM.SOLV>
0

>  <SCORE.SYSTEM.norm>
0

>  <SCORE.heavy>
24

>  <SCORE.norm>
-0.981706

>  <RMSD>
1.019

$$$$
ligand
 OpenBabel11021811483D
libRbt.so/2013.1/901 2013/11/27
 24 26  0  0  0  0  0  0  0  0999 V2000
   -5.6951   -7.7096   14.9374 P   0  0  1  0  0  0  0  0  0  0  0  0
   -6.3574   -6.6939   15.8436 O   0  0  0  0  0  0  0  0  0  0  0  0
   -4.2207   -7.5127   14.6744 O   0  5  0  0  0  0  0  0  0  0  0  0
   -6.0462   -9.1533   15.2649 O   0  0  0  0  0  0  0  0  0  0  0  0
   -6.1944   -6.1075   12.8167 C   0  0  0  0  0  0  0  0  0  0  0  0
   -6.3133   -7.3822   13.4718 O   0  0  0  0  0  0  0  0  0  0  0  0
   -6.9152   -6.1470   11.4658 C   0  0  1  0  0  0  0  0  0  0  0  0
   -6.9488   -4.8580   10.8402 O   0  0  0  0  0  0  0  0  0  0  0  0
   -6.2991   -7.0843   10.4413 C   0  0  1  0  0  0  0  0  0  0  0  0
   -6.9094   -8.3723   10.5660 O   0  0  0  0  0  0  0  0  0  0  0  0
   -6.6459   -6.4294    9.1143 C   0  0  1  0  0  0  0  0  0  0  0  0
   -7.9800   -6.7760    8.7163 O   0  0  0  0  0  0  0  0  0  0  0  0
   -6.6790   -4.9484    9.4357 C   0  0  2  0  0  0  0  0  0  0  0  0
   -4.3308   -0.4216    9.6598 N   0  0  0  0  0  0  0  0  0  0  0  0
   -5.6288   -0.7284    9.8849 C   0  0  1  0  0  0  0  0  0  0  0  0
   -6.4891    0.2561   10.2303 N   0  0  0  0  0  0  0  0  0  0  0  0
   -6.0736   -2.0014    9.7685 N   0  0  0  0  0  0  0  0  0  0  0  0
   -5.2071   -2.9831    9.4216 C   0  0  1  0  0  0  0  0  0  0  0  0
   -3.8768   -2.6981    9.1843 C   0  0  2  0  0  0  0  0  0  0  0  0
   -3.4451   -1.3830    9.3113 C   0  0  0  0  0  0  0  0  0  0  0  0
   -2.2526   -1.0823    9.1060 O   0  0  0  0  0  0  0  0  0  0  0  0
   -3.2719   -3.8584    8.8575 N   0  0  0  0  0  0  0  0  0  0  0  0
   -4.2060   -4.8369    8.8999 C   0  0  0  0  0  0  0  0  0  0  0  0
   -5.3745   -4.2872    9.2455 N   0  0  1  0  0  0  0  0  0  0  0  0
  1  2  1  1  0  0  0
  1  3  1  0  0  0  0
  1  4  2  0  0  0  0
  1  6  1  0  0  0  0
  5  6  1  0  0  0  0
  7  5  1  1  0  0  0
  7  8  1  0  0  0  0
  7  9  1  0  0  0  0
  9 10  1  6  0  0  0
  9 11  1  0  0  0  0
 11 12  1  1  0  0  0
 11 13  1  0  0  0  0
 13  8  1  1  0  0  0
 13 24  1  0  0  0  0
 14 15  1  0  0  0  0
 14 20  1  0  0  0  0
 15 16  1  6  0  0  0
 15 17  1  0  0  0  0
 18 17  1  1  0  0  0
 18 19  1  0  0  0  0
 18 24  1  0  0  0  0
 19 20  1  6  0  0  0
 19 22  1  0  0  0  0
 20 21  2  0  0  0  0
 22 23  1  0  0  0  0
 24 23  1  1  0  0  0
M  CHG  1   3  -1
M  END
>  <CHROM.1>
58.66623053,173.69328145,-178.93619887,-67.62628029,-5.59626076,-4.98436539
11.19143748,-1.96180492,-1.05580231,-1.01564740

>  <Name>
ligand

>  <RI>
0

>  <Rbt.Current_Directory>
/home/itssahil/PROJECTS/Mol_Feturizer/New_Systems/rnas/3SLQ

>  <Rbt.Executable>
rbdock ($Id: //depot/dev/client3/rdock/2013.1/src/exe/rbdock.cxx#4 $)

>  <Rbt.Library>
libRbt.so (2013.1, Build901 2013/11/27)

>  <Rbt.Parameter_File>
/export/apps/rDock/src/rDock_2013.1_src/data/scripts/dock_solv.prm

>  <Rbt.Receptor>
prm/pocket_docking_4.prm

>  <SCORE>
-23.5709

>  <SCORE.INTER>
-17.5003

>  <SCORE.INTER.CONST>
1

>  <SCORE.INTER.POLAR>
0

>  <SCORE.INTER.ROT>
4

>  <SCORE.INTER.SOLV>
20.77

>  <SCORE.INTER.VDW>
-24.8569

>  <SCORE.INTER.norm>
-0.729181

>  <SCORE.INTRA>
-6.07052

>  <SCORE.INTRA.DIHEDRAL>
-11.9077

>  <SCORE.INTRA.DIHEDRAL.0>
13.2525

>  <SCORE.INTRA.POLAR>
0

>  <SCORE.INTRA.POLAR.0>
0

>  <SCORE.INTRA.REPUL>
0

>  <SCORE.INTRA.REPUL.0>
0

>  <SCORE.INTRA.SOLV>
0.0830504

>  <SCORE.INTRA.SOLV.lig_0>
-70.7221

>  <SCORE.INTRA.VDW>
-0.158214

>  <SCORE.INTRA.VDW.0>
-1.46337

>  <SCORE.INTRA.norm>
-0.252938

>  <SCORE.RESTR>
0

>  <SCORE.RESTR.CAVITY>
0

>  <SCORE.RESTR.norm>
0

>  <SCORE.SYSTEM>
0

>  <SCORE.SYSTEM.CONST>
0

>  <SCORE.SYSTEM.DIHEDRAL>
0

>  <SCORE.SYSTEM.SOLV>
0

>  <SCORE.SYSTEM.norm>
0

>  <SCORE.heavy>
24

>  <SCORE.norm>
-0.982119

>  <RMSD>
1.021

$$$$
ligand
 OpenBabel11021811483D
libRbt.so/2013.1/901 2013/11/27
 24 26  0  0  0  0  0  0  0  0999 V2000
   -5.7019   -7.7029   14.9136 P   0  0  1  0  0  0  0  0  0  0  0  0
   -6.3674   -6.6892   15.8196 O   0  0  0  0  0  0  0  0  0  0  0  0
   -4.2264   -7.5058   14.6568 O   0  5  0  0  0  0  0  0  0  0  0  0
   -6.0546   -9.1472   15.2363 O   0  0  0  0  0  0  0  0  0  0  0  0
   -6.2118   -6.0891   12.8043 C   0  0  0  0  0  0  0  0  0  0  0  0
   -6.3143   -7.3718   13.4464 O   0  0  0  0  0  0  0  0  0  0  0  0
   -6.9289   -6.1252   11.4514 C   0  0  1  0  0  0  0  0  0  0  0  0
   -6.9561   -4.8357   10.8265 O   0  0  0  0  0  0  0  0  0  0  0  0
   -6.3134   -7.0642   10.4281 C   0  0  1  0  0  0  0  0  0  0  0  0
   -6.9287   -8.3499   10.5503 O   0  0  0  0  0  0  0  0  0  0  0  0
   -6.6541   -6.4072    9.1005 C   0  0  1  0  0  0  0  0  0  0  0  0
   -7.9884   -6.7486    8.6986 O   0  0  0  0  0  0  0  0  0  0  0  0
   -6.6827   -4.9263    9.4227 C   0  0  2  0  0  0  0  0  0  0  0  0
   -4.3217   -0.4059    9.6423 N   0  0  0  0  0  0  0  0  0  0  0  0
   -5.6217   -0.7079    9.8621 C   0  0  1  0  0  0  0  0  0  0  0  0
   -6.4806    0.2804   10.1999 N   0  0  0  0  0  0  0  0  0  0  0  0
   -6.0699   -1.9800    9.7481 N   0  0  0  0  0  0  0  0  0  0  0  0
   -5.2047   -2.9655    9.4088 C   0  0  1  0  0  0  0  0  0  0  0  0
   -3.8724   -2.6854    9.1770 C   0  0  2  0  0  0  0  0  0  0  0  0
   -3.4373   -1.3712    9.3015 C   0  0  0  0  0  0  0  0  0  0  0  0
   -2.2428   -1.0749    9.1010 O   0  0  0  0  0  0  0  0  0  0  0  0
   -3.2694   -3.8487    8.8573 N   0  0  0  0  0  0  0  0  0  0  0  0
   -4.2068   -4.8242    8.8985 C   0  0  0  0  0  0  0  0  0  0  0  0
   -5.3753   -4.2697    9.2365 N   0  0  1  0  0  0  0  0  0  0  0  0
  1  2  1  1  0  0  0
  1  3  1  0  0  0  0
  1  4  2  0  0  0  0
  1  6  1  0  0  0  0
  5  6  1  0  0  0  0
  7  5  1  1  0  0  0
  7  8  1  0  0  0  0
  7  9  1  0  0  0  0
  9 10  1  6  0  0  0
  9 11  1  0  0  0  0
 11 12  1  1  0  0  0
 11 13  1  0  0  0  0
 13  8  1  1  0  0  0
 13 24  1  0  0  0  0
 14 15  1  0  0  0  0
 14 20  1  0  0  0  0
 15 16  1  6  0  0  0
 15 17  1  0  0  0  0
 18 17  1  1  0  0  0
 18 19  1  0  0  0  0
 18 24  1  0  0  0  0
 19 20  1  6  0  0  0
 19 22  1  0  0  0  0
 20 21  2  0  0  0  0
 22 23  1  0  0  0  0
 24 23  1  1  0  0  0
M  CHG  1   3  -1
M  END
>  <CHROM.1>
57.59034225,174.83628293,-178.58909566,-67.89401773,-5.59965334,-4.96901369
11.17533115,-1.95947655,-1.04785376,-1.01020828

>  <Name>
ligand

>  <RI>
0

>  <Rbt.Current_Directory>
/home/itssahil/PROJECTS/Mol_Feturizer/New_Systems/rnas/3SLQ

>  <Rbt.Executable>
rbdock ($Id: //depot/dev/client3/rdock/2013.1/src/exe/rbdock.cxx#4 $)

>  <Rbt.Library>
libRbt.so (2013.1, Build901 2013/11/27)

>  <Rbt.Parameter_File>
/export/apps/rDock/src/rDock_2013.1_src/data/scripts/dock_solv.prm

>  <Rbt.Receptor>
prm/pocket_docking_4.prm

>  <SCORE>
-23.563

>  <SCORE.INTER>
-17.473

>  <SCORE.INTER.CONST>
1

>  <SCORE.INTER.POLAR>
0

>  <SCORE.INTER.ROT>
4

>  <SCORE.INTER.SOLV>
20.7858

>  <SCORE.INTER.VDW>
-24.8439

>  <SCORE.INTER.norm>
-0.72804

>  <SCORE.INTRA>
-6.09009

>  <SCORE.INTRA.DIHEDRAL>
-11.9442

>  <SCORE.INTRA.DIHEDRAL.0>
13.2525

>  <SCORE.INTRA.POLAR>
0

>  <SCORE.INTRA.POLAR.0>
0

>  <SCORE.INTRA.REPUL>
0

>  <SCORE.INTRA.REPUL.0>
0

>  <SCORE.INTRA.SOLV>
0.0777661

>  <SCORE.INTRA.SOLV.lig_0>
-70.7221

>  <SCORE.INTRA.VDW>
-0.156877

>  <SCORE.INTRA.VDW.0>
-1.46337

>  <SCORE.INTRA.norm>
-0.253754

>  <SCORE.RESTR>
0

>  <SCORE.RESTR.CAVITY>
0

>  <SCORE.RESTR.norm>
0

>  <SCORE.SYSTEM>
0

>  <SCORE.SYSTEM.CONST>
0

>  <SCORE.SYSTEM.DIHEDRAL>
0

>  <SCORE.SYSTEM.SOLV>
0

>  <SCORE.SYSTEM.norm>
0

>  <SCORE.heavy>
24

>  <SCORE.norm>
-0.981793

>  <RMSD>
1.021

$$$$
ligand
 OpenBabel11021811483D
libRbt.so/2013.1/901 2013/11/27
 24 26  0  0  0  0  0  0  0  0999 V2000
   -5.6788   -7.7107   14.9280 P   0  0  1  0  0  0  0  0  0  0  0  0
   -6.3525   -6.7036   15.8354 O   0  0  0  0  0  0  0  0  0  0  0  0
   -4.2050   -7.5012   14.6714 O   0  5  0  0  0  0  0  0  0  0  0  0
   -6.0197   -9.1583   15.2490 O   0  0  0  0  0  0  0  0  0  0  0  0
   -6.2068   -6.0969   12.8232 C   0  0  0  0  0  0  0  0  0  0  0  0
   -6.2939   -7.3827   13.4613 O   0  0  0  0  0  0  0  0  0  0  0  0
   -6.9279   -6.1359   11.4725 C   0  0  1  0  0  0  0  0  0  0  0  0
   -6.9581   -4.8475   10.8455 O   0  0  0  0  0  0  0  0  0  0  0  0
   -6.3146   -7.0760   10.4489 C   0  0  1  0  0  0  0  0  0  0  0  0
   -6.9284   -8.3621   10.5750 O   0  0  0  0  0  0  0  0  0  0  0  0
   -6.6600   -6.4215    9.1212 C   0  0  1  0  0  0  0  0  0  0  0  0
   -7.9951   -6.7649    8.7239 O   0  0  0  0  0  0  0  0  0  0  0  0
   -6.6889   -4.9401    9.4411 C   0  0  2  0  0  0  0  0  0  0  0  0
   -4.3335   -0.4157    9.6370 N   0  0  0  0  0  0  0  0  0  0  0  0
   -5.6327   -0.7184    9.8602 C   0  0  1  0  0  0  0  0  0  0  0  0
   -6.4924    0.2702   10.1951 N   0  0  0  0  0  0  0  0  0  0  0  0
   -6.0794   -1.9916    9.7525 N   0  0  0  0  0  0  0  0  0  0  0  0
   -5.2135   -2.9775    9.4162 C   0  0  1  0  0  0  0  0  0  0  0  0
   -3.8820   -2.6967    9.1810 C   0  0  2  0  0  0  0  0  0  0  0  0
   -3.4483   -1.3814    9.2990 C   0  0  0  0  0  0  0  0  0  0  0  0
   -2.2546   -1.0844    9.0952 O   0  0  0  0  0  0  0  0  0  0  0  0
   -3.2780   -3.8606    8.8654 N   0  0  0  0  0  0  0  0  0  0  0  0
   -4.2140   -4.8371    8.9124 C   0  0  0  0  0  0  0  0  0  0  0  0
   -5.3827   -4.2826    9.2499 N   0  0  1  0  0  0  0  0  0  0  0  0
  1  2  1  1  0  0  0
  1  3  1  0  0  0  0
  1  4  2  0  0  0  0
  1  6  1  0  0  0  0
  5  6  1  0  0  0  0
  7  5  1  1  0  0  0
  7  8  1  0  0  0  0
  7  9  1  0  0  0  0
  9 10  1  6  0  0  0
  9 11  1  0  0  0  0
 11 12  1  1  0  0  0
 11 13  1  0  0  0  0
 13  8  1  1  0  0  0
 13 24  1  0  0  0  0
 14 15  1  0  0  0  0
 14 20  1  0  0  0  0
 15 16  1  6  0  0  0
 15 17  1  0  0  0  0
 18 17  1  1  0  0  0
 18 19  1  0  0  0  0
 18 24  1  0  0  0  0
 19 20  1  6  0  0  0
 19 22  1  0  0  0  0
 20 21  2  0  0  0  0
 22 23  1  0  0  0  0
 24 23  1  1  0  0  0
M  CHG  1   3  -1
M  END
>  <CHROM.1>
57.31988094,175.44816362,-178.32056871,-68.07031553,-5.59821755,-4.97968320
11.18710504,-1.94790953,-1.04366084,-1.00058755

>  <Name>
ligand

>  <RI>
0

>  <Rbt.Current_Directory>
/home/itssahil/PROJECTS/Mol_Feturizer/New_Systems/rnas/3SLQ

>  <Rbt.Executable>
rbdock ($Id: //depot/dev/client3/rdock/2013.1/src/exe/rbdock.cxx#4 $)

>  <Rbt.Library>
libRbt.so (2013.1, Build901 2013/11/27)

>  <Rbt.Parameter_File>
/export/apps/rDock/src/rDock_2013.1_src/data/scripts/dock_solv.prm

>  <Rbt.Receptor>
prm/pocket_docking_4.prm

>  <SCORE>
-23.5727

>  <SCORE.INTER>
-17.4759

>  <SCORE.INTER.CONST>
1

>  <SCORE.INTER.POLAR>
0

>  <SCORE.INTER.ROT>
4

>  <SCORE.INTER.SOLV>
20.7639

>  <SCORE.INTER.VDW>
-24.8386

>  <SCORE.INTER.norm>
-0.728162

>  <SCORE.INTRA>
-6.09682

>  <SCORE.INTRA.DIHEDRAL>
-11.9594

>  <SCORE.INTRA.DIHEDRAL.0>
13.2525

>  <SCORE.INTRA.POLAR>
0

>  <SCORE.INTRA.POLAR.0>
0

>  <SCORE.INTRA.REPUL>
0

>  <SCORE.INTRA.REPUL.0>
0

>  <SCORE.INTRA.SOLV>
0.0765843

>  <SCORE.INTRA.SOLV.lig_0>
-70.7221

>  <SCORE.INTRA.VDW>
-0.155397

>  <SCORE.INTRA.VDW.0>
-1.46337

>  <SCORE.INTRA.norm>
-0.254034

>  <SCORE.RESTR>
0

>  <SCORE.RESTR.CAVITY>
0

>  <SCORE.RESTR.norm>
0

>  <SCORE.SYSTEM>
0

>  <SCORE.SYSTEM.CONST>
0

>  <SCORE.SYSTEM.DIHEDRAL>
0

>  <SCORE.SYSTEM.SOLV>
0

>  <SCORE.SYSTEM.norm>
0

>  <SCORE.heavy>
24

>  <SCORE.norm>
-0.982196

>  <RMSD>
1.023

$$$$
ligand
 OpenBabel11021811483D
libRbt.so/2013.1/901 2013/11/27
 24 26  0  0  0  0  0  0  0  0999 V2000
   -5.6512   -7.7180   14.9064 P   0  0  1  0  0  0  0  0  0  0  0  0
   -6.3057   -6.7143   15.8314 O   0  0  0  0  0  0  0  0  0  0  0  0
   -4.1803   -7.5145   14.6292 O   0  5  0  0  0  0  0  0  0  0  0  0
   -5.9953   -9.1661   15.2214 O   0  0  0  0  0  0  0  0  0  0  0  0
   -6.1999   -6.0858   12.8210 C   0  0  0  0  0  0  0  0  0  0  0  0
   -6.2865   -7.3754   13.4516 O   0  0  0  0  0  0  0  0  0  0  0  0
   -6.9292   -6.1145   11.4745 C   0  0  1  0  0  0  0  0  0  0  0  0
   -6.9566   -4.8229   10.8540 O   0  0  0  0  0  0  0  0  0  0  0  0
   -6.3268   -7.0526   10.4427 C   0  0  1  0  0  0  0  0  0  0  0  0
   -6.9464   -8.3362   10.5662 O   0  0  0  0  0  0  0  0  0  0  0  0
   -6.6767   -6.3899    9.1203 C   0  0  1  0  0  0  0  0  0  0  0  0
   -8.0159   -6.7245    8.7293 O   0  0  0  0  0  0  0  0  0  0  0  0
   -6.6961   -4.9100    9.4476 C   0  0  2  0  0  0  0  0  0  0  0  0
   -4.3267   -0.3915    9.6075 N   0  0  0  0  0  0  0  0  0  0  0  0
   -5.6270   -0.6882    9.8323 C   0  0  1  0  0  0  0  0  0  0  0  0
   -6.4838    0.3058   10.1583 N   0  0  0  0  0  0  0  0  0  0  0  0
   -6.0777   -1.9609    9.7349 N   0  0  0  0  0  0  0  0  0  0  0  0
   -5.2146   -2.9522    9.4074 C   0  0  1  0  0  0  0  0  0  0  0  0
   -3.8820   -2.6776    9.1708 C   0  0  2  0  0  0  0  0  0  0  0  0
   -3.4444   -1.3627    9.2782 C   0  0  0  0  0  0  0  0  0  0  0  0
   -2.2496   -1.0711    9.0727 O   0  0  0  0  0  0  0  0  0  0  0  0
   -3.2815   -3.8459    8.8653 N   0  0  0  0  0  0  0  0  0  0  0  0
   -4.2206   -4.8191    8.9199 C   0  0  0  0  0  0  0  0  0  0  0  0
   -5.3877   -4.2582    9.2518 N   0  0  1  0  0  0  0  0  0  0  0  0
  1  2  1  1  0  0  0
  1  3  1  0  0  0  0
  1  4  2  0  0  0  0
  1  6  1  0  0  0  0
  5  6  1  0  0  0  0
  7  5  1  1  0  0  0
  7  8  1  0  0  0  0
  7  9  1  0  0  0  0
  9 10  1  6  0  0  0
  9 11  1  0  0  0  0
 11 12  1  1  0  0  0
 11 13  1  0  0  0  0
 13  8  1  1  0  0  0
 13 24  1  0  0  0  0
 14 15  1  0  0  0  0
 14 20  1  0  0  0  0
 15 16  1  6  0  0  0
 15 17  1  0  0  0  0
 18 17  1  1  0  0  0
 18 19  1  0  0  0  0
 18 24  1  0  0  0  0
 19 20  1  6  0  0  0
 19 22  1  0  0  0  0
 20 21  2  0  0  0  0
 22 23  1  0  0  0  0
 24 23  1  1  0  0  0
M  CHG  1   3  -1
M  END
>  <CHROM.1>
57.42707224,175.61548967,-178.92169047,-68.92677557,-5.59331018,-4.96350385
11.17536035,-1.93058035,-1.02751611,-0.97967347

>  <Name>
ligand

>  <RI>
0

>  <Rbt.Current_Directory>
/home/itssahil/PROJECTS/Mol_Feturizer/New_Systems/rnas/3SLQ

>  <Rbt.Executable>
rbdock ($Id: //depot/dev/client3/rdock/2013.1/src/exe/rbdock.cxx#4 $)

>  <Rbt.Library>
libRbt.so (2013.1, Build901 2013/11/27)

>  <Rbt.Parameter_File>
/export/apps/rDock/src/rDock_2013.1_src/data/scripts/dock_solv.prm

>  <Rbt.Receptor>
prm/pocket_docking_8.prm

>  <SCORE>
-23.4998

>  <SCORE.INTER>
-17.3946

>  <SCORE.INTER.CONST>
1

>  <SCORE.INTER.POLAR>
0

>  <SCORE.INTER.ROT>
4

>  <SCORE.INTER.SOLV>
20.7867

>  <SCORE.INTER.VDW>
-24.792

>  <SCORE.INTER.norm>
-0.724774

>  <SCORE.INTRA>
-6.10522

>  <SCORE.INTRA.DIHEDRAL>
-11.9747

>  <SCORE.INTRA.DIHEDRAL.0>
13.2525

>  <SCORE.INTRA.POLAR>
0

>  <SCORE.INTRA.POLAR.0>
0

>  <SCORE.INTRA.REPUL>
0

>  <SCORE.INTRA.REPUL.0>
0

>  <SCORE.INTRA.SOLV>
0.0815619

>  <SCORE.INTRA.SOLV.lig_0>
-70.7221

>  <SCORE.INTRA.VDW>
-0.158647

>  <SCORE.INTRA.VDW.0>
-1.46337

>  <SCORE.INTRA.norm>
-0.254384

>  <SCORE.RESTR>
0

>  <SCORE.RESTR.CAVITY>
0

>  <SCORE.RESTR.norm>
0

>  <SCORE.SYSTEM>
0

>  <SCORE.SYSTEM.CONST>
0

>  <SCORE.SYSTEM.DIHEDRAL>
0

>  <SCORE.SYSTEM.SOLV>
0

>  <SCORE.SYSTEM.norm>
0

>  <SCORE.heavy>
24

>  <SCORE.norm>
-0.979159

>  <RMSD>
1.027

$$$$
ligand
 OpenBabel11021811483D
libRbt.so/2013.1/901 2013/11/27
 24 26  0  0  0  0  0  0  0  0999 V2000
   -6.8843   -7.7012   14.7635 P   0  0  1  0  0  0  0  0  0  0  0  0
   -6.8452   -9.2042   14.5878 O   0  0  0  0  0  0  0  0  0  0  0  0
   -7.9457   -7.1623   15.6934 O   0  5  0  0  0  0  0  0  0  0  0  0
   -5.5203   -7.0700   14.9996 O   0  0  0  0  0  0  0  0  0  0  0  0
   -6.7930   -7.4409   12.0732 C   0  0  0  0  0  0  0  0  0  0  0  0
   -7.4273   -7.1581   13.3326 O   0  0  0  0  0  0  0  0  0  0  0  0
   -7.6740   -6.9437   10.9232 C   0  0  1  0  0  0  0  0  0  0  0  0
   -7.6405   -5.5159   10.8032 O   0  0  0  0  0  0  0  0  0  0  0  0
   -7.2965   -7.4795    9.5528 C   0  0  1  0  0  0  0  0  0  0  0  0
   -8.0263   -8.6858    9.3101 O   0  0  0  0  0  0  0  0  0  0  0  0
   -7.7285   -6.3677    8.6108 C   0  0  1  0  0  0  0  0  0  0  0  0
   -9.1316   -6.4657    8.3278 O   0  0  0  0  0  0  0  0  0  0  0  0
   -7.5569   -5.1057    9.4327 C   0  0  2  0  0  0  0  0  0  0  0  0
   -5.0209   -0.6901    9.7913 N   0  0  0  0  0  0  0  0  0  0  0  0
   -6.3366   -0.9429    9.9771 C   0  0  1  0  0  0  0  0  0  0  0  0
   -7.1623    0.0731   10.3155 N   0  0  0  0  0  0  0  0  0  0  0  0
   -6.8331   -2.1934    9.8286 N   0  0  0  0  0  0  0  0  0  0  0  0
   -6.0011   -3.2068    9.4890 C   0  0  1  0  0  0  0  0  0  0  0  0
   -4.6537   -2.9771    9.2915 C   0  0  2  0  0  0  0  0  0  0  0  0
   -4.1687   -1.6843    9.4509 C   0  0  0  0  0  0  0  0  0  0  0  0
   -2.9592   -1.4332    9.2820 O   0  0  0  0  0  0  0  0  0  0  0  0
   -4.0912   -4.1578    8.9622 N   0  0  0  0  0  0  0  0  0  0  0  0
   -5.0678   -5.0949    8.9642 C   0  0  0  0  0  0  0  0  0  0  0  0
   -6.2202   -4.4996    9.2876 N   0  0  1  0  0  0  0  0  0  0  0  0
  1  2  1  1  0  0  0
  1  3  1  0  0  0  0
  1  4  2  0  0  0  0
  1  6  1  0  0  0  0
  5  6  1  0  0  0  0
  7  5  1  1  0  0  0
  7  8  1  0  0  0  0
  7  9  1  0  0  0  0
  9 10  1  6  0  0  0
  9 11  1  0  0  0  0
 11 12  1  1  0  0  0
 11 13  1  0  0  0  0
 13  8  1  1  0  0  0
 13 24  1  0  0  0  0
 14 15  1  0  0  0  0
 14 20  1  0  0  0  0
 15 16  1  6  0  0  0
 15 17  1  0  0  0  0
 18 17  1  1  0  0  0
 18 19  1  0  0  0  0
 18 24  1  0  0  0  0
 19 20  1  6  0  0  0
 19 22  1  0  0  0  0
 20 21  2  0  0  0  0
 22 23  1  0  0  0  0
 24 23  1  1  0  0  0
M  CHG  1   3  -1
M  END
>  <CHROM.1>
-56.78261095,74.10231994,172.02370352,-90.12673551,-6.52137490,-5.21116842
11.01179519,-2.12427653,-1.07962723,-1.13800851

>  <Name>
ligand

>  <RI>
0

>  <Rbt.Current_Directory>
/home/itssahil/PROJECTS/Mol_Feturizer/New_Systems/rnas/3SLQ

>  <Rbt.Executable>
rbdock ($Id: //depot/dev/client3/rdock/2013.1/src/exe/rbdock.cxx#4 $)

>  <Rbt.Library>
libRbt.so (2013.1, Build901 2013/11/27)

>  <Rbt.Parameter_File>
/export/apps/rDock/src/rDock_2013.1_src/data/scripts/dock_solv.prm

>  <Rbt.Receptor>
prm/pocket_docking_2.prm

>  <SCORE>
-15.7176

>  <SCORE.INTER>
-9.80172

>  <SCORE.INTER.CONST>
1

>  <SCORE.INTER.POLAR>
0

>  <SCORE.INTER.ROT>
4

>  <SCORE.INTER.SOLV>
22.9416

>  <SCORE.INTER.VDW>
-20.4484

>  <SCORE.INTER.norm>
-0.408405

>  <SCORE.INTRA>
-5.91586

>  <SCORE.INTRA.DIHEDRAL>
-11.0588

>  <SCORE.INTRA.DIHEDRAL.0>
13.2525

>  <SCORE.INTRA.POLAR>
0

>  <SCORE.INTRA.POLAR.0>
0

>  <SCORE.INTRA.REPUL>
0

>  <SCORE.INTRA.REPUL.0>
0

>  <SCORE.INTRA.SOLV>
-0.22326

>  <SCORE.INTRA.SOLV.lig_0>
-70.7221

>  <SCORE.INTRA.VDW>
-0.274836

>  <SCORE.INTRA.VDW.0>
-1.46337

>  <SCORE.INTRA.norm>
-0.246494

>  <SCORE.RESTR>
0

>  <SCORE.RESTR.CAVITY>
0

>  <SCORE.RESTR.norm>
0

>  <SCORE.SYSTEM>
0

>  <SCORE.SYSTEM.CONST>
0

>  <SCORE.SYSTEM.DIHEDRAL>
0

>  <SCORE.SYSTEM.SOLV>
0

>  <SCORE.SYSTEM.norm>
0

>  <SCORE.heavy>
24

>  <SCORE.norm>
-0.654899

>  <RMSD>
1.055

$$$$
ligand
 OpenBabel11021811483D
libRbt.so/2013.1/901 2013/11/27
 24 26  0  0  0  0  0  0  0  0999 V2000
   -5.9050   -7.7105   14.9073 P   0  0  1  0  0  0  0  0  0  0  0  0
   -6.3655   -9.1276   15.1742 O   0  0  0  0  0  0  0  0  0  0  0  0
   -6.5889   -6.6226   15.7013 O   0  5  0  0  0  0  0  0  0  0  0  0
   -4.3927   -7.5481   14.8688 O   0  0  0  0  0  0  0  0  0  0  0  0
   -6.2887   -6.1384   12.7405 C   0  0  0  0  0  0  0  0  0  0  0  0
   -6.4632   -7.3966   13.4150 O   0  0  0  0  0  0  0  0  0  0  0  0
   -6.9618   -6.1869   11.3656 C   0  0  1  0  0  0  0  0  0  0  0  0
   -6.9979   -4.8967   10.7425 O   0  0  0  0  0  0  0  0  0  0  0  0
   -6.2936   -7.1093   10.3604 C   0  0  1  0  0  0  0  0  0  0  0  0
   -6.8838   -8.4087   10.4607 O   0  0  0  0  0  0  0  0  0  0  0  0
   -6.6068   -6.4566    9.0240 C   0  0  1  0  0  0  0  0  0  0  0  0
   -7.9198   -6.8265    8.5795 O   0  0  0  0  0  0  0  0  0  0  0  0
   -6.6784   -4.9776    9.3480 C   0  0  2  0  0  0  0  0  0  0  0  0
   -4.4043   -0.4261    9.7588 N   0  0  0  0  0  0  0  0  0  0  0  0
   -5.7016   -0.7586    9.9482 C   0  0  1  0  0  0  0  0  0  0  0  0
   -6.5833    0.2019   10.3066 N   0  0  0  0  0  0  0  0  0  0  0  0
   -6.1246   -2.0338    9.7837 N   0  0  0  0  0  0  0  0  0  0  0  0
   -5.2367   -2.9914    9.4240 C   0  0  1  0  0  0  0  0  0  0  0  0
   -3.9065   -2.6798    9.2224 C   0  0  2  0  0  0  0  0  0  0  0  0
   -3.4974   -1.3631    9.3986 C   0  0  0  0  0  0  0  0  0  0  0  0
   -2.3058   -1.0387    9.2266 O   0  0  0  0  0  0  0  0  0  0  0  0
   -3.2776   -3.8203    8.8721 N   0  0  0  0  0  0  0  0  0  0  0  0
   -4.1974   -4.8132    8.8655 C   0  0  0  0  0  0  0  0  0  0  0  0
   -5.3807   -4.2917    9.2044 N   0  0  1  0  0  0  0  0  0  0  0  0
  1  2  1  1  0  0  0
  1  3  1  0  0  0  0
  1  4  2  0  0  0  0
  1  6  1  0  0  0  0
  5  6  1  0  0  0  0
  7  5  1  1  0  0  0
  7  8  1  0  0  0  0
  7  9  1  0  0  0  0
  9 10  1  6  0  0  0
  9 11  1  0  0  0  0
 11 12  1  1  0  0  0
 11 13  1  0  0  0  0
 13  8  1  1  0  0  0
 13 24  1  0  0  0  0
 14 15  1  0  0  0  0
 14 20  1  0  0  0  0
 15 16  1  6  0  0  0
 15 17  1  0  0  0  0
 18 17  1  1  0  0  0
 18 19  1  0  0  0  0
 18 24  1  0  0  0  0
 19 20  1  6  0  0  0
 19 22  1  0  0  0  0
 20 21  2  0  0  0  0
 22 23  1  0  0  0  0
 24 23  1  1  0  0  0
M  CHG  1   3  -1
M  END
>  <CHROM.1>
178.65374099,170.88537034,-178.98512461,-65.80141528,-5.67343903,-4.99317330
11.17021881,-2.05219723,-1.10798426,-1.09981147

>  <Name>
ligand

>  <RI>
0

>  <Rbt.Current_Directory>
/home/itssahil/PROJECTS/Mol_Feturizer/New_Systems/rnas/3SLQ

>  <Rbt.Executable>
rbdock ($Id: //depot/dev/client3/rdock/2013.1/src/exe/rbdock.cxx#4 $)

>  <Rbt.Library>
libRbt.so (2013.1, Build901 2013/11/27)

>  <Rbt.Parameter_File>
/export/apps/rDock/src/rDock_2013.1_src/data/scripts/dock_solv.prm

>  <Rbt.Receptor>
prm/pocket_docking_3.prm

>  <SCORE>
-20.9531

>  <SCORE.INTER>
-15.2084

>  <SCORE.INTER.CONST>
1

>  <SCORE.INTER.POLAR>
0

>  <SCORE.INTER.ROT>
4

>  <SCORE.INTER.SOLV>
24.9663

>  <SCORE.INTER.VDW>
-24.7277

>  <SCORE.INTER.norm>
-0.633684

>  <SCORE.INTRA>
-5.74469

>  <SCORE.INTRA.DIHEDRAL>
-11.7536

>  <SCORE.INTRA.DIHEDRAL.0>
13.2525

>  <SCORE.INTRA.POLAR>
0

>  <SCORE.INTRA.POLAR.0>
0

>  <SCORE.INTRA.REPUL>
0

>  <SCORE.INTRA.REPUL.0>
0

>  <SCORE.INTRA.SOLV>
0.600303

>  <SCORE.INTRA.SOLV.lig_0>
-70.7221

>  <SCORE.INTRA.VDW>
-0.168048

>  <SCORE.INTRA.VDW.0>
-1.46337

>  <SCORE.INTRA.norm>
-0.239362

>  <SCORE.RESTR>
0

>  <SCORE.RESTR.CAVITY>
0

>  <SCORE.RESTR.norm>
0

>  <SCORE.SYSTEM>
0

>  <SCORE.SYSTEM.CONST>
0

>  <SCORE.SYSTEM.DIHEDRAL>
0

>  <SCORE.SYSTEM.SOLV>
0

>  <SCORE.SYSTEM.norm>
0

>  <SCORE.heavy>
24

>  <SCORE.norm>
-0.873046

>  <RMSD>
1.069

$$$$
ligand
 OpenBabel11021811483D
libRbt.so/2013.1/901 2013/11/27
 24 26  0  0  0  0  0  0  0  0999 V2000
   -7.4359   -7.5137   14.2202 P   0  0  1  0  0  0  0  0  0  0  0  0
   -6.7440   -8.4513   15.1864 O   0  0  0  0  0  0  0  0  0  0  0  0
   -8.1020   -8.1544   13.0253 O   0  5  0  0  0  0  0  0  0  0  0  0
   -8.3139   -6.4691   14.8928 O   0  0  0  0  0  0  0  0  0  0  0  0
   -6.3596   -5.4777   12.8024 C   0  0  0  0  0  0  0  0  0  0  0  0
   -6.2113   -6.7259   13.5013 O   0  0  0  0  0  0  0  0  0  0  0  0
   -6.9896   -5.7221   11.4280 C   0  0  1  0  0  0  0  0  0  0  0  0
   -7.0844   -4.5149   10.6613 O   0  0  0  0  0  0  0  0  0  0  0  0
   -6.2400   -6.7086   10.5490 C   0  0  1  0  0  0  0  0  0  0  0  0
   -6.7549   -8.0225   10.7840 O   0  0  0  0  0  0  0  0  0  0  0  0
   -6.5535   -6.2310    9.1404 C   0  0  1  0  0  0  0  0  0  0  0  0
   -7.8292   -6.7291    8.7131 O   0  0  0  0  0  0  0  0  0  0  0  0
   -6.7215   -4.7322    9.2921 C   0  0  2  0  0  0  0  0  0  0  0  0
   -4.6541   -0.0739    9.5801 N   0  0  0  0  0  0  0  0  0  0  0  0
   -5.9274   -0.4649    9.8153 C   0  0  1  0  0  0  0  0  0  0  0  0
   -6.8418    0.4573   10.1921 N   0  0  0  0  0  0  0  0  0  0  0  0
   -6.2945   -1.7605    9.6783 N   0  0  0  0  0  0  0  0  0  0  0  0
   -5.3740   -2.6795    9.3000 C   0  0  1  0  0  0  0  0  0  0  0  0
   -4.0673   -2.3080    9.0517 C   0  0  2  0  0  0  0  0  0  0  0  0
   -3.7157   -0.9715    9.2005 C   0  0  0  0  0  0  0  0  0  0  0  0
   -2.5470   -0.5934    8.9862 O   0  0  0  0  0  0  0  0  0  0  0  0
   -3.3966   -3.4218    8.6933 N   0  0  0  0  0  0  0  0  0  0  0  0
   -4.2679   -4.4570    8.7272 C   0  0  0  0  0  0  0  0  0  0  0  0
   -5.4631   -3.9877    9.0990 N   0  0  1  0  0  0  0  0  0  0  0  0
  1  2  1  1  0  0  0
  1  3  1  0  0  0  0
  1  4  2  0  0  0  0
  1  6  1  0  0  0  0
  5  6  1  0  0  0  0
  7  5  1  1  0  0  0
  7  8  1  0  0  0  0
  7  9  1  0  0  0  0
  9 10  1  6  0  0  0
  9 11  1  0  0  0  0
 11 12  1  1  0  0  0
 11 13  1  0  0  0  0
 13  8  1  1  0  0  0
 13 24  1  0  0  0  0
 14 15  1  0  0  0  0
 14 20  1  0  0  0  0
 15 16  1  6  0  0  0
 15 17  1  0  0  0  0
 18 17  1  1  0  0  0
 18 19  1  0  0  0  0
 18 24  1  0  0  0  0
 19 20  1  6  0  0  0
 19 22  1  0  0  0  0
 20 21  2  0  0  0  0
 22 23  1  0  0  0  0
 24 23  1  1  0  0  0
M  CHG  1   3  -1
M  END
>  <CHROM.1>
-160.99888994,-176.53417657,-76.64481245,-59.05052772,-6.12598949,-4.68080880
10.96247247,2.94061942,-1.21548261,-2.39168018

>  <Name>
ligand

>  <RI>
0

>  <Rbt.Current_Directory>
/home/itssahil/PROJECTS/Mol_Feturizer/New_Systems/rnas/3SLQ

>  <Rbt.Executable>
rbdock ($Id: //depot/dev/client3/rdock/2013.1/src/exe/rbdock.cxx#4 $)

>  <Rbt.Library>
libRbt.so (2013.1, Build901 2013/11/27)

>  <Rbt.Parameter_File>
/export/apps/rDock/src/rDock_2013.1_src/data/scripts/dock_solv.prm

>  <Rbt.Receptor>
prm/pocket_docking_2.prm

>  <SCORE>
-17.9106

>  <SCORE.INTER>
-14.335

>  <SCORE.INTER.CONST>
1

>  <SCORE.INTER.POLAR>
0

>  <SCORE.INTER.ROT>
4

>  <SCORE.INTER.SOLV>
21.2408

>  <SCORE.INTER.VDW>
-22.9036

>  <SCORE.INTER.norm>
-0.597291

>  <SCORE.INTRA>
-3.59888

>  <SCORE.INTRA.DIHEDRAL>
-10.1751

>  <SCORE.INTRA.DIHEDRAL.0>
13.2525

>  <SCORE.INTRA.POLAR>
0

>  <SCORE.INTRA.POLAR.0>
0

>  <SCORE.INTRA.REPUL>
0

>  <SCORE.INTRA.REPUL.0>
0

>  <SCORE.INTRA.SOLV>
4.12956

>  <SCORE.INTRA.SOLV.lig_0>
-70.7221

>  <SCORE.INTRA.VDW>
-0.57611

>  <SCORE.INTRA.VDW.0>
-1.46337

>  <SCORE.INTRA.norm>
-0.149953

>  <SCORE.RESTR>
0.0233026

>  <SCORE.RESTR.CAVITY>
0.0233026

>  <SCORE.RESTR.norm>
0.000970943

>  <SCORE.SYSTEM>
0

>  <SCORE.SYSTEM.CONST>
0

>  <SCORE.SYSTEM.DIHEDRAL>
0

>  <SCORE.SYSTEM.SOLV>
0

>  <SCORE.SYSTEM.norm>
0

>  <SCORE.heavy>
24

>  <SCORE.norm>
-0.746274

>  <RMSD>
1.078

$$$$
ligand
 OpenBabel11021811483D
libRbt.so/2013.1/901 2013/11/27
 24 26  0  0  0  0  0  0  0  0999 V2000
   -5.7706   -7.7401   14.8821 P   0  0  1  0  0  0  0  0  0  0  0  0
   -6.1589   -9.1862   15.1050 O   0  0  0  0  0  0  0  0  0  0  0  0
   -6.4938   -6.7146   15.7229 O   0  5  0  0  0  0  0  0  0  0  0  0
   -4.2686   -7.5036   14.8295 O   0  0  0  0  0  0  0  0  0  0  0  0
   -6.2558   -6.1162   12.7747 C   0  0  0  0  0  0  0  0  0  0  0  0
   -6.3653   -7.4021   13.4093 O   0  0  0  0  0  0  0  0  0  0  0  0
   -6.9713   -6.1410   11.4208 C   0  0  1  0  0  0  0  0  0  0  0  0
   -6.9890   -4.8483   10.8020 O   0  0  0  0  0  0  0  0  0  0  0  0
   -6.3607   -7.0791   10.3937 C   0  0  1  0  0  0  0  0  0  0  0  0
   -6.9848   -8.3613   10.5089 O   0  0  0  0  0  0  0  0  0  0  0  0
   -6.6953   -6.4135    9.0689 C   0  0  1  0  0  0  0  0  0  0  0  0
   -8.0313   -6.7440    8.6636 O   0  0  0  0  0  0  0  0  0  0  0  0
   -6.7143   -4.9340    9.3982 C   0  0  2  0  0  0  0  0  0  0  0  0
   -4.3191   -0.4340    9.6619 N   0  0  0  0  0  0  0  0  0  0  0  0
   -5.6209   -0.7286    9.8806 C   0  0  1  0  0  0  0  0  0  0  0  0
   -6.4718    0.2625   10.2302 N   0  0  0  0  0  0  0  0  0  0  0  0
   -6.0789   -1.9960    9.7538 N   0  0  0  0  0  0  0  0  0  0  0  0
   -5.2217   -2.9843    9.4027 C   0  0  1  0  0  0  0  0  0  0  0  0
   -3.8876   -2.7119    9.1718 C   0  0  2  0  0  0  0  0  0  0  0  0
   -3.4424   -1.4023    9.3095 C   0  0  0  0  0  0  0  0  0  0  0  0
   -2.2461   -1.1128    9.1102 O   0  0  0  0  0  0  0  0  0  0  0  0
   -3.2939   -3.8761    8.8388 N   0  0  0  0  0  0  0  0  0  0  0  0
   -4.2386   -4.8449    8.8712 C   0  0  0  0  0  0  0  0  0  0  0  0
   -5.4023   -4.2853    9.2169 N   0  0  1  0  0  0  0  0  0  0  0  0
  1  2  1  1  0  0  0
  1  3  1  0  0  0  0
  1  4  2  0  0  0  0
  1  6  1  0  0  0  0
  5  6  1  0  0  0  0
  7  5  1  1  0  0  0
  7  8  1  0  0  0  0
  7  9  1  0  0  0  0
  9 10  1  6  0  0  0
  9 11  1  0  0  0  0
 11 12  1  1  0  0  0
 11 13  1  0  0  0  0
 13  8  1  1  0  0  0
 13 24  1  0  0  0  0
 14 15  1  0  0  0  0
 14 20  1  0  0  0  0
 15 16  1  6  0  0  0
 15 17  1  0  0  0  0
 18 17  1  1  0  0  0
 18 19  1  0  0  0  0
 18 24  1  0  0  0  0
 19 20  1  6  0  0  0
 19 22  1  0  0  0  0
 20 21  2  0  0  0  0
 22 23  1  0  0  0  0
 24 23  1  1  0  0  0
M  CHG  1   3  -1
M  END
>  <CHROM.1>
178.95563815,174.96005316,-177.88819050,-67.52038429,-5.63825865,-4.98984306
11.15896925,-1.97551118,-1.04385711,-1.01979157

>  <Name>
ligand

>  <RI>
0

>  <Rbt.Current_Directory>
/home/itssahil/PROJECTS/Mol_Feturizer/New_Systems/rnas/3SLQ

>  <Rbt.Executable>
rbdock ($Id: //depot/dev/client3/rdock/2013.1/src/exe/rbdock.cxx#4 $)

>  <Rbt.Library>
libRbt.so (2013.1, Build901 2013/11/27)

>  <Rbt.Parameter_File>
/export/apps/rDock/src/rDock_2013.1_src/data/scripts/dock_solv.prm

>  <Rbt.Receptor>
prm/pocket_docking_8.prm

>  <SCORE>
-21.0608

>  <SCORE.INTER>
-15.2321

>  <SCORE.INTER.CONST>
1

>  <SCORE.INTER.POLAR>
0

>  <SCORE.INTER.ROT>
4

>  <SCORE.INTER.SOLV>
24.7509

>  <SCORE.INTER.VDW>
-24.6717

>  <SCORE.INTER.norm>
-0.634669

>  <SCORE.INTRA>
-5.82873

>  <SCORE.INTRA.DIHEDRAL>
-11.9436

>  <SCORE.INTRA.DIHEDRAL.0>
13.2525

>  <SCORE.INTRA.POLAR>
0

>  <SCORE.INTRA.POLAR.0>
0

>  <SCORE.INTRA.REPUL>
0

>  <SCORE.INTRA.REPUL.0>
0

>  <SCORE.INTRA.SOLV>
0.614709

>  <SCORE.INTRA.SOLV.lig_0>
-70.7221

>  <SCORE.INTRA.VDW>
-0.16427

>  <SCORE.INTRA.VDW.0>
-1.46337

>  <SCORE.INTRA.norm>
-0.242864

>  <SCORE.RESTR>
0

>  <SCORE.RESTR.CAVITY>
0

>  <SCORE.RESTR.norm>
0

>  <SCORE.SYSTEM>
0

>  <SCORE.SYSTEM.CONST>
0

>  <SCORE.SYSTEM.DIHEDRAL>
0

>  <SCORE.SYSTEM.SOLV>
0

>  <SCORE.SYSTEM.norm>
0

>  <SCORE.heavy>
24

>  <SCORE.norm>
-0.877533

>  <RMSD>
1.097

$$$$
ligand
 OpenBabel11021811483D
libRbt.so/2013.1/901 2013/11/27
 24 26  0  0  0  0  0  0  0  0999 V2000
   -7.2972   -6.5926   14.4640 P   0  0  1  0  0  0  0  0  0  0  0  0
   -8.2063   -5.5122   13.9182 O   0  0  0  0  0  0  0  0  0  0  0  0
   -6.8725   -6.4459   15.9062 O   0  5  0  0  0  0  0  0  0  0  0  0
   -7.7428   -8.0068   14.1233 O   0  0  0  0  0  0  0  0  0  0  0  0
   -5.5249   -6.9451   12.4520 C   0  0  0  0  0  0  0  0  0  0  0  0
   -5.8868   -6.3332   13.7021 O   0  0  0  0  0  0  0  0  0  0  0  0
   -6.5650   -6.5988   11.3823 C   0  0  1  0  0  0  0  0  0  0  0  0
   -6.6141   -5.1905   11.1209 O   0  0  0  0  0  0  0  0  0  0  0  0
   -6.3366   -7.2588   10.0333 C   0  0  1  0  0  0  0  0  0  0  0  0
   -7.0335   -8.5080   10.0050 O   0  0  0  0  0  0  0  0  0  0  0  0
   -6.9348   -6.2647    9.0513 C   0  0  1  0  0  0  0  0  0  0  0  0
   -8.3560   -6.4393    8.9624 O   0  0  0  0  0  0  0  0  0  0  0  0
   -6.7215   -4.9201    9.7177 C   0  0  2  0  0  0  0  0  0  0  0  0
   -4.3358   -0.4172    9.4194 N   0  0  0  0  0  0  0  0  0  0  0  0
   -5.6012   -0.6951    9.8078 C   0  0  1  0  0  0  0  0  0  0  0  0
   -6.4103    0.3174   10.1936 N   0  0  0  0  0  0  0  0  0  0  0  0
   -6.0642   -1.9670    9.8142 N   0  0  0  0  0  0  0  0  0  0  0  0
   -5.2491   -2.9768    9.4261 C   0  0  1  0  0  0  0  0  0  0  0  0
   -3.9530   -2.7218    9.0231 C   0  0  2  0  0  0  0  0  0  0  0  0
   -3.5016   -1.4072    9.0264 C   0  0  0  0  0  0  0  0  0  0  0  0
   -2.3387   -1.1330    8.6699 O   0  0  0  0  0  0  0  0  0  0  0  0
   -3.3966   -3.9057    8.6948 N   0  0  0  0  0  0  0  0  0  0  0  0
   -4.3256   -4.8687    8.8979 C   0  0  0  0  0  0  0  0  0  0  0  0
   -5.4435   -4.2864    9.3433 N   0  0  1  0  0  0  0  0  0  0  0  0
  1  2  1  6  0  0  0
  1  3  1  0  0  0  0
  1  4  2  0  0  0  0
  1  6  1  0  0  0  0
  5  6  1  0  0  0  0
  7  5  1  1  0  0  0
  7  8  1  0  0  0  0
  7  9  1  0  0  0  0
  9 10  1  1  0  0  0
  9 11  1  0  0  0  0
 11 12  1  1  0  0  0
 11 13  1  0  0  0  0
 13  8  1  1  0  0  0
 13 24  1  0  0  0  0
 14 15  1  0  0  0  0
 14 20  1  0  0  0  0
 15 16  1  6  0  0  0
 15 17  1  0  0  0  0
 18 17  1  1  0  0  0
 18 19  1  0  0  0  0
 18 24  1  0  0  0  0
 19 20  1  6  0  0  0
 19 22  1  0  0  0  0
 20 21  2  0  0  0  0
 22 23  1  0  0  0  0
 24 23  1  1  0  0  0
M  CHG  1   3  -1
M  END
>  <CHROM.1>
-90.58505166,63.09079521,57.78681659,-88.07203569,-5.99490157,-4.74317794
11.00298438,-3.06452863,-1.18033687,-2.17093452

>  <Name>
ligand

>  <RI>
0

>  <Rbt.Current_Directory>
/home/itssahil/PROJECTS/Mol_Feturizer/New_Systems/rnas/3SLQ

>  <Rbt.Executable>
rbdock ($Id: //depot/dev/client3/rdock/2013.1/src/exe/rbdock.cxx#4 $)

>  <Rbt.Library>
libRbt.so (2013.1, Build901 2013/11/27)

>  <Rbt.Parameter_File>
/export/apps/rDock/src/rDock_2013.1_src/data/scripts/dock_solv.prm

>  <Rbt.Receptor>
prm/pocket_docking_5.prm

>  <SCORE>
-21.6667

>  <SCORE.INTER>
-16.5444

>  <SCORE.INTER.CONST>
1

>  <SCORE.INTER.POLAR>
0

>  <SCORE.INTER.ROT>
4

>  <SCORE.INTER.SOLV>
23.6701

>  <SCORE.INTER.VDW>
-25.1863

>  <SCORE.INTER.norm>
-0.689349

>  <SCORE.INTRA>
-5.12229

>  <SCORE.INTRA.DIHEDRAL>
-10.7818

>  <SCORE.INTRA.DIHEDRAL.0>
13.2525

>  <SCORE.INTRA.POLAR>
0

>  <SCORE.INTRA.POLAR.0>
0

>  <SCORE.INTRA.REPUL>
0

>  <SCORE.INTRA.REPUL.0>
0

>  <SCORE.INTRA.SOLV>
1.76521

>  <SCORE.INTRA.SOLV.lig_0>
-70.7221

>  <SCORE.INTRA.VDW>
-0.614004

>  <SCORE.INTRA.VDW.0>
-1.46337

>  <SCORE.INTRA.norm>
-0.213429

>  <SCORE.RESTR>
0

>  <SCORE.RESTR.CAVITY>
0

>  <SCORE.RESTR.norm>
0

>  <SCORE.SYSTEM>
0

>  <SCORE.SYSTEM.CONST>
0

>  <SCORE.SYSTEM.DIHEDRAL>
0

>  <SCORE.SYSTEM.SOLV>
0

>  <SCORE.SYSTEM.norm>
0

>  <SCORE.heavy>
24

>  <SCORE.norm>
-0.902778

>  <RMSD>
1.104

$$$$
ligand
 OpenBabel11021811483D
libRbt.so/2013.1/901 2013/11/27
 24 26  0  0  0  0  0  0  0  0999 V2000
   -7.3211   -6.6678   14.4476 P   0  0  1  0  0  0  0  0  0  0  0  0
   -7.6515   -8.0670   13.9739 O   0  0  0  0  0  0  0  0  0  0  0  0
   -8.1966   -5.5565   13.9180 O   0  5  0  0  0  0  0  0  0  0  0  0
   -7.0796   -6.5625   15.9460 O   0  0  0  0  0  0  0  0  0  0  0  0
   -5.5052   -6.9155   12.4589 C   0  0  0  0  0  0  0  0  0  0  0  0
   -5.9163   -6.3297   13.7064 O   0  0  0  0  0  0  0  0  0  0  0  0
   -6.5404   -6.6076   11.3729 C   0  0  1  0  0  0  0  0  0  0  0  0
   -6.6175   -5.2047   11.0905 O   0  0  0  0  0  0  0  0  0  0  0  0
   -6.2821   -7.2816   10.0361 C   0  0  1  0  0  0  0  0  0  0  0  0
   -6.9508   -8.5462   10.0182 O   0  0  0  0  0  0  0  0  0  0  0  0
   -6.8908   -6.3151    9.0333 C   0  0  1  0  0  0  0  0  0  0  0  0
   -8.3067   -6.5225    8.9311 O   0  0  0  0  0  0  0  0  0  0  0  0
   -6.7149   -4.9567    9.6824 C   0  0  2  0  0  0  0  0  0  0  0  0
   -4.4001   -0.4148    9.4193 N   0  0  0  0  0  0  0  0  0  0  0  0
   -5.6610   -0.7154    9.8053 C   0  0  1  0  0  0  0  0  0  0  0  0
   -6.4859    0.2812   10.1988 N   0  0  0  0  0  0  0  0  0  0  0  0
   -6.1040   -1.9945    9.8018 N   0  0  0  0  0  0  0  0  0  0  0  0
   -5.2731   -2.9884    9.4060 C   0  0  1  0  0  0  0  0  0  0  0  0
   -3.9812   -2.7100    9.0052 C   0  0  2  0  0  0  0  0  0  0  0  0
   -3.5505   -1.3885    9.0187 C   0  0  0  0  0  0  0  0  0  0  0  0
   -2.3920   -1.0933    8.6646 O   0  0  0  0  0  0  0  0  0  0  0  0
   -3.4062   -3.8824    8.6678 N   0  0  0  0  0  0  0  0  0  0  0  0
   -4.3201   -4.8614    8.8634 C   0  0  0  0  0  0  0  0  0  0  0  0
   -5.4469   -4.3002    9.3131 N   0  0  1  0  0  0  0  0  0  0  0  0
  1  2  1  6  0  0  0
  1  3  1  0  0  0  0
  1  4  2  0  0  0  0
  1  6  1  0  0  0  0
  5  6  1  0  0  0  0
  7  5  1  1  0  0  0
  7  8  1  0  0  0  0
  7  9  1  0  0  0  0
  9 10  1  1  0  0  0
  9 11  1  0  0  0  0
 11 12  1  1  0  0  0
 11 13  1  0  0  0  0
 13  8  1  1  0  0  0
 13 24  1  0  0  0  0
 14 15  1  0  0  0  0
 14 20  1  0  0  0  0
 15 16  1  6  0  0  0
 15 17  1  0  0  0  0
 18 17  1  1  0  0  0
 18 19  1  0  0  0  0
 18 24  1  0  0  0  0
 19 20  1  6  0  0  0
 19 22  1  0  0  0  0
 20 21  2  0  0  0  0
 22 23  1  0  0  0  0
 24 23  1  1  0  0  0
M  CHG  1   3  -1
M  END
>  <CHROM.1>
26.86724671,64.91244287,58.38164387,-86.60396048,-6.00702407,-4.76887959
10.98710212,-3.14028363,-1.18754399,-2.24977222

>  <Name>
ligand

>  <RI>
0

>  <Rbt.Current_Directory>
/home/itssahil/PROJECTS/Mol_Feturizer/New_Systems/rnas/3SLQ

>  <Rbt.Executable>
rbdock ($Id: //depot/dev/client3/rdock/2013.1/src/exe/rbdock.cxx#4 $)

>  <Rbt.Library>
libRbt.so (2013.1, Build901 2013/11/27)

>  <Rbt.Parameter_File>
/export/apps/rDock/src/rDock_2013.1_src/data/scripts/dock_solv.prm

>  <Rbt.Receptor>
prm/pocket_docking_3.prm

>  <SCORE>
-19.7076

>  <SCORE.INTER>
-14.9013

>  <SCORE.INTER.CONST>
1

>  <SCORE.INTER.POLAR>
0

>  <SCORE.INTER.ROT>
4

>  <SCORE.INTER.SOLV>
26.4887

>  <SCORE.INTER.VDW>
-25.0304

>  <SCORE.INTER.norm>
-0.620888

>  <SCORE.INTRA>
-4.80625

>  <SCORE.INTRA.DIHEDRAL>
-10.5816

>  <SCORE.INTRA.DIHEDRAL.0>
13.2525

>  <SCORE.INTRA.POLAR>
0

>  <SCORE.INTRA.POLAR.0>
0

>  <SCORE.INTRA.REPUL>
0

>  <SCORE.INTRA.REPUL.0>
0

>  <SCORE.INTRA.SOLV>
1.78185

>  <SCORE.INTRA.SOLV.lig_0>
-70.7221

>  <SCORE.INTRA.VDW>
-0.406374

>  <SCORE.INTRA.VDW.0>
-1.46337

>  <SCORE.INTRA.norm>
-0.20026

>  <SCORE.RESTR>
0

>  <SCORE.RESTR.CAVITY>
0

>  <SCORE.RESTR.norm>
0

>  <SCORE.SYSTEM>
0

>  <SCORE.SYSTEM.CONST>
0

>  <SCORE.SYSTEM.DIHEDRAL>
0

>  <SCORE.SYSTEM.SOLV>
0

>  <SCORE.SYSTEM.norm>
0

>  <SCORE.heavy>
24

>  <SCORE.norm>
-0.821148

>  <RMSD>
1.123

$$$$
ligand
 OpenBabel11021811483D
libRbt.so/2013.1/901 2013/11/27
 24 26  0  0  0  0  0  0  0  0999 V2000
   -7.2257   -6.7285   14.4117 P   0  0  1  0  0  0  0  0  0  0  0  0
   -6.7608   -6.9048   15.8415 O   0  0  0  0  0  0  0  0  0  0  0  0
   -8.5876   -7.2889   14.0757 O   0  5  0  0  0  0  0  0  0  0  0  0
   -7.0148   -5.3262   13.8607 O   0  0  0  0  0  0  0  0  0  0  0  0
   -5.6422   -7.3806   12.3186 C   0  0  0  0  0  0  0  0  0  0  0  0
   -6.2663   -7.7296   13.5664 O   0  0  0  0  0  0  0  0  0  0  0  0
   -6.7128   -7.0283   11.2815 C   0  0  1  0  0  0  0  0  0  0  0  0
   -6.8596   -5.6113   11.1252 O   0  0  0  0  0  0  0  0  0  0  0  0
   -6.4521   -7.5701    9.8864 C   0  0  1  0  0  0  0  0  0  0  0  0
   -7.0627   -8.8585    9.7683 O   0  0  0  0  0  0  0  0  0  0  0  0
   -7.1250   -6.5497    8.9830 C   0  0  1  0  0  0  0  0  0  0  0  0
   -8.5318   -6.8140    8.8868 O   0  0  0  0  0  0  0  0  0  0  0  0
   -6.9976   -5.2463    9.7463 C   0  0  2  0  0  0  0  0  0  0  0  0
   -4.9439   -0.5731    9.7241 N   0  0  0  0  0  0  0  0  0  0  0  0
   -6.1858   -0.9642   10.0904 C   0  0  1  0  0  0  0  0  0  0  0  0
   -7.0658   -0.0374   10.5323 N   0  0  0  0  0  0  0  0  0  0  0  0
   -6.5555   -2.2643   10.0198 N   0  0  0  0  0  0  0  0  0  0  0  0
   -5.6697   -3.1879    9.5758 C   0  0  1  0  0  0  0  0  0  0  0  0
   -4.3956   -2.8166    9.1937 C   0  0  2  0  0  0  0  0  0  0  0  0
   -4.0405   -1.4753    9.2765 C   0  0  0  0  0  0  0  0  0  0  0  0
   -2.9006   -1.0971    8.9414 O   0  0  0  0  0  0  0  0  0  0  0  0
   -3.7551   -3.9356    8.7980 N   0  0  0  0  0  0  0  0  0  0  0  0
   -4.6120   -4.9735    8.9403 C   0  0  0  0  0  0  0  0  0  0  0  0
   -5.7689   -4.5009    9.4150 N   0  0  1  0  0  0  0  0  0  0  0  0
  1  2  1  1  0  0  0
  1  3  1  0  0  0  0
  1  4  2  0  0  0  0
  1  6  1  0  0  0  0
  5  6  1  0  0  0  0
  7  5  1  1  0  0  0
  7  8  1  0  0  0  0
  7  9  1  0  0  0  0
  9 10  1  1  0  0  0
  9 11  1  0  0  0  0
 11 12  1  1  0  0  0
 11 13  1  0  0  0  0
 13  8  1  1  0  0  0
 13 24  1  0  0  0  0
 14 15  1  0  0  0  0
 14 20  1  0  0  0  0
 15 16  1  6  0  0  0
 15 17  1  0  0  0  0
 18 17  1  1  0  0  0
 18 19  1  0  0  0  0
 18 24  1  0  0  0  0
 19 20  1  6  0  0  0
 19 22  1  0  0  0  0
 20 21  2  0  0  0  0
 22 23  1  0  0  0  0
 24 23  1  1  0  0  0
M  CHG  1   3  -1
M  END
>  <CHROM.1>
-136.18802476,100.78806805,-59.82692757,-89.05818144,-6.23514237,-4.98145084
11.03785685,-3.09982012,-1.24388589,-2.14631630

>  <Name>
ligand

>  <RI>
0

>  <Rbt.Current_Directory>
/home/itssahil/PROJECTS/Mol_Feturizer/New_Systems/rnas/3SLQ

>  <Rbt.Executable>
rbdock ($Id: //depot/dev/client3/rdock/2013.1/src/exe/rbdock.cxx#4 $)

>  <Rbt.Library>
libRbt.so (2013.1, Build901 2013/11/27)

>  <Rbt.Parameter_File>
/export/apps/rDock/src/rDock_2013.1_src/data/scripts/dock_solv.prm

>  <Rbt.Receptor>
prm/pocket_docking_2.prm

>  <SCORE>
-15.8623

>  <SCORE.INTER>
-14.3175

>  <SCORE.INTER.CONST>
1

>  <SCORE.INTER.POLAR>
0

>  <SCORE.INTER.ROT>
4

>  <SCORE.INTER.SOLV>
23.1188

>  <SCORE.INTER.VDW>
-23.5179

>  <SCORE.INTER.norm>
-0.596564

>  <SCORE.INTRA>
-1.6271

>  <SCORE.INTRA.DIHEDRAL>
-6.02542

>  <SCORE.INTRA.DIHEDRAL.0>
13.2525

>  <SCORE.INTRA.POLAR>
0

>  <SCORE.INTRA.POLAR.0>
0

>  <SCORE.INTRA.REPUL>
0

>  <SCORE.INTRA.REPUL.0>
0

>  <SCORE.INTRA.SOLV>
3.70627

>  <SCORE.INTRA.SOLV.lig_0>
-70.7221

>  <SCORE.INTRA.VDW>
-0.467528

>  <SCORE.INTRA.VDW.0>
-1.46337

>  <SCORE.INTRA.norm>
-0.0677958

>  <SCORE.RESTR>
0.0823289

>  <SCORE.RESTR.CAVITY>
0.0823289

>  <SCORE.RESTR.norm>
0.00343037

>  <SCORE.SYSTEM>
0

>  <SCORE.SYSTEM.CONST>
0

>  <SCORE.SYSTEM.DIHEDRAL>
0

>  <SCORE.SYSTEM.SOLV>
0

>  <SCORE.SYSTEM.norm>
0

>  <SCORE.heavy>
24

>  <SCORE.norm>
-0.66093

>  <RMSD>
1.136

$$$$
ligand
 OpenBabel11021811483D
libRbt.so/2013.1/901 2013/11/27
 24 26  0  0  0  0  0  0  0  0999 V2000
   -5.4291   -7.8693   14.5584 P   0  0  1  0  0  0  0  0  0  0  0  0
   -5.8870   -7.0285   15.7310 O   0  0  0  0  0  0  0  0  0  0  0  0
   -4.0048   -7.6613   14.1001 O   0  5  0  0  0  0  0  0  0  0  0  0
   -5.8025   -9.3401   14.6683 O   0  0  0  0  0  0  0  0  0  0  0  0
   -6.0034   -7.6165   11.9279 C   0  0  0  0  0  0  0  0  0  0  0  0
   -6.2485   -7.2551   13.2981 O   0  0  0  0  0  0  0  0  0  0  0  0
   -7.0577   -6.9724   11.0228 C   0  0  1  0  0  0  0  0  0  0  0  0
   -6.9667   -5.5421   11.0304 O   0  0  0  0  0  0  0  0  0  0  0  0
   -6.9794   -7.3807    9.5616 C   0  0  1  0  0  0  0  0  0  0  0  0
   -7.8095   -8.5277    9.3562 O   0  0  0  0  0  0  0  0  0  0  0  0
   -7.5193   -6.1636    8.8285 C   0  0  1  0  0  0  0  0  0  0  0  0
   -8.9539   -6.1791    8.8172 O   0  0  0  0  0  0  0  0  0  0  0  0
   -7.1227   -4.9987    9.7136 C   0  0  2  0  0  0  0  0  0  0  0  0
   -4.4926   -0.6293    9.4965 N   0  0  0  0  0  0  0  0  0  0  0  0
   -5.7778   -0.8414    9.8608 C   0  0  1  0  0  0  0  0  0  0  0  0
   -6.5376    0.2102   10.2420 N   0  0  0  0  0  0  0  0  0  0  0  0
   -6.3088   -2.0864    9.8479 N   0  0  0  0  0  0  0  0  0  0  0  0
   -5.5427   -3.1357    9.4645 C   0  0  1  0  0  0  0  0  0  0  0  0
   -4.2280   -2.9479    9.0859 C   0  0  2  0  0  0  0  0  0  0  0  0
   -3.7064   -1.6597    9.1087 C   0  0  0  0  0  0  0  0  0  0  0  0
   -2.5243   -1.4460    8.7745 O   0  0  0  0  0  0  0  0  0  0  0  0
   -3.7305   -4.1574    8.7564 N   0  0  0  0  0  0  0  0  0  0  0  0
   -4.7136   -5.0704    8.9351 C   0  0  0  0  0  0  0  0  0  0  0  0
   -5.8060   -4.4321    9.3667 N   0  0  1  0  0  0  0  0  0  0  0  0
  1  2  1  1  0  0  0
  1  3  1  0  0  0  0
  1  4  2  0  0  0  0
  1  6  1  0  0  0  0
  5  6  1  0  0  0  0
  7  5  1  1  0  0  0
  7  8  1  0  0  0  0
  7  9  1  0  0  0  0
  9 10  1  1  0  0  0
  9 11  1  0  0  0  0
 11 12  1  1  0  0  0
 11 13  1  0  0  0  0
 13  8  1  1  0  0  0
 13 24  1  0  0  0  0
 14 15  1  0  0  0  0
 14 20  1  0  0  0  0
 15 16  1  6  0  0  0
 15 17  1  0  0  0  0
 18 17  1  1  0  0  0
 18 19  1  0  0  0  0
 18 24  1  0  0  0  0
 19 20  1  6  0  0  0
 19 22  1  0  0  0  0
 20 21  2  0  0  0  0
 22 23  1  0  0  0  0
 24 23  1  1  0  0  0
M  CHG  1   3  -1
M  END
>  <CHROM.1>
171.12999213,64.77812679,173.54780604,-99.86618847,-5.80355762,-5.20843152
10.94212869,-1.78928541,-0.88695541,-0.79134952

>  <Name>
ligand

>  <RI>
0

>  <Rbt.Current_Directory>
/home/itssahil/PROJECTS/Mol_Feturizer/New_Systems/rnas/3SLQ

>  <Rbt.Executable>
rbdock ($Id: //depot/dev/client3/rdock/2013.1/src/exe/rbdock.cxx#4 $)

>  <Rbt.Library>
libRbt.so (2013.1, Build901 2013/11/27)

>  <Rbt.Parameter_File>
/export/apps/rDock/src/rDock_2013.1_src/data/scripts/dock_solv.prm

>  <Rbt.Receptor>
prm/pocket_docking_3.prm

>  <SCORE>
-20.1425

>  <SCORE.INTER>
-14.3744

>  <SCORE.INTER.CONST>
1

>  <SCORE.INTER.POLAR>
0

>  <SCORE.INTER.ROT>
4

>  <SCORE.INTER.SOLV>
19.9385

>  <SCORE.INTER.VDW>
-22.4957

>  <SCORE.INTER.norm>
-0.598931

>  <SCORE.INTRA>
-5.76814

>  <SCORE.INTRA.DIHEDRAL>
-11.6586

>  <SCORE.INTRA.DIHEDRAL.0>
13.2525

>  <SCORE.INTRA.POLAR>
0

>  <SCORE.INTRA.POLAR.0>
0

>  <SCORE.INTRA.REPUL>
0

>  <SCORE.INTRA.REPUL.0>
0

>  <SCORE.INTRA.SOLV>
0.436759

>  <SCORE.INTRA.SOLV.lig_0>
-70.7221

>  <SCORE.INTRA.VDW>
-0.157211

>  <SCORE.INTRA.VDW.0>
-1.46337

>  <SCORE.INTRA.norm>
-0.240339

>  <SCORE.RESTR>
0

>  <SCORE.RESTR.CAVITY>
0

>  <SCORE.RESTR.norm>
0

>  <SCORE.SYSTEM>
0

>  <SCORE.SYSTEM.CONST>
0

>  <SCORE.SYSTEM.DIHEDRAL>
0

>  <SCORE.SYSTEM.SOLV>
0

>  <SCORE.SYSTEM.norm>
0

>  <SCORE.heavy>
24

>  <SCORE.norm>
-0.839271

>  <RMSD>
1.150

$$$$
ligand
 OpenBabel11021811483D
libRbt.so/2013.1/901 2013/11/27
 24 26  0  0  0  0  0  0  0  0999 V2000
   -5.3335   -7.8384   14.5812 P   0  0  1  0  0  0  0  0  0  0  0  0
   -3.9074   -7.3890   14.3444 O   0  0  0  0  0  0  0  0  0  0  0  0
   -5.5664   -9.3300   14.6331 O   0  5  0  0  0  0  0  0  0  0  0  0
   -6.0385   -7.0938   15.7050 O   0  0  0  0  0  0  0  0  0  0  0  0
   -6.1777   -6.1239   12.6676 C   0  0  0  0  0  0  0  0  0  0  0  0
   -6.0940   -7.4583   13.1976 O   0  0  0  0  0  0  0  0  0  0  0  0
   -6.8871   -6.1462   11.3104 C   0  0  1  0  0  0  0  0  0  0  0  0
   -6.9033   -4.8521   10.6947 O   0  0  0  0  0  0  0  0  0  0  0  0
   -6.2710   -7.0812   10.2839 C   0  0  1  0  0  0  0  0  0  0  0  0
   -6.8943   -8.3643   10.3932 O   0  0  0  0  0  0  0  0  0  0  0  0
   -6.6003   -6.4128    8.9591 C   0  0  1  0  0  0  0  0  0  0  0  0
   -7.9341   -6.7437    8.5471 O   0  0  0  0  0  0  0  0  0  0  0  0
   -6.6223   -4.9341    9.2919 C   0  0  2  0  0  0  0  0  0  0  0  0
   -4.2387   -0.4277    9.5508 N   0  0  0  0  0  0  0  0  0  0  0  0
   -5.5417   -0.7238    9.7601 C   0  0  1  0  0  0  0  0  0  0  0  0
   -6.3976    0.2674   10.0971 N   0  0  0  0  0  0  0  0  0  0  0  0
   -5.9959   -1.9929    9.6365 N   0  0  0  0  0  0  0  0  0  0  0  0
   -5.1338   -2.9813    9.2982 C   0  0  1  0  0  0  0  0  0  0  0  0
   -3.7984   -2.7073    9.0769 C   0  0  2  0  0  0  0  0  0  0  0  0
   -3.3571   -1.3961    9.2111 C   0  0  0  0  0  0  0  0  0  0  0  0
   -2.1597   -1.1052    9.0202 O   0  0  0  0  0  0  0  0  0  0  0  0
   -3.1995   -3.8721    8.7554 N   0  0  0  0  0  0  0  0  0  0  0  0
   -4.1424   -4.8428    8.7852 C   0  0  0  0  0  0  0  0  0  0  0  0
   -5.3102   -4.2837    9.1180 N   0  0  1  0  0  0  0  0  0  0  0  0
  1  2  1  6  0  0  0
  1  3  1  0  0  0  0
  1  4  2  0  0  0  0
  1  6  1  0  0  0  0
  5  6  1  0  0  0  0
  7  5  1  1  0  0  0
  7  8  1  0  0  0  0
  7  9  1  0  0  0  0
  9 10  1  6  0  0  0
  9 11  1  0  0  0  0
 11 12  1  1  0  0  0
 11 13  1  0  0  0  0
 13  8  1  1  0  0  0
 13 24  1  0  0  0  0
 14 15  1  0  0  0  0
 14 20  1  0  0  0  0
 15 16  1  6  0  0  0
 15 17  1  0  0  0  0
 18 17  1  1  0  0  0
 18 19  1  0  0  0  0
 18 24  1  0  0  0  0
 19 20  1  6  0  0  0
 19 22  1  0  0  0  0
 20 21  2  0  0  0  0
 22 23  1  0  0  0  0
 24 23  1  1  0  0  0
M  CHG  1   3  -1
M  END
>  <CHROM.1>
-59.29864939,-175.52532394,176.43266716,-68.03090096,-5.46038986,-5.01835216
11.00118872,-1.86401541,-0.97161900,-0.87975081

>  <Name>
ligand

>  <RI>
0

>  <Rbt.Current_Directory>
/home/itssahil/PROJECTS/Mol_Feturizer/New_Systems/rnas/3SLQ

>  <Rbt.Executable>
rbdock ($Id: //depot/dev/client3/rdock/2013.1/src/exe/rbdock.cxx#4 $)

>  <Rbt.Library>
libRbt.so (2013.1, Build901 2013/11/27)

>  <Rbt.Parameter_File>
/export/apps/rDock/src/rDock_2013.1_src/data/scripts/dock_solv.prm

>  <Rbt.Receptor>
prm/pocket_docking_4.prm

>  <SCORE>
-22.8224

>  <SCORE.INTER>
-16.658

>  <SCORE.INTER.CONST>
1

>  <SCORE.INTER.POLAR>
0

>  <SCORE.INTER.ROT>
4

>  <SCORE.INTER.SOLV>
21.3417

>  <SCORE.INTER.VDW>
-24.4859

>  <SCORE.INTER.norm>
-0.694081

>  <SCORE.INTRA>
-6.16443

>  <SCORE.INTRA.DIHEDRAL>
-11.9247

>  <SCORE.INTRA.DIHEDRAL.0>
13.2525

>  <SCORE.INTRA.POLAR>
0

>  <SCORE.INTRA.POLAR.0>
0

>  <SCORE.INTRA.REPUL>
0

>  <SCORE.INTRA.REPUL.0>
0

>  <SCORE.INTRA.SOLV>
0.0679531

>  <SCORE.INTRA.SOLV.lig_0>
-70.7221

>  <SCORE.INTRA.VDW>
-0.236063

>  <SCORE.INTRA.VDW.0>
-1.46337

>  <SCORE.INTRA.norm>
-0.256851

>  <SCORE.RESTR>
0

>  <SCORE.RESTR.CAVITY>
0

>  <SCORE.RESTR.norm>
0

>  <SCORE.SYSTEM>
0

>  <SCORE.SYSTEM.CONST>
0

>  <SCORE.SYSTEM.DIHEDRAL>
0

>  <SCORE.SYSTEM.SOLV>
0

>  <SCORE.SYSTEM.norm>
0

>  <SCORE.heavy>
24

>  <SCORE.norm>
-0.950933

>  <RMSD>
1.161

$$$$
ligand
 OpenBabel11021811483D
libRbt.so/2013.1/901 2013/11/27
 24 26  0  0  0  0  0  0  0  0999 V2000
   -7.4085   -6.3273   14.4580 P   0  0  1  0  0  0  0  0  0  0  0  0
   -8.1990   -5.0906   14.0874 O   0  0  0  0  0  0  0  0  0  0  0  0
   -6.9440   -6.4211   15.8924 O   0  5  0  0  0  0  0  0  0  0  0  0
   -8.0175   -7.6261   13.9512 O   0  0  0  0  0  0  0  0  0  0  0  0
   -5.6112   -6.8450   12.5048 C   0  0  0  0  0  0  0  0  0  0  0  0
   -5.9917   -6.1256   13.6905 O   0  0  0  0  0  0  0  0  0  0  0  0
   -6.6035   -6.5503   11.3760 C   0  0  1  0  0  0  0  0  0  0  0  0
   -6.6429   -5.1553   11.0497 O   0  0  0  0  0  0  0  0  0  0  0  0
   -6.3149   -7.2693   10.0692 C   0  0  1  0  0  0  0  0  0  0  0  0
   -7.0081   -8.5208   10.0663 O   0  0  0  0  0  0  0  0  0  0  0  0
   -6.8705   -6.3221    9.0183 C   0  0  1  0  0  0  0  0  0  0  0  0
   -8.2862   -6.5051    8.8748 O   0  0  0  0  0  0  0  0  0  0  0  0
   -6.6887   -4.9482    9.6325 C   0  0  2  0  0  0  0  0  0  0  0  0
   -4.2430   -0.4731    9.4124 N   0  0  0  0  0  0  0  0  0  0  0  0
   -5.5188   -0.7381    9.7750 C   0  0  1  0  0  0  0  0  0  0  0  0
   -6.3225    0.2814   10.1532 N   0  0  0  0  0  0  0  0  0  0  0  0
   -5.9972   -2.0043    9.7633 N   0  0  0  0  0  0  0  0  0  0  0  0
   -5.1874   -3.0212    9.3829 C   0  0  1  0  0  0  0  0  0  0  0  0
   -3.8810   -2.7794    9.0061 C   0  0  2  0  0  0  0  0  0  0  0  0
   -3.4137   -1.4705    9.0276 C   0  0  0  0  0  0  0  0  0  0  0  0
   -2.2411   -1.2080    8.6949 O   0  0  0  0  0  0  0  0  0  0  0  0
   -3.3330   -3.9676    8.6793 N   0  0  0  0  0  0  0  0  0  0  0  0
   -4.2774   -4.9205    8.8579 C   0  0  0  0  0  0  0  0  0  0  0  0
   -5.3962   -4.3277    9.2867 N   0  0  1  0  0  0  0  0  0  0  0  0
  1  2  1  6  0  0  0
  1  3  1  0  0  0  0
  1  4  2  0  0  0  0
  1  6  1  0  0  0  0
  5  6  1  0  0  0  0
  7  5  1  1  0  0  0
  7  8  1  0  0  0  0
  7  9  1  0  0  0  0
  9 10  1  1  0  0  0
  9 11  1  0  0  0  0
 11 12  1  1  0  0  0
 11 13  1  0  0  0  0
 13  8  1  1  0  0  0
 13 24  1  0  0  0  0
 14 15  1  0  0  0  0
 14 20  1  0  0  0  0
 15 16  1  6  0  0  0
 15 17  1  0  0  0  0
 18 17  1  1  0  0  0
 18 19  1  0  0  0  0
 18 24  1  0  0  0  0
 19 20  1  6  0  0  0
 19 22  1  0  0  0  0
 20 21  2  0  0  0  0
 22 23  1  0  0  0  0
 24 23  1  1  0  0  0
M  CHG  1   3  -1
M  END
>  <CHROM.1>
-105.24218729,60.22815941,60.60869334,-84.64378446,-5.99161497,-4.69450951
10.98557197,-3.11639737,-1.14726242,-2.25374015

>  <Name>
ligand

>  <RI>
0

>  <Rbt.Current_Directory>
/home/itssahil/PROJECTS/Mol_Feturizer/New_Systems/rnas/3SLQ

>  <Rbt.Executable>
rbdock ($Id: //depot/dev/client3/rdock/2013.1/src/exe/rbdock.cxx#4 $)

>  <Rbt.Library>
libRbt.so (2013.1, Build901 2013/11/27)

>  <Rbt.Parameter_File>
/export/apps/rDock/src/rDock_2013.1_src/data/scripts/dock_solv.prm

>  <Rbt.Receptor>
prm/pocket_docking_3.prm

>  <SCORE>
-21.7749

>  <SCORE.INTER>
-17.3213

>  <SCORE.INTER.CONST>
1

>  <SCORE.INTER.POLAR>
0

>  <SCORE.INTER.ROT>
4

>  <SCORE.INTER.SOLV>
24.0069

>  <SCORE.INTER.VDW>
-25.8165

>  <SCORE.INTER.norm>
-0.721721

>  <SCORE.INTRA>
-4.45361

>  <SCORE.INTRA.DIHEDRAL>
-10.0142

>  <SCORE.INTRA.DIHEDRAL.0>
13.2525

>  <SCORE.INTRA.POLAR>
0

>  <SCORE.INTRA.POLAR.0>
0

>  <SCORE.INTRA.REPUL>
0

>  <SCORE.INTRA.REPUL.0>
0

>  <SCORE.INTRA.SOLV>
2.10787

>  <SCORE.INTRA.SOLV.lig_0>
-70.7221

>  <SCORE.INTRA.VDW>
-0.500428

>  <SCORE.INTRA.VDW.0>
-1.46337

>  <SCORE.INTRA.norm>
-0.185567

>  <SCORE.RESTR>
0

>  <SCORE.RESTR.CAVITY>
0

>  <SCORE.RESTR.norm>
0

>  <SCORE.SYSTEM>
0

>  <SCORE.SYSTEM.CONST>
0

>  <SCORE.SYSTEM.DIHEDRAL>
0

>  <SCORE.SYSTEM.SOLV>
0

>  <SCORE.SYSTEM.norm>
0

>  <SCORE.heavy>
24

>  <SCORE.norm>
-0.907288

>  <RMSD>
1.174

$$$$
ligand
 OpenBabel11021811483D
libRbt.so/2013.1/901 2013/11/27
 24 26  0  0  0  0  0  0  0  0999 V2000
   -5.1589   -7.8105   14.8465 P   0  0  1  0  0  0  0  0  0  0  0  0
   -5.8551   -6.9180   15.8516 O   0  0  0  0  0  0  0  0  0  0  0  0
   -3.7301   -7.4539   14.5099 O   0  5  0  0  0  0  0  0  0  0  0  0
   -5.3486   -9.2979   15.1036 O   0  0  0  0  0  0  0  0  0  0  0  0
   -6.0111   -6.1369   12.9007 C   0  0  0  0  0  0  0  0  0  0  0  0
   -5.8990   -7.4640   13.4431 O   0  0  0  0  0  0  0  0  0  0  0  0
   -6.8019   -6.1752   11.5896 C   0  0  1  0  0  0  0  0  0  0  0  0
   -6.8711   -4.8851   10.9693 O   0  0  0  0  0  0  0  0  0  0  0  0
   -6.2387   -7.1092   10.5321 C   0  0  1  0  0  0  0  0  0  0  0  0
   -6.8390   -8.3987   10.6860 O   0  0  0  0  0  0  0  0  0  0  0  0
   -6.6563   -6.4524    9.2265 C   0  0  1  0  0  0  0  0  0  0  0  0
   -8.0089   -6.8011    8.8987 O   0  0  0  0  0  0  0  0  0  0  0  0
   -6.6754   -4.9722    9.5524 C   0  0  2  0  0  0  0  0  0  0  0  0
   -4.3569   -0.4245    9.5585 N   0  0  0  0  0  0  0  0  0  0  0  0
   -5.6432   -0.7336    9.8400 C   0  0  1  0  0  0  0  0  0  0  0  0
   -6.4981    0.2546   10.1883 N   0  0  0  0  0  0  0  0  0  0  0  0
   -6.0819   -2.0125    9.7771 N   0  0  0  0  0  0  0  0  0  0  0  0
   -5.2209   -2.9979    9.4270 C   0  0  1  0  0  0  0  0  0  0  0  0
   -3.9025   -2.7108    9.1327 C   0  0  2  0  0  0  0  0  0  0  0  0
   -3.4769   -1.3896    9.2055 C   0  0  0  0  0  0  0  0  0  0  0  0
   -2.2951   -1.0867    8.9478 O   0  0  0  0  0  0  0  0  0  0  0  0
   -3.3006   -3.8759    8.8176 N   0  0  0  0  0  0  0  0  0  0  0  0
   -4.2248   -4.8592    8.9227 C   0  0  0  0  0  0  0  0  0  0  0  0
   -5.3842   -4.3077    9.2951 N   0  0  1  0  0  0  0  0  0  0  0  0
  1  2  1  1  0  0  0
  1  3  1  0  0  0  0
  1  4  2  0  0  0  0
  1  6  1  0  0  0  0
  5  6  1  0  0  0  0
  7  5  1  1  0  0  0
  7  8  1  0  0  0  0
  7  9  1  0  0  0  0
  9 10  1  1  0  0  0
  9 11  1  0  0  0  0
 11 12  1  1  0  0  0
 11 13  1  0  0  0  0
 13  8  1  1  0  0  0
 13 24  1  0  0  0  0
 14 15  1  0  0  0  0
 14 20  1  0  0  0  0
 15 16  1  6  0  0  0
 15 17  1  0  0  0  0
 18 17  1  1  0  0  0
 18 19  1  0  0  0  0
 18 24  1  0  0  0  0
 19 20  1  6  0  0  0
 19 22  1  0  0  0  0
 20 21  2  0  0  0  0
 22 23  1  0  0  0  0
 24 23  1  1  0  0  0
M  CHG  1   3  -1
M  END
>  <CHROM.1>
54.95785822,-176.50186004,-178.39975966,-69.65433178,-5.44461357,-5.02357683
11.18895187,-1.78801056,-0.95545075,-0.83892651

>  <Name>
ligand

>  <RI>
0

>  <Rbt.Current_Directory>
/home/itssahil/PROJECTS/Mol_Feturizer/New_Systems/rnas/3SLQ

>  <Rbt.Executable>
rbdock ($Id: //depot/dev/client3/rdock/2013.1/src/exe/rbdock.cxx#4 $)

>  <Rbt.Library>
libRbt.so (2013.1, Build901 2013/11/27)

>  <Rbt.Parameter_File>
/export/apps/rDock/src/rDock_2013.1_src/data/scripts/dock_solv.prm

>  <Rbt.Receptor>
prm/pocket_docking_5.prm

>  <SCORE>
-23.0785

>  <SCORE.INTER>
-17.0051

>  <SCORE.INTER.CONST>
1

>  <SCORE.INTER.POLAR>
0

>  <SCORE.INTER.ROT>
4

>  <SCORE.INTER.SOLV>
21.6537

>  <SCORE.INTER.VDW>
-24.8213

>  <SCORE.INTER.norm>
-0.708545

>  <SCORE.INTRA>
-6.07342

>  <SCORE.INTRA.DIHEDRAL>
-11.9646

>  <SCORE.INTRA.DIHEDRAL.0>
13.2525

>  <SCORE.INTRA.POLAR>
0

>  <SCORE.INTRA.POLAR.0>
0

>  <SCORE.INTRA.REPUL>
0

>  <SCORE.INTRA.REPUL.0>
0

>  <SCORE.INTRA.SOLV>
0.0938819

>  <SCORE.INTRA.SOLV.lig_0>
-70.7221

>  <SCORE.INTRA.VDW>
-0.138065

>  <SCORE.INTRA.VDW.0>
-1.46337

>  <SCORE.INTRA.norm>
-0.253059

>  <SCORE.RESTR>
0

>  <SCORE.RESTR.CAVITY>
0

>  <SCORE.RESTR.norm>
0

>  <SCORE.SYSTEM>
0

>  <SCORE.SYSTEM.CONST>
0

>  <SCORE.SYSTEM.DIHEDRAL>
0

>  <SCORE.SYSTEM.SOLV>
0

>  <SCORE.SYSTEM.norm>
0

>  <SCORE.heavy>
24

>  <SCORE.norm>
-0.961604

>  <RMSD>
1.187

$$$$
ligand
 OpenBabel11021811483D
libRbt.so/2013.1/901 2013/11/27
 24 26  0  0  0  0  0  0  0  0999 V2000
   -5.3646   -7.8641   14.5055 P   0  0  1  0  0  0  0  0  0  0  0  0
   -5.8533   -7.0652   15.6948 O   0  0  0  0  0  0  0  0  0  0  0  0
   -3.9492   -7.5939   14.0523 O   0  5  0  0  0  0  0  0  0  0  0  0
   -5.6831   -9.3497   14.5848 O   0  0  0  0  0  0  0  0  0  0  0  0
   -5.9721   -7.6063   11.8829 C   0  0  0  0  0  0  0  0  0  0  0  0
   -6.2066   -7.2549   13.2576 O   0  0  0  0  0  0  0  0  0  0  0  0
   -7.0156   -6.9314   10.9876 C   0  0  1  0  0  0  0  0  0  0  0  0
   -6.9032   -5.5029   11.0194 O   0  0  0  0  0  0  0  0  0  0  0  0
   -6.9415   -7.3162    9.5199 C   0  0  1  0  0  0  0  0  0  0  0  0
   -7.7883   -8.4470    9.2943 O   0  0  0  0  0  0  0  0  0  0  0  0
   -7.4622   -6.0790    8.8068 C   0  0  1  0  0  0  0  0  0  0  0  0
   -8.8968   -6.0729    8.7937 O   0  0  0  0  0  0  0  0  0  0  0  0
   -7.0494   -4.9352    9.7118 C   0  0  2  0  0  0  0  0  0  0  0  0
   -4.3766   -0.5915    9.4999 N   0  0  0  0  0  0  0  0  0  0  0  0
   -5.6675   -0.7898    9.8518 C   0  0  1  0  0  0  0  0  0  0  0  0
   -6.4214    0.2708   10.2196 N   0  0  0  0  0  0  0  0  0  0  0  0
   -6.2098   -2.0299    9.8397 N   0  0  0  0  0  0  0  0  0  0  0  0
   -5.4496   -3.0882    9.4698 C   0  0  1  0  0  0  0  0  0  0  0  0
   -4.1293   -2.9146    9.1040 C   0  0  2  0  0  0  0  0  0  0  0  0
   -3.5960   -1.6312    9.1257 C   0  0  0  0  0  0  0  0  0  0  0  0
   -2.4086   -1.4301    8.8028 O   0  0  0  0  0  0  0  0  0  0  0  0
   -3.6397   -4.1303    8.7859 N   0  0  0  0  0  0  0  0  0  0  0  0
   -4.6331   -5.0333    8.9589 C   0  0  0  0  0  0  0  0  0  0  0  0
   -5.7239   -4.3827    9.3758 N   0  0  1  0  0  0  0  0  0  0  0  0
  1  2  1  1  0  0  0
  1  3  1  0  0  0  0
  1  4  2  0  0  0  0
  1  6  1  0  0  0  0
  5  6  1  0  0  0  0
  7  5  1  1  0  0  0
  7  8  1  0  0  0  0
  7  9  1  0  0  0  0
  9 10  1  1  0  0  0
  9 11  1  0  0  0  0
 11 12  1  1  0  0  0
 11 13  1  0  0  0  0
 13  8  1  1  0  0  0
 13 24  1  0  0  0  0
 14 15  1  0  0  0  0
 14 20  1  0  0  0  0
 15 16  1  6  0  0  0
 15 17  1  0  0  0  0
 18 17  1  1  0  0  0
 18 19  1  0  0  0  0
 18 24  1  0  0  0  0
 19 20  1  6  0  0  0
 19 22  1  0  0  0  0
 20 21  2  0  0  0  0
 22 23  1  0  0  0  0
 24 23  1  1  0  0  0
M  CHG  1   3  -1
M  END
>  <CHROM.1>
172.88385024,64.27858796,175.56562598,-101.27170286,-5.72953974,-5.17058962
10.92193763,-1.79341232,-0.86796958,-0.78239660

>  <Name>
ligand

>  <RI>
0

>  <Rbt.Current_Directory>
/home/itssahil/PROJECTS/Mol_Feturizer/New_Systems/rnas/3SLQ

>  <Rbt.Executable>
rbdock ($Id: //depot/dev/client3/rdock/2013.1/src/exe/rbdock.cxx#4 $)

>  <Rbt.Library>
libRbt.so (2013.1, Build901 2013/11/27)

>  <Rbt.Parameter_File>
/export/apps/rDock/src/rDock_2013.1_src/data/scripts/dock_solv.prm

>  <Rbt.Receptor>
prm/pocket_docking_3.prm

>  <SCORE>
-20.2289

>  <SCORE.INTER>
-14.3528

>  <SCORE.INTER.CONST>
1

>  <SCORE.INTER.POLAR>
0

>  <SCORE.INTER.ROT>
4

>  <SCORE.INTER.SOLV>
20.4278

>  <SCORE.INTER.VDW>
-22.6445

>  <SCORE.INTER.norm>
-0.598034

>  <SCORE.INTRA>
-5.87614

>  <SCORE.INTRA.DIHEDRAL>
-11.8252

>  <SCORE.INTRA.DIHEDRAL.0>
13.2525

>  <SCORE.INTRA.POLAR>
0

>  <SCORE.INTRA.POLAR.0>
0

>  <SCORE.INTRA.REPUL>
0

>  <SCORE.INTRA.REPUL.0>
0

>  <SCORE.INTRA.SOLV>
0.440664

>  <SCORE.INTRA.SOLV.lig_0>
-70.7221

>  <SCORE.INTRA.VDW>
-0.183861

>  <SCORE.INTRA.VDW.0>
-1.46337

>  <SCORE.INTRA.norm>
-0.244839

>  <SCORE.RESTR>
2.8736e-05

>  <SCORE.RESTR.CAVITY>
2.8736e-05

>  <SCORE.RESTR.norm>
1.19733e-06

>  <SCORE.SYSTEM>
0

>  <SCORE.SYSTEM.CONST>
0

>  <SCORE.SYSTEM.DIHEDRAL>
0

>  <SCORE.SYSTEM.SOLV>
0

>  <SCORE.SYSTEM.norm>
0

>  <SCORE.heavy>
24

>  <SCORE.norm>
-0.842872

>  <RMSD>
1.196

$$$$
ligand
 OpenBabel11021811483D
libRbt.so/2013.1/901 2013/11/27
 24 26  0  0  0  0  0  0  0  0999 V2000
   -7.4286   -7.4918   14.1287 P   0  0  1  0  0  0  0  0  0  0  0  0
   -8.0865   -8.0702   12.8941 O   0  0  0  0  0  0  0  0  0  0  0  0
   -8.1817   -6.3895   14.8355 O   0  5  0  0  0  0  0  0  0  0  0  0
   -6.8827   -8.5393   15.0875 O   0  0  0  0  0  0  0  0  0  0  0  0
   -6.2742   -5.4431   12.7930 C   0  0  0  0  0  0  0  0  0  0  0  0
   -6.1597   -6.6664   13.5404 O   0  0  0  0  0  0  0  0  0  0  0  0
   -6.8484   -5.7337   11.4032 C   0  0  1  0  0  0  0  0  0  0  0  0
   -6.9469   -4.5463   10.6068 O   0  0  0  0  0  0  0  0  0  0  0  0
   -6.0429   -6.7187   10.5734 C   0  0  1  0  0  0  0  0  0  0  0  0
   -6.5319   -8.0404   10.8198 O   0  0  0  0  0  0  0  0  0  0  0  0
   -6.3183   -6.2801    9.1444 C   0  0  1  0  0  0  0  0  0  0  0  0
   -7.5649   -6.8209    8.6841 O   0  0  0  0  0  0  0  0  0  0  0  0
   -6.5301   -4.7833    9.2564 C   0  0  2  0  0  0  0  0  0  0  0  0
   -4.5935   -0.0676    9.5163 N   0  0  0  0  0  0  0  0  0  0  0  0
   -5.8637   -0.4870    9.7160 C   0  0  1  0  0  0  0  0  0  0  0  0
   -6.8139    0.4183   10.0417 N   0  0  0  0  0  0  0  0  0  0  0  0
   -6.1927   -1.7943    9.5940 N   0  0  0  0  0  0  0  0  0  0  0  0
   -5.2365   -2.6963    9.2669 C   0  0  1  0  0  0  0  0  0  0  0  0
   -3.9318   -2.2957    9.0556 C   0  0  2  0  0  0  0  0  0  0  0  0
   -3.6199   -0.9477    9.1880 C   0  0  0  0  0  0  0  0  0  0  0  0
   -2.4545   -0.5435    9.0058 O   0  0  0  0  0  0  0  0  0  0  0  0
   -3.2209   -3.3986    8.7438 N   0  0  0  0  0  0  0  0  0  0  0  0
   -4.0662   -4.4554    8.7699 C   0  0  0  0  0  0  0  0  0  0  0  0
   -5.2852   -4.0102    9.0907 N   0  0  1  0  0  0  0  0  0  0  0  0
  1  2  1  6  0  0  0
  1  3  1  0  0  0  0
  1  4  2  0  0  0  0
  1  6  1  0  0  0  0
  5  6  1  0  0  0  0
  7  5  1  1  0  0  0
  7  8  1  0  0  0  0
  7  9  1  0  0  0  0
  9 10  1  6  0  0  0
  9 11  1  0  0  0  0
 11 12  1  1  0  0  0
 11 13  1  0  0  0  0
 13  8  1  1  0  0  0
 13 24  1  0  0  0  0
 14 15  1  0  0  0  0
 14 20  1  0  0  0  0
 15 16  1  6  0  0  0
 15 17  1  0  0  0  0
 18 17  1  1  0  0  0
 18 19  1  0  0  0  0
 18 24  1  0  0  0  0
 19 20  1  6  0  0  0
 19 22  1  0  0  0  0
 20 21  2  0  0  0  0
 22 23  1  0  0  0  0
 24 23  1  1  0  0  0
M  CHG  1   3  -1
M  END
>  <CHROM.1>
70.68664953,-178.40964823,-71.26538376,-58.95957362,-6.01600381,-4.68262533
10.92704952,2.76932157,-1.18770943,-2.57289894

>  <Name>
ligand

>  <RI>
0

>  <Rbt.Current_Directory>
/home/itssahil/PROJECTS/Mol_Feturizer/New_Systems/rnas/3SLQ

>  <Rbt.Executable>
rbdock ($Id: //depot/dev/client3/rdock/2013.1/src/exe/rbdock.cxx#4 $)

>  <Rbt.Library>
libRbt.so (2013.1, Build901 2013/11/27)

>  <Rbt.Parameter_File>
/export/apps/rDock/src/rDock_2013.1_src/data/scripts/dock_solv.prm

>  <Rbt.Receptor>
prm/pocket_docking_2.prm

>  <SCORE>
-19.5843

>  <SCORE.INTER>
-14.5451

>  <SCORE.INTER.CONST>
1

>  <SCORE.INTER.POLAR>
0

>  <SCORE.INTER.ROT>
4

>  <SCORE.INTER.SOLV>
21.5572

>  <SCORE.INTER.VDW>
-23.1491

>  <SCORE.INTER.norm>
-0.606044

>  <SCORE.INTRA>
-5.17689

>  <SCORE.INTRA.DIHEDRAL>
-11.2479

>  <SCORE.INTRA.DIHEDRAL.0>
13.2525

>  <SCORE.INTRA.POLAR>
0

>  <SCORE.INTRA.POLAR.0>
0

>  <SCORE.INTRA.REPUL>
0

>  <SCORE.INTRA.REPUL.0>
0

>  <SCORE.INTRA.SOLV>
1.70495

>  <SCORE.INTRA.SOLV.lig_0>
-70.7221

>  <SCORE.INTRA.VDW>
-0.405401

>  <SCORE.INTRA.VDW.0>
-1.46337

>  <SCORE.INTRA.norm>
-0.215704

>  <SCORE.RESTR>
0.137654

>  <SCORE.RESTR.CAVITY>
0.137654

>  <SCORE.RESTR.norm>
0.0057356

>  <SCORE.SYSTEM>
0

>  <SCORE.SYSTEM.CONST>
0

>  <SCORE.SYSTEM.DIHEDRAL>
0

>  <SCORE.SYSTEM.SOLV>
0

>  <SCORE.SYSTEM.norm>
0

>  <SCORE.heavy>
24

>  <SCORE.norm>
-0.816012

>  <RMSD>
1.201

$$$$
ligand
 OpenBabel11021811483D
libRbt.so/2013.1/901 2013/11/27
 24 26  0  0  0  0  0  0  0  0999 V2000
   -7.3866   -7.4152   14.1819 P   0  0  1  0  0  0  0  0  0  0  0  0
   -8.0979   -8.0103   12.9855 O   0  0  0  0  0  0  0  0  0  0  0  0
   -8.1342   -6.3454   14.9424 O   0  5  0  0  0  0  0  0  0  0  0  0
   -6.7449   -8.4475   15.0970 O   0  0  0  0  0  0  0  0  0  0  0  0
   -6.3933   -5.3288   12.7769 C   0  0  0  0  0  0  0  0  0  0  0  0
   -6.1871   -6.5405   13.5236 O   0  0  0  0  0  0  0  0  0  0  0  0
   -6.9363   -5.6615   11.3840 C   0  0  1  0  0  0  0  0  0  0  0  0
   -7.0168   -4.4986   10.5501 O   0  0  0  0  0  0  0  0  0  0  0  0
   -6.1125   -6.6705   10.6024 C   0  0  1  0  0  0  0  0  0  0  0  0
   -6.6070   -7.9845   10.8775 O   0  0  0  0  0  0  0  0  0  0  0  0
   -6.3558   -6.2753    9.1550 C   0  0  1  0  0  0  0  0  0  0  0  0
   -7.5917   -6.8306    8.6834 O   0  0  0  0  0  0  0  0  0  0  0  0
   -6.5699   -4.7760    9.2171 C   0  0  2  0  0  0  0  0  0  0  0  0
   -4.6114   -0.0712    9.5094 N   0  0  0  0  0  0  0  0  0  0  0  0
   -5.8835   -0.4862    9.7070 C   0  0  1  0  0  0  0  0  0  0  0  0
   -6.8293    0.4212   10.0398 N   0  0  0  0  0  0  0  0  0  0  0  0
   -6.2185   -1.7910    9.5758 N   0  0  0  0  0  0  0  0  0  0  0  0
   -5.2667   -2.6951    9.2417 C   0  0  1  0  0  0  0  0  0  0  0  0
   -3.9604   -2.2990    9.0324 C   0  0  2  0  0  0  0  0  0  0  0  0
   -3.6421   -0.9534    9.1742 C   0  0  0  0  0  0  0  0  0  0  0  0
   -2.4750   -0.5533    8.9942 O   0  0  0  0  0  0  0  0  0  0  0  0
   -3.2547   -3.4029    8.7123 N   0  0  0  0  0  0  0  0  0  0  0  0
   -4.1048   -4.4559    8.7314 C   0  0  0  0  0  0  0  0  0  0  0  0
   -5.3216   -4.0074    9.0561 N   0  0  1  0  0  0  0  0  0  0  0  0
  1  2  1  6  0  0  0
  1  3  1  0  0  0  0
  1  4  2  0  0  0  0
  1  6  1  0  0  0  0
  5  6  1  0  0  0  0
  7  5  1  1  0  0  0
  7  8  1  0  0  0  0
  7  9  1  0  0  0  0
  9 10  1  6  0  0  0
  9 11  1  0  0  0  0
 11 12  1  1  0  0  0
 11 13  1  0  0  0  0
 13  8  1  1  0  0  0
 13 24  1  0  0  0  0
 14 15  1  0  0  0  0
 14 20  1  0  0  0  0
 15 16  1  6  0  0  0
 15 17  1  0  0  0  0
 18 17  1  1  0  0  0
 18 19  1  0  0  0  0
 18 24  1  0  0  0  0
 19 20  1  6  0  0  0
 19 22  1  0  0  0  0
 20 21  2  0  0  0  0
 22 23  1  0  0  0  0
 24 23  1  1  0  0  0
M  CHG  1   3  -1
M  END
>  <CHROM.1>
69.69239437,-173.48533268,-75.14468485,-56.43311906,-6.03752649,-4.64852934
10.93108098,2.84677879,-1.20176224,-2.50266770

>  <Name>
ligand

>  <RI>
0

>  <Rbt.Current_Directory>
/home/itssahil/PROJECTS/Mol_Feturizer/New_Systems/rnas/3SLQ

>  <Rbt.Executable>
rbdock ($Id: //depot/dev/client3/rdock/2013.1/src/exe/rbdock.cxx#4 $)

>  <Rbt.Library>
libRbt.so (2013.1, Build901 2013/11/27)

>  <Rbt.Parameter_File>
/export/apps/rDock/src/rDock_2013.1_src/data/scripts/dock_solv.prm

>  <Rbt.Receptor>
prm/pocket_docking_2.prm

>  <SCORE>
-19.4746

>  <SCORE.INTER>
-14.6815

>  <SCORE.INTER.CONST>
1

>  <SCORE.INTER.POLAR>
0

>  <SCORE.INTER.ROT>
4

>  <SCORE.INTER.SOLV>
21.9674

>  <SCORE.INTER.VDW>
-23.3768

>  <SCORE.INTER.norm>
-0.611731

>  <SCORE.INTRA>
-4.87752

>  <SCORE.INTRA.DIHEDRAL>
-10.6695

>  <SCORE.INTRA.DIHEDRAL.0>
13.2525

>  <SCORE.INTRA.POLAR>
0

>  <SCORE.INTRA.POLAR.0>
0

>  <SCORE.INTRA.REPUL>
0

>  <SCORE.INTRA.REPUL.0>
0

>  <SCORE.INTRA.SOLV>
1.70468

>  <SCORE.INTRA.SOLV.lig_0>
-70.7221

>  <SCORE.INTRA.VDW>
-0.395109

>  <SCORE.INTRA.VDW.0>
-1.46337

>  <SCORE.INTRA.norm>
-0.20323

>  <SCORE.RESTR>
0.0844635

>  <SCORE.RESTR.CAVITY>
0.0844635

>  <SCORE.RESTR.norm>
0.00351931

>  <SCORE.SYSTEM>
0

>  <SCORE.SYSTEM.CONST>
0

>  <SCORE.SYSTEM.DIHEDRAL>
0

>  <SCORE.SYSTEM.SOLV>
0

>  <SCORE.SYSTEM.norm>
0

>  <SCORE.heavy>
24

>  <SCORE.norm>
-0.811441

>  <RMSD>
1.202

$$$$
ligand
 OpenBabel11021811483D
libRbt.so/2013.1/901 2013/11/27
 24 26  0  0  0  0  0  0  0  0999 V2000
   -7.3957   -7.6491   14.2147 P   0  0  1  0  0  0  0  0  0  0  0  0
   -8.3632   -7.8632   13.0703 O   0  0  0  0  0  0  0  0  0  0  0  0
   -7.8005   -6.6294   15.2530 O   0  5  0  0  0  0  0  0  0  0  0  0
   -6.8697   -8.9375   14.8296 O   0  0  0  0  0  0  0  0  0  0  0  0
   -6.2347   -5.6391   12.8270 C   0  0  0  0  0  0  0  0  0  0  0  0
   -6.1360   -6.8950   13.5206 O   0  0  0  0  0  0  0  0  0  0  0  0
   -6.8691   -5.8534   11.4496 C   0  0  1  0  0  0  0  0  0  0  0  0
   -6.8848   -4.6476   10.6750 O   0  0  0  0  0  0  0  0  0  0  0  0
   -6.1752   -6.8894   10.5818 C   0  0  1  0  0  0  0  0  0  0  0  0
   -6.7709   -8.1679   10.8211 O   0  0  0  0  0  0  0  0  0  0  0  0
   -6.4493   -6.4026    9.1683 C   0  0  1  0  0  0  0  0  0  0  0  0
   -7.7502   -6.8247    8.7349 O   0  0  0  0  0  0  0  0  0  0  0  0
   -6.5266   -4.8953    9.3098 C   0  0  2  0  0  0  0  0  0  0  0  0
   -4.1941   -0.3600    9.5268 N   0  0  0  0  0  0  0  0  0  0  0  0
   -5.4917   -0.6704    9.7491 C   0  0  1  0  0  0  0  0  0  0  0  0
   -6.3562    0.3122   10.0891 N   0  0  0  0  0  0  0  0  0  0  0  0
   -5.9320   -1.9453    9.6354 N   0  0  0  0  0  0  0  0  0  0  0  0
   -5.0612   -2.9251    9.2939 C   0  0  1  0  0  0  0  0  0  0  0  0
   -3.7312   -2.6365    9.0595 C   0  0  2  0  0  0  0  0  0  0  0  0
   -3.3042   -1.3196    9.1838 C   0  0  0  0  0  0  0  0  0  0  0  0
   -2.1121   -1.0155    8.9809 O   0  0  0  0  0  0  0  0  0  0  0  0
   -3.1215   -3.7957    8.7380 N   0  0  0  0  0  0  0  0  0  0  0  0
   -4.0525   -4.7772    8.7807 C   0  0  0  0  0  0  0  0  0  0  0  0
   -5.2238   -4.2303    9.1213 N   0  0  1  0  0  0  0  0  0  0  0  0
  1  2  1  6  0  0  0
  1  3  1  0  0  0  0
  1  4  2  0  0  0  0
  1  6  1  0  0  0  0
  5  6  1  0  0  0  0
  7  5  1  1  0  0  0
  7  8  1  0  0  0  0
  7  9  1  0  0  0  0
  9 10  1  6  0  0  0
  9 11  1  0  0  0  0
 11 12  1  1  0  0  0
 11 13  1  0  0  0  0
 13  8  1  1  0  0  0
 13 24  1  0  0  0  0
 14 15  1  0  0  0  0
 14 20  1  0  0  0  0
 15 16  1  6  0  0  0
 15 17  1  0  0  0  0
 18 17  1  1  0  0  0
 18 19  1  0  0  0  0
 18 24  1  0  0  0  0
 19 20  1  6  0  0  0
 19 22  1  0  0  0  0
 20 21  2  0  0  0  0
 22 23  1  0  0  0  0
 24 23  1  1  0  0  0
M  CHG  1   3  -1
M  END
>  <CHROM.1>
58.73538884,-175.05458008,-75.76865474,-60.17679033,-5.92951644,-4.87972930
10.96655321,3.07701971,-1.17775963,-2.26165417

>  <Name>
ligand

>  <RI>
0

>  <Rbt.Current_Directory>
/home/itssahil/PROJECTS/Mol_Feturizer/New_Systems/rnas/3SLQ

>  <Rbt.Executable>
rbdock ($Id: //depot/dev/client3/rdock/2013.1/src/exe/rbdock.cxx#4 $)

>  <Rbt.Library>
libRbt.so (2013.1, Build901 2013/11/27)

>  <Rbt.Parameter_File>
/export/apps/rDock/src/rDock_2013.1_src/data/scripts/dock_solv.prm

>  <Rbt.Receptor>
prm/pocket_docking_4.prm

>  <SCORE>
-20.563

>  <SCORE.INTER>
-15.335

>  <SCORE.INTER.CONST>
1

>  <SCORE.INTER.POLAR>
0

>  <SCORE.INTER.ROT>
4

>  <SCORE.INTER.SOLV>
20.1304

>  <SCORE.INTER.VDW>
-23.2001

>  <SCORE.INTER.norm>
-0.638957

>  <SCORE.INTRA>
-5.22805

>  <SCORE.INTRA.DIHEDRAL>
-10.8031

>  <SCORE.INTRA.DIHEDRAL.0>
13.2525

>  <SCORE.INTRA.POLAR>
0

>  <SCORE.INTRA.POLAR.0>
0

>  <SCORE.INTRA.REPUL>
0

>  <SCORE.INTRA.REPUL.0>
0

>  <SCORE.INTRA.SOLV>
1.63089

>  <SCORE.INTRA.SOLV.lig_0>
-70.7221

>  <SCORE.INTRA.VDW>
-0.641945

>  <SCORE.INTRA.VDW.0>
-1.46337

>  <SCORE.INTRA.norm>
-0.217835

>  <SCORE.RESTR>
0

>  <SCORE.RESTR.CAVITY>
0

>  <SCORE.RESTR.norm>
0

>  <SCORE.SYSTEM>
0

>  <SCORE.SYSTEM.CONST>
0

>  <SCORE.SYSTEM.DIHEDRAL>
0

>  <SCORE.SYSTEM.SOLV>
0

>  <SCORE.SYSTEM.norm>
0

>  <SCORE.heavy>
24

>  <SCORE.norm>
-0.856793

>  <RMSD>
1.220

$$$$
ligand
 OpenBabel11021811483D
libRbt.so/2013.1/901 2013/11/27
 24 26  0  0  0  0  0  0  0  0999 V2000
   -6.7770   -7.5191   13.9843 P   0  0  1  0  0  0  0  0  0  0  0  0
   -7.9831   -6.6108   13.8759 O   0  0  0  0  0  0  0  0  0  0  0  0
   -5.7542   -7.1530   15.0338 O   0  5  0  0  0  0  0  0  0  0  0  0
   -7.1172   -9.0020   13.9870 O   0  0  0  0  0  0  0  0  0  0  0  0
   -6.3753   -7.6107   11.3115 C   0  0  0  0  0  0  0  0  0  0  0  0
   -5.9415   -7.2171   12.6249 O   0  0  0  0  0  0  0  0  0  0  0  0
   -7.5626   -6.7475   10.8747 C   0  0  1  0  0  0  0  0  0  0  0  0
   -7.4021   -5.3790   11.2693 O   0  0  0  0  0  0  0  0  0  0  0  0
   -7.8114   -6.7159    9.3764 C   0  0  1  0  0  0  0  0  0  0  0  0
   -8.7212   -7.7662    9.0358 O   0  0  0  0  0  0  0  0  0  0  0  0
   -8.4322   -5.3466    9.1532 C   0  0  1  0  0  0  0  0  0  0  0  0
   -9.8365   -5.3779    9.4454 O   0  0  0  0  0  0  0  0  0  0  0  0
   -7.8030   -4.4811   10.2269 C   0  0  2  0  0  0  0  0  0  0  0  0
   -5.5565    0.0771    9.7444 N   0  0  0  0  0  0  0  0  0  0  0  0
   -6.7942   -0.2273   10.1971 C   0  0  1  0  0  0  0  0  0  0  0  0
   -7.6111    0.7700   10.6052 N   0  0  0  0  0  0  0  0  0  0  0  0
   -7.2218   -1.5106   10.2456 N   0  0  0  0  0  0  0  0  0  0  0  0
   -6.3990   -2.5052    9.8348 C   0  0  1  0  0  0  0  0  0  0  0  0
   -5.1309   -2.2231    9.3664 C   0  0  2  0  0  0  0  0  0  0  0  0
   -4.7155   -0.8972    9.3275 C   0  0  0  0  0  0  0  0  0  0  0  0
   -3.5786   -0.5987    8.9116 O   0  0  0  0  0  0  0  0  0  0  0  0
   -4.5588   -3.3973    9.0304 N   0  0  0  0  0  0  0  0  0  0  0  0
   -5.4508   -4.3808    9.2928 C   0  0  0  0  0  0  0  0  0  0  0  0
   -6.5617   -3.8206    9.7819 N   0  0  1  0  0  0  0  0  0  0  0  0
  1  2  1  1  0  0  0
  1  3  1  0  0  0  0
  1  4  2  0  0  0  0
  1  6  1  0  0  0  0
  5  6  1  0  0  0  0
  7  5  1  6  0  0  0
  7  8  1  0  0  0  0
  7  9  1  0  0  0  0
  9 10  1  1  0  0  0
  9 11  1  0  0  0  0
 11 12  1  1  0  0  0
 11 13  1  0  0  0  0
 13  8  1  1  0  0  0
 13 24  1  0  0  0  0
 14 15  1  0  0  0  0
 14 20  1  0  0  0  0
 15 16  1  6  0  0  0
 15 17  1  0  0  0  0
 18 17  1  1  0  0  0
 18 19  1  0  0  0  0
 18 24  1  0  0  0  0
 19 20  1  6  0  0  0
 19 22  1  0  0  0  0
 20 21  2  0  0  0  0
 22 23  1  0  0  0  0
 24 23  1  1  0  0  0
M  CHG  1   3  -1
M  END
>  <CHROM.1>
-70.06966366,39.49868918,71.68151442,-120.74529799,-6.74546017,-4.67911487
10.93432188,-1.86543696,-0.89722130,-0.70576633

>  <Name>
ligand

>  <RI>
0

>  <Rbt.Current_Directory>
/home/itssahil/PROJECTS/Mol_Feturizer/New_Systems/rnas/3SLQ

>  <Rbt.Executable>
rbdock ($Id: //depot/dev/client3/rdock/2013.1/src/exe/rbdock.cxx#4 $)

>  <Rbt.Library>
libRbt.so (2013.1, Build901 2013/11/27)

>  <Rbt.Parameter_File>
/export/apps/rDock/src/rDock_2013.1_src/data/scripts/dock_solv.prm

>  <Rbt.Receptor>
prm/pocket_docking_2.prm

>  <SCORE>
-15.6189

>  <SCORE.INTER>
-10.4562

>  <SCORE.INTER.CONST>
1

>  <SCORE.INTER.POLAR>
0

>  <SCORE.INTER.ROT>
4

>  <SCORE.INTER.SOLV>
21.771

>  <SCORE.INTER.VDW>
-20.4945

>  <SCORE.INTER.norm>
-0.435676

>  <SCORE.INTRA>
-5.26844

>  <SCORE.INTRA.DIHEDRAL>
-9.85398

>  <SCORE.INTRA.DIHEDRAL.0>
13.2525

>  <SCORE.INTRA.POLAR>
0

>  <SCORE.INTRA.POLAR.0>
0

>  <SCORE.INTRA.REPUL>
0

>  <SCORE.INTRA.REPUL.0>
0

>  <SCORE.INTRA.SOLV>
0.959412

>  <SCORE.INTRA.SOLV.lig_0>
-70.7221

>  <SCORE.INTRA.VDW>
-0.821156

>  <SCORE.INTRA.VDW.0>
-1.46337

>  <SCORE.INTRA.norm>
-0.219518

>  <SCORE.RESTR>
0.105736

>  <SCORE.RESTR.CAVITY>
0.105736

>  <SCORE.RESTR.norm>
0.00440566

>  <SCORE.SYSTEM>
0

>  <SCORE.SYSTEM.CONST>
0

>  <SCORE.SYSTEM.DIHEDRAL>
0

>  <SCORE.SYSTEM.SOLV>
0

>  <SCORE.SYSTEM.norm>
0

>  <SCORE.heavy>
24

>  <SCORE.norm>
-0.650789

>  <RMSD>
1.229

$$$$
ligand
 OpenBabel11021811483D
libRbt.so/2013.1/901 2013/11/27
 24 26  0  0  0  0  0  0  0  0999 V2000
   -7.6947   -7.4951   14.1380 P   0  0  1  0  0  0  0  0  0  0  0  0
   -8.3811   -7.9862   12.8814 O   0  0  0  0  0  0  0  0  0  0  0  0
   -8.3440   -6.3282   14.8441 O   0  5  0  0  0  0  0  0  0  0  0  0
   -7.2839   -8.6057   15.0932 O   0  0  0  0  0  0  0  0  0  0  0  0
   -6.3055   -5.5933   12.8088 C   0  0  0  0  0  0  0  0  0  0  0  0
   -6.3330   -6.8009   13.5892 O   0  0  0  0  0  0  0  0  0  0  0  0
   -6.8804   -5.8610   11.4147 C   0  0  1  0  0  0  0  0  0  0  0  0
   -6.9130   -4.6735   10.6130 O   0  0  0  0  0  0  0  0  0  0  0  0
   -6.1167   -6.8878   10.5960 C   0  0  1  0  0  0  0  0  0  0  0  0
   -6.6723   -8.1829   10.8427 O   0  0  0  0  0  0  0  0  0  0  0  0
   -6.3569   -6.4421    9.1629 C   0  0  1  0  0  0  0  0  0  0  0  0
   -7.6242   -6.9229    8.6928 O   0  0  0  0  0  0  0  0  0  0  0  0
   -6.4959   -4.9362    9.2674 C   0  0  2  0  0  0  0  0  0  0  0  0
   -4.3075   -0.3399    9.6426 N   0  0  0  0  0  0  0  0  0  0  0  0
   -5.5965   -0.6968    9.8439 C   0  0  1  0  0  0  0  0  0  0  0  0
   -6.4938    0.2478   10.2059 N   0  0  0  0  0  0  0  0  0  0  0  0
   -5.9960   -1.9806    9.6876 N   0  0  0  0  0  0  0  0  0  0  0  0
   -5.0925   -2.9221    9.3243 C   0  0  1  0  0  0  0  0  0  0  0  0
   -3.7703   -2.5856    9.1106 C   0  0  2  0  0  0  0  0  0  0  0  0
   -3.3854   -1.2605    9.2785 C   0  0  0  0  0  0  0  0  0  0  0  0
   -2.2018   -0.9137    9.0956 O   0  0  0  0  0  0  0  0  0  0  0  0
   -3.1222   -3.7150    8.7594 N   0  0  0  0  0  0  0  0  0  0  0  0
   -4.0226   -4.7256    8.7640 C   0  0  0  0  0  0  0  0  0  0  0  0
   -5.2130   -4.2258    9.1107 N   0  0  1  0  0  0  0  0  0  0  0  0
  1  2  1  6  0  0  0
  1  3  1  0  0  0  0
  1  4  2  0  0  0  0
  1  6  1  0  0  0  0
  5  6  1  0  0  0  0
  7  5  1  1  0  0  0
  7  8  1  0  0  0  0
  7  9  1  0  0  0  0
  9 10  1  6  0  0  0
  9 11  1  0  0  0  0
 11 12  1  1  0  0  0
 11 13  1  0  0  0  0
 13  8  1  1  0  0  0
 13 24  1  0  0  0  0
 14 15  1  0  0  0  0
 14 20  1  0  0  0  0
 15 16  1  6  0  0  0
 15 17  1  0  0  0  0
 18 17  1  1  0  0  0
 18 19  1  0  0  0  0
 18 24  1  0  0  0  0
 19 20  1  6  0  0  0
 19 22  1  0  0  0  0
 20 21  2  0  0  0  0
 22 23  1  0  0  0  0
 24 23  1  1  0  0  0
M  CHG  1   3  -1
M  END
>  <CHROM.1>
67.94641026,178.13984254,-69.61221994,-56.74990241,-6.01986891,-4.83723136
10.96638277,2.83824033,-1.12684583,-2.51990091

>  <Name>
ligand

>  <RI>
0

>  <Rbt.Current_Directory>
/home/itssahil/PROJECTS/Mol_Feturizer/New_Systems/rnas/3SLQ

>  <Rbt.Executable>
rbdock ($Id: //depot/dev/client3/rdock/2013.1/src/exe/rbdock.cxx#4 $)

>  <Rbt.Library>
libRbt.so (2013.1, Build901 2013/11/27)

>  <Rbt.Parameter_File>
/export/apps/rDock/src/rDock_2013.1_src/data/scripts/dock_solv.prm

>  <Rbt.Receptor>
prm/pocket_docking_5.prm

>  <SCORE>
-21.0245

>  <SCORE.INTER>
-15.5699

>  <SCORE.INTER.CONST>
1

>  <SCORE.INTER.POLAR>
0

>  <SCORE.INTER.ROT>
4

>  <SCORE.INTER.SOLV>
20.1387

>  <SCORE.INTER.VDW>
-23.3595

>  <SCORE.INTER.norm>
-0.648744

>  <SCORE.INTRA>
-5.45468

>  <SCORE.INTRA.DIHEDRAL>
-11.4847

>  <SCORE.INTRA.DIHEDRAL.0>
13.2525

>  <SCORE.INTRA.POLAR>
0

>  <SCORE.INTRA.POLAR.0>
0

>  <SCORE.INTRA.REPUL>
0

>  <SCORE.INTRA.REPUL.0>
0

>  <SCORE.INTRA.SOLV>
1.65578

>  <SCORE.INTRA.SOLV.lig_0>
-70.7221

>  <SCORE.INTRA.VDW>
-0.540198

>  <SCORE.INTRA.VDW.0>
-1.46337

>  <SCORE.INTRA.norm>
-0.227278

>  <SCORE.RESTR>
0

>  <SCORE.RESTR.CAVITY>
0

>  <SCORE.RESTR.norm>
0

>  <SCORE.SYSTEM>
0

>  <SCORE.SYSTEM.CONST>
0

>  <SCORE.SYSTEM.DIHEDRAL>
0

>  <SCORE.SYSTEM.SOLV>
0

>  <SCORE.SYSTEM.norm>
0

>  <SCORE.heavy>
24

>  <SCORE.norm>
-0.876023

>  <RMSD>
1.247

$$$$
ligand
 OpenBabel11021811483D
libRbt.so/2013.1/901 2013/11/27
 24 26  0  0  0  0  0  0  0  0999 V2000
   -5.1795   -7.8908   14.3739 P   0  0  1  0  0  0  0  0  0  0  0  0
   -3.7717   -7.5005   13.9774 O   0  0  0  0  0  0  0  0  0  0  0  0
   -5.5046   -9.3652   14.3275 O   0  5  0  0  0  0  0  0  0  0  0  0
   -5.6724   -7.2199   15.6473 O   0  0  0  0  0  0  0  0  0  0  0  0
   -5.8550   -7.6462   11.7667 C   0  0  0  0  0  0  0  0  0  0  0  0
   -6.0936   -7.3377   13.1509 O   0  0  0  0  0  0  0  0  0  0  0  0
   -6.9134   -6.9678   10.8920 C   0  0  1  0  0  0  0  0  0  0  0  0
   -6.8276   -5.5388   10.9608 O   0  0  0  0  0  0  0  0  0  0  0  0
   -6.8364   -7.3126    9.4145 C   0  0  1  0  0  0  0  0  0  0  0  0
   -7.6627   -8.4528    9.1614 O   0  0  0  0  0  0  0  0  0  0  0  0
   -7.3821   -6.0672    8.7353 C   0  0  1  0  0  0  0  0  0  0  0  0
   -8.8166   -6.0876    8.7258 O   0  0  0  0  0  0  0  0  0  0  0  0
   -6.9881   -4.9399    9.6689 C   0  0  2  0  0  0  0  0  0  0  0  0
   -4.4160   -0.5338    9.5054 N   0  0  0  0  0  0  0  0  0  0  0  0
   -5.7036   -0.7648    9.8489 C   0  0  1  0  0  0  0  0  0  0  0  0
   -6.4839    0.2750   10.2210 N   0  0  0  0  0  0  0  0  0  0  0  0
   -6.2169   -2.0170    9.8241 N   0  0  0  0  0  0  0  0  0  0  0  0
   -5.4304   -3.0544    9.4499 C   0  0  1  0  0  0  0  0  0  0  0  0
   -4.1126   -2.8473    9.0925 C   0  0  2  0  0  0  0  0  0  0  0  0
   -3.6095   -1.5521    9.1271 C   0  0  0  0  0  0  0  0  0  0  0  0
   -2.4254   -1.3209    8.8122 O   0  0  0  0  0  0  0  0  0  0  0  0
   -3.5933   -4.0488    8.7674 N   0  0  0  0  0  0  0  0  0  0  0  0
   -4.5663   -4.9759    8.9281 C   0  0  0  0  0  0  0  0  0  0  0  0
   -5.6741   -4.3541    9.3443 N   0  0  1  0  0  0  0  0  0  0  0  0
  1  2  1  6  0  0  0
  1  3  1  0  0  0  0
  1  4  2  0  0  0  0
  1  6  1  0  0  0  0
  5  6  1  0  0  0  0
  7  5  1  1  0  0  0
  7  8  1  0  0  0  0
  7  9  1  0  0  0  0
  9 10  1  1  0  0  0
  9 11  1  0  0  0  0
 11 12  1  1  0  0  0
 11 13  1  0  0  0  0
 13  8  1  1  0  0  0
 13 24  1  0  0  0  0
 14 15  1  0  0  0  0
 14 20  1  0  0  0  0
 15 16  1  6  0  0  0
 15 17  1  0  0  0  0
 18 17  1  1  0  0  0
 18 19  1  0  0  0  0
 18 24  1  0  0  0  0
 19 20  1  6  0  0  0
 19 22  1  0  0  0  0
 20 21  2  0  0  0  0
 22 23  1  0  0  0  0
 24 23  1  1  0  0  0
M  CHG  1   3  -1
M  END
>  <CHROM.1>
53.05504638,64.40180239,179.54795503,-102.43822958,-5.65349988,-5.16407502
10.85667525,-1.75896034,-0.87152649,-0.73538777

>  <Name>
ligand

>  <RI>
0

>  <Rbt.Current_Directory>
/home/itssahil/PROJECTS/Mol_Feturizer/New_Systems/rnas/3SLQ

>  <Rbt.Executable>
rbdock ($Id: //depot/dev/client3/rdock/2013.1/src/exe/rbdock.cxx#4 $)

>  <Rbt.Library>
libRbt.so (2013.1, Build901 2013/11/27)

>  <Rbt.Parameter_File>
/export/apps/rDock/src/rDock_2013.1_src/data/scripts/dock_solv.prm

>  <Rbt.Receptor>
prm/pocket_docking_3.prm

>  <SCORE>
-20.9227

>  <SCORE.INTER>
-14.8093

>  <SCORE.INTER.CONST>
1

>  <SCORE.INTER.POLAR>
0

>  <SCORE.INTER.ROT>
4

>  <SCORE.INTER.SOLV>
20.8389

>  <SCORE.INTER.VDW>
-23.0858

>  <SCORE.INTER.norm>
-0.617053

>  <SCORE.INTRA>
-6.24171

>  <SCORE.INTRA.DIHEDRAL>
-11.9201

>  <SCORE.INTRA.DIHEDRAL.0>
13.2525

>  <SCORE.INTRA.POLAR>
0

>  <SCORE.INTRA.POLAR.0>
0

>  <SCORE.INTRA.REPUL>
0

>  <SCORE.INTRA.REPUL.0>
0

>  <SCORE.INTRA.SOLV>
-0.114394

>  <SCORE.INTRA.SOLV.lig_0>
-70.7221

>  <SCORE.INTRA.VDW>
-0.224475

>  <SCORE.INTRA.VDW.0>
-1.46337

>  <SCORE.INTRA.norm>
-0.260071

>  <SCORE.RESTR>
0.1283

>  <SCORE.RESTR.CAVITY>
0.1283

>  <SCORE.RESTR.norm>
0.00534582

>  <SCORE.SYSTEM>
0

>  <SCORE.SYSTEM.CONST>
0

>  <SCORE.SYSTEM.DIHEDRAL>
0

>  <SCORE.SYSTEM.SOLV>
0

>  <SCORE.SYSTEM.norm>
0

>  <SCORE.heavy>
24

>  <SCORE.norm>
-0.871778

>  <RMSD>
1.249

$$$$
ligand
 OpenBabel11021811483D
libRbt.so/2013.1/901 2013/11/27
 24 26  0  0  0  0  0  0  0  0999 V2000
   -5.1629   -7.9409   14.3549 P   0  0  1  0  0  0  0  0  0  0  0  0
   -3.7727   -7.5002   13.9490 O   0  0  0  0  0  0  0  0  0  0  0  0
   -5.4438   -9.4234   14.2831 O   0  5  0  0  0  0  0  0  0  0  0  0
   -5.6593   -7.3104   15.6474 O   0  0  0  0  0  0  0  0  0  0  0  0
   -5.8804   -7.6683   11.7618 C   0  0  0  0  0  0  0  0  0  0  0  0
   -6.1090   -7.3921   13.1546 O   0  0  0  0  0  0  0  0  0  0  0  0
   -6.9461   -6.9709   10.9110 C   0  0  1  0  0  0  0  0  0  0  0  0
   -6.8434   -5.5436   10.9903 O   0  0  0  0  0  0  0  0  0  0  0  0
   -6.8980   -7.3040    9.4296 C   0  0  1  0  0  0  0  0  0  0  0  0
   -7.7409   -8.4329    9.1811 O   0  0  0  0  0  0  0  0  0  0  0  0
   -7.4414   -6.0469    8.7702 C   0  0  1  0  0  0  0  0  0  0  0  0
   -8.8760   -6.0517    8.7850 O   0  0  0  0  0  0  0  0  0  0  0  0
   -7.0193   -4.9320    9.7064 C   0  0  2  0  0  0  0  0  0  0  0  0
   -4.4242   -0.5428    9.4680 N   0  0  0  0  0  0  0  0  0  0  0  0
   -5.7104   -0.7623    9.8243 C   0  0  1  0  0  0  0  0  0  0  0  0
   -6.4820    0.2865   10.1895 N   0  0  0  0  0  0  0  0  0  0  0  0
   -6.2308   -2.0118    9.8192 N   0  0  0  0  0  0  0  0  0  0  0  0
   -5.4530   -3.0581    9.4518 C   0  0  1  0  0  0  0  0  0  0  0  0
   -4.1369   -2.8629    9.0816 C   0  0  2  0  0  0  0  0  0  0  0  0
   -3.6264   -1.5702    9.0962 C   0  0  0  0  0  0  0  0  0  0  0  0
   -2.4435   -1.3496    8.7692 O   0  0  0  0  0  0  0  0  0  0  0  0
   -3.6268   -4.0712    8.7675 N   0  0  0  0  0  0  0  0  0  0  0  0
   -4.6036   -4.9908    8.9473 C   0  0  0  0  0  0  0  0  0  0  0  0
   -5.7047   -4.3577    9.3643 N   0  0  1  0  0  0  0  0  0  0  0  0
  1  2  1  6  0  0  0
  1  3  1  0  0  0  0
  1  4  2  0  0  0  0
  1  6  1  0  0  0  0
  5  6  1  0  0  0  0
  7  5  1  1  0  0  0
  7  8  1  0  0  0  0
  7  9  1  0  0  0  0
  9 10  1  1  0  0  0
  9 11  1  0  0  0  0
 11 12  1  1  0  0  0
 11 13  1  0  0  0  0
 13  8  1  1  0  0  0
 13 24  1  0  0  0  0
 14 15  1  0  0  0  0
 14 20  1  0  0  0  0
 15 16  1  6  0  0  0
 15 17  1  0  0  0  0
 18 17  1  1  0  0  0
 18 19  1  0  0  0  0
 18 24  1  0  0  0  0
 19 20  1  6  0  0  0
 19 22  1  0  0  0  0
 20 21  2  0  0  0  0
 22 23  1  0  0  0  0
 24 23  1  1  0  0  0
M  CHG  1   3  -1
M  END
>  <CHROM.1>
53.17995915,65.61641087,-178.80881245,-103.78230397,-5.67193521,-5.17862423
10.85490940,-1.74671539,-0.84390135,-0.72131974

>  <Name>
ligand

>  <RI>
0

>  <Rbt.Current_Directory>
/home/itssahil/PROJECTS/Mol_Feturizer/New_Systems/rnas/3SLQ

>  <Rbt.Executable>
rbdock ($Id: //depot/dev/client3/rdock/2013.1/src/exe/rbdock.cxx#4 $)

>  <Rbt.Library>
libRbt.so (2013.1, Build901 2013/11/27)

>  <Rbt.Parameter_File>
/export/apps/rDock/src/rDock_2013.1_src/data/scripts/dock_solv.prm

>  <Rbt.Receptor>
prm/pocket_docking_3.prm

>  <SCORE>
-20.9259

>  <SCORE.INTER>
-14.8225

>  <SCORE.INTER.CONST>
1

>  <SCORE.INTER.POLAR>
0

>  <SCORE.INTER.ROT>
4

>  <SCORE.INTER.SOLV>
20.4446

>  <SCORE.INTER.VDW>
-22.9632

>  <SCORE.INTER.norm>
-0.617604

>  <SCORE.INTRA>
-6.23072

>  <SCORE.INTRA.DIHEDRAL>
-11.8725

>  <SCORE.INTRA.DIHEDRAL.0>
13.2525

>  <SCORE.INTRA.POLAR>
0

>  <SCORE.INTRA.POLAR.0>
0

>  <SCORE.INTRA.REPUL>
0

>  <SCORE.INTRA.REPUL.0>
0

>  <SCORE.INTRA.SOLV>
-0.120258

>  <SCORE.INTRA.SOLV.lig_0>
-70.7221

>  <SCORE.INTRA.VDW>
-0.234324

>  <SCORE.INTRA.VDW.0>
-1.46337

>  <SCORE.INTRA.norm>
-0.259614

>  <SCORE.RESTR>
0.127288

>  <SCORE.RESTR.CAVITY>
0.127288

>  <SCORE.RESTR.norm>
0.00530365

>  <SCORE.SYSTEM>
0

>  <SCORE.SYSTEM.CONST>
0

>  <SCORE.SYSTEM.DIHEDRAL>
0

>  <SCORE.SYSTEM.SOLV>
0

>  <SCORE.SYSTEM.norm>
0

>  <SCORE.heavy>
24

>  <SCORE.norm>
-0.871914

>  <RMSD>
1.253

$$$$
ligand
 OpenBabel11021811483D
libRbt.so/2013.1/901 2013/11/27
 24 26  0  0  0  0  0  0  0  0999 V2000
   -5.3660   -7.9862   14.3916 P   0  0  1  0  0  0  0  0  0  0  0  0
   -5.6799   -9.4609   14.5273 O   0  0  0  0  0  0  0  0  0  0  0  0
   -5.8794   -7.0875   15.4918 O   0  5  0  0  0  0  0  0  0  0  0  0
   -3.9202   -7.6929   14.0195 O   0  0  0  0  0  0  0  0  0  0  0  0
   -6.3051   -6.1658   12.6259 C   0  0  0  0  0  0  0  0  0  0  0  0
   -6.2925   -7.5060   13.1474 O   0  0  0  0  0  0  0  0  0  0  0  0
   -6.9955   -6.1453   11.2589 C   0  0  1  0  0  0  0  0  0  0  0  0
   -6.9885   -4.8359   10.6763 O   0  0  0  0  0  0  0  0  0  0  0  0
   -6.3754   -7.0611   10.2174 C   0  0  1  0  0  0  0  0  0  0  0  0
   -7.0146   -8.3392   10.2852 O   0  0  0  0  0  0  0  0  0  0  0  0
   -6.6785   -6.3554    8.9057 C   0  0  1  0  0  0  0  0  0  0  0  0
   -8.0099   -6.6603    8.4670 O   0  0  0  0  0  0  0  0  0  0  0  0
   -6.6886   -4.8855    9.2759 C   0  0  2  0  0  0  0  0  0  0  0  0
   -4.2645   -0.4091    9.6530 N   0  0  0  0  0  0  0  0  0  0  0  0
   -5.5742   -0.6949    9.8335 C   0  0  1  0  0  0  0  0  0  0  0  0
   -6.4260    0.2995   10.1710 N   0  0  0  0  0  0  0  0  0  0  0  0
   -6.0389   -1.9570    9.6806 N   0  0  0  0  0  0  0  0  0  0  0  0
   -5.1807   -2.9487    9.3418 C   0  0  1  0  0  0  0  0  0  0  0  0
   -3.8388   -2.6851    9.1497 C   0  0  2  0  0  0  0  0  0  0  0  0
   -3.3867   -1.3810    9.3136 C   0  0  0  0  0  0  0  0  0  0  0  0
   -2.1831   -1.0995    9.1496 O   0  0  0  0  0  0  0  0  0  0  0  0
   -3.2459   -3.8507    8.8199 N   0  0  0  0  0  0  0  0  0  0  0  0
   -4.1989   -4.8118    8.8164 C   0  0  0  0  0  0  0  0  0  0  0  0
   -5.3669   -4.2460    9.1369 N   0  0  1  0  0  0  0  0  0  0  0  0
  1  2  1  1  0  0  0
  1  3  1  0  0  0  0
  1  4  2  0  0  0  0
  1  6  1  0  0  0  0
  5  6  1  0  0  0  0
  7  5  1  1  0  0  0
  7  8  1  0  0  0  0
  7  9  1  0  0  0  0
  9 10  1  6  0  0  0
  9 11  1  0  0  0  0
 11 12  1  1  0  0  0
 11 13  1  0  0  0  0
 13  8  1  1  0  0  0
 13 24  1  0  0  0  0
 14 15  1  0  0  0  0
 14 20  1  0  0  0  0
 15 16  1  6  0  0  0
 15 17  1  0  0  0  0
 18 17  1  1  0  0  0
 18 19  1  0  0  0  0
 18 24  1  0  0  0  0
 19 20  1  6  0  0  0
 19 22  1  0  0  0  0
 20 21  2  0  0  0  0
 22 23  1  0  0  0  0
 24 23  1  1  0  0  0
M  CHG  1   3  -1
M  END
>  <CHROM.1>
-178.45670046,-177.86138739,165.44205049,-68.61115624,-5.51742582,-5.03369704
10.96431344,-1.85049337,-0.92951968,-0.82124950

>  <Name>
ligand

>  <RI>
0

>  <Rbt.Current_Directory>
/home/itssahil/PROJECTS/Mol_Feturizer/New_Systems/rnas/3SLQ

>  <Rbt.Executable>
rbdock ($Id: //depot/dev/client3/rdock/2013.1/src/exe/rbdock.cxx#4 $)

>  <Rbt.Library>
libRbt.so (2013.1, Build901 2013/11/27)

>  <Rbt.Parameter_File>
/export/apps/rDock/src/rDock_2013.1_src/data/scripts/dock_solv.prm

>  <Rbt.Receptor>
prm/pocket_docking_3.prm

>  <SCORE>
-19.7943

>  <SCORE.INTER>
-14.512

>  <SCORE.INTER.CONST>
1

>  <SCORE.INTER.POLAR>
0

>  <SCORE.INTER.ROT>
4

>  <SCORE.INTER.SOLV>
24.0768

>  <SCORE.INTER.VDW>
-23.9669

>  <SCORE.INTER.norm>
-0.604666

>  <SCORE.INTRA>
-5.2823

>  <SCORE.INTRA.DIHEDRAL>
-11.0436

>  <SCORE.INTRA.DIHEDRAL.0>
13.2525

>  <SCORE.INTRA.POLAR>
0

>  <SCORE.INTRA.POLAR.0>
0

>  <SCORE.INTRA.REPUL>
0

>  <SCORE.INTRA.REPUL.0>
0

>  <SCORE.INTRA.SOLV>
0.840558

>  <SCORE.INTRA.SOLV.lig_0>
-70.7221

>  <SCORE.INTRA.VDW>
-0.180761

>  <SCORE.INTRA.VDW.0>
-1.46337

>  <SCORE.INTRA.norm>
-0.220096

>  <SCORE.RESTR>
0

>  <SCORE.RESTR.CAVITY>
0

>  <SCORE.RESTR.norm>
0

>  <SCORE.SYSTEM>
0

>  <SCORE.SYSTEM.CONST>
0

>  <SCORE.SYSTEM.DIHEDRAL>
0

>  <SCORE.SYSTEM.SOLV>
0

>  <SCORE.SYSTEM.norm>
0

>  <SCORE.heavy>
24

>  <SCORE.norm>
-0.824762

>  <RMSD>
1.261

$$$$
ligand
 OpenBabel11021811483D
libRbt.so/2013.1/901 2013/11/27
 24 26  0  0  0  0  0  0  0  0999 V2000
   -6.6453   -7.1996   14.1702 P   0  0  1  0  0  0  0  0  0  0  0  0
   -5.3898   -7.2035   13.3245 O   0  0  0  0  0  0  0  0  0  0  0  0
   -7.7431   -8.1461   13.7447 O   0  5  0  0  0  0  0  0  0  0  0  0
   -6.3827   -7.2393   15.6682 O   0  0  0  0  0  0  0  0  0  0  0  0
   -6.8541   -4.8625   12.8257 C   0  0  0  0  0  0  0  0  0  0  0  0
   -7.3318   -5.7661   13.8374 O   0  0  0  0  0  0  0  0  0  0  0  0
   -7.3035   -5.3441   11.4430 C   0  0  1  0  0  0  0  0  0  0  0  0
   -7.3057   -4.2813   10.4815 O   0  0  0  0  0  0  0  0  0  0  0  0
   -6.4439   -6.4416   10.8393 C   0  0  1  0  0  0  0  0  0  0  0  0
   -6.9785   -7.7121   11.2225 O   0  0  0  0  0  0  0  0  0  0  0  0
   -6.5783   -6.2088    9.3433 C   0  0  1  0  0  0  0  0  0  0  0  0
   -7.7873   -6.8023    8.8490 O   0  0  0  0  0  0  0  0  0  0  0  0
   -6.7711   -4.7101    9.2231 C   0  0  2  0  0  0  0  0  0  0  0  0
   -4.6864   -0.0607    9.5305 N   0  0  0  0  0  0  0  0  0  0  0  0
   -5.9700   -0.4413    9.7232 C   0  0  1  0  0  0  0  0  0  0  0  0
   -6.8918    0.4908   10.0546 N   0  0  0  0  0  0  0  0  0  0  0  0
   -6.3399   -1.7364    9.5885 N   0  0  0  0  0  0  0  0  0  0  0  0
   -5.4119   -2.6653    9.2557 C   0  0  1  0  0  0  0  0  0  0  0  0
   -4.0946   -2.3046    9.0515 C   0  0  2  0  0  0  0  0  0  0  0  0
   -3.7403   -0.9684    9.1968 C   0  0  0  0  0  0  0  0  0  0  0  0
   -2.5622   -0.5999    9.0214 O   0  0  0  0  0  0  0  0  0  0  0  0
   -3.4181   -3.4267    8.7317 N   0  0  0  0  0  0  0  0  0  0  0  0
   -4.2966   -4.4562    8.7460 C   0  0  0  0  0  0  0  0  0  0  0  0
   -5.5017   -3.9754    9.0676 N   0  0  1  0  0  0  0  0  0  0  0  0
  1  2  1  6  0  0  0
  1  3  1  0  0  0  0
  1  4  2  0  0  0  0
  1  6  1  0  0  0  0
  5  6  1  0  0  0  0
  7  5  1  1  0  0  0
  7  8  1  0  0  0  0
  7  9  1  0  0  0  0
  9 10  1  6  0  0  0
  9 11  1  0  0  0  0
 11 12  1  1  0  0  0
 11 13  1  0  0  0  0
 13  8  1  1  0  0  0
 13 24  1  0  0  0  0
 14 15  1  0  0  0  0
 14 20  1  0  0  0  0
 15 16  1  6  0  0  0
 15 17  1  0  0  0  0
 18 17  1  1  0  0  0
 18 19  1  0  0  0  0
 18 24  1  0  0  0  0
 19 20  1  6  0  0  0
 19 22  1  0  0  0  0
 20 21  2  0  0  0  0
 22 23  1  0  0  0  0
 24 23  1  1  0  0  0
M  CHG  1   3  -1
M  END
>  <CHROM.1>
6.78238318,158.26775900,78.28202712,-48.80713002,-6.01627522,-4.51318724
10.97832722,-2.71568266,-1.24935801,-1.75187641

>  <Name>
ligand

>  <RI>
0

>  <Rbt.Current_Directory>
/home/itssahil/PROJECTS/Mol_Feturizer/New_Systems/rnas/3SLQ

>  <Rbt.Executable>
rbdock ($Id: //depot/dev/client3/rdock/2013.1/src/exe/rbdock.cxx#4 $)

>  <Rbt.Library>
libRbt.so (2013.1, Build901 2013/11/27)

>  <Rbt.Parameter_File>
/export/apps/rDock/src/rDock_2013.1_src/data/scripts/dock_solv.prm

>  <Rbt.Receptor>
prm/pocket_docking_2.prm

>  <SCORE>
-18.1485

>  <SCORE.INTER>
-16.4432

>  <SCORE.INTER.CONST>
1

>  <SCORE.INTER.POLAR>
0

>  <SCORE.INTER.ROT>
4

>  <SCORE.INTER.SOLV>
22.6989

>  <SCORE.INTER.VDW>
-24.7951

>  <SCORE.INTER.norm>
-0.685135

>  <SCORE.INTRA>
-1.72271

>  <SCORE.INTRA.DIHEDRAL>
-6.65633

>  <SCORE.INTRA.DIHEDRAL.0>
13.2525

>  <SCORE.INTRA.POLAR>
0

>  <SCORE.INTRA.POLAR.0>
0

>  <SCORE.INTRA.REPUL>
0

>  <SCORE.INTRA.REPUL.0>
0

>  <SCORE.INTRA.SOLV>
3.11963

>  <SCORE.INTRA.SOLV.lig_0>
-70.7221

>  <SCORE.INTRA.VDW>
0.0456402

>  <SCORE.INTRA.VDW.0>
-1.46337

>  <SCORE.INTRA.norm>
-0.0717796

>  <SCORE.RESTR>
0.0174078

>  <SCORE.RESTR.CAVITY>
0.0174078

>  <SCORE.RESTR.norm>
0.000725323

>  <SCORE.SYSTEM>
0

>  <SCORE.SYSTEM.CONST>
0

>  <SCORE.SYSTEM.DIHEDRAL>
0

>  <SCORE.SYSTEM.SOLV>
0

>  <SCORE.SYSTEM.norm>
0

>  <SCORE.heavy>
24

>  <SCORE.norm>
-0.756189

>  <RMSD>
1.274

$$$$
ligand
 OpenBabel11021811483D
libRbt.so/2013.1/901 2013/11/27
 24 26  0  0  0  0  0  0  0  0999 V2000
   -6.1996   -7.1090   13.9488 P   0  0  1  0  0  0  0  0  0  0  0  0
   -5.0900   -6.5744   13.0688 O   0  0  0  0  0  0  0  0  0  0  0  0
   -6.7381   -8.4748   13.5934 O   0  5  0  0  0  0  0  0  0  0  0  0
   -5.9388   -6.9495   15.4392 O   0  0  0  0  0  0  0  0  0  0  0  0
   -7.4297   -5.1000   12.6205 C   0  0  0  0  0  0  0  0  0  0  0  0
   -7.4733   -6.1724   13.5778 O   0  0  0  0  0  0  0  0  0  0  0  0
   -7.6848   -5.6475   11.2131 C   0  0  1  0  0  0  0  0  0  0  0  0
   -7.6196   -4.6172   10.2190 O   0  0  0  0  0  0  0  0  0  0  0  0
   -6.7082   -6.7186   10.7586 C   0  0  1  0  0  0  0  0  0  0  0  0
   -7.2257   -8.0017   11.1225 O   0  0  0  0  0  0  0  0  0  0  0  0
   -6.6705   -6.5405    9.2495 C   0  0  1  0  0  0  0  0  0  0  0  0
   -7.7815   -7.2100    8.6366 O   0  0  0  0  0  0  0  0  0  0  0  0
   -6.9167   -5.0581    9.0507 C   0  0  2  0  0  0  0  0  0  0  0  0
   -5.0510   -0.3690    9.8178 N   0  0  0  0  0  0  0  0  0  0  0  0
   -6.3255   -0.8124    9.9101 C   0  0  1  0  0  0  0  0  0  0  0  0
   -7.3023    0.0554   10.2582 N   0  0  0  0  0  0  0  0  0  0  0  0
   -6.6323   -2.1066    9.6593 N   0  0  0  0  0  0  0  0  0  0  0  0
   -5.6494   -2.9710    9.3105 C   0  0  1  0  0  0  0  0  0  0  0  0
   -4.3397   -2.5452    9.2070 C   0  0  2  0  0  0  0  0  0  0  0  0
   -4.0509   -1.2114    9.4706 C   0  0  0  0  0  0  0  0  0  0  0  0
   -2.8819   -0.7854    9.3886 O   0  0  0  0  0  0  0  0  0  0  0  0
   -3.6003   -3.6126    8.8427 N   0  0  0  0  0  0  0  0  0  0  0  0
   -4.4336   -4.6733    8.7318 C   0  0  0  0  0  0  0  0  0  0  0  0
   -5.6734   -4.2653    9.0208 N   0  0  1  0  0  0  0  0  0  0  0  0
  1  2  1  6  0  0  0
  1  3  1  0  0  0  0
  1  4  2  0  0  0  0
  1  6  1  0  0  0  0
  5  6  1  0  0  0  0
  7  5  1  1  0  0  0
  7  8  1  0  0  0  0
  7  9  1  0  0  0  0
  9 10  1  6  0  0  0
  9 11  1  0  0  0  0
 11 12  1  6  0  0  0
 11 13  1  0  0  0  0
 13  8  1  1  0  0  0
 13 24  1  0  0  0  0
 14 15  1  0  0  0  0
 14 20  1  0  0  0  0
 15 16  1  6  0  0  0
 15 17  1  0  0  0  0
 18 17  1  1  0  0  0
 18 19  1  0  0  0  0
 18 24  1  0  0  0  0
 19 20  1  6  0  0  0
 19 22  1  0  0  0  0
 20 21  2  0  0  0  0
 22 23  1  0  0  0  0
 24 23  1  1  0  0  0
M  CHG  1   3  -1
M  END
>  <CHROM.1>
-0.48886690,-178.62703846,85.92788718,-41.40036165,-6.09907300,-4.71673858
10.92697015,-2.25285655,-1.18651527,-1.22800887

>  <Name>
ligand

>  <RI>
0

>  <Rbt.Current_Directory>
/home/itssahil/PROJECTS/Mol_Feturizer/New_Systems/rnas/3SLQ

>  <Rbt.Executable>
rbdock ($Id: //depot/dev/client3/rdock/2013.1/src/exe/rbdock.cxx#4 $)

>  <Rbt.Library>
libRbt.so (2013.1, Build901 2013/11/27)

>  <Rbt.Parameter_File>
/export/apps/rDock/src/rDock_2013.1_src/data/scripts/dock_solv.prm

>  <Rbt.Receptor>
prm/pocket_docking_2.prm

>  <SCORE>
-17.0074

>  <SCORE.INTER>
-15.3202

>  <SCORE.INTER.CONST>
1

>  <SCORE.INTER.POLAR>
0

>  <SCORE.INTER.ROT>
4

>  <SCORE.INTER.SOLV>
23.5547

>  <SCORE.INTER.VDW>
-24.3317

>  <SCORE.INTER.norm>
-0.638341

>  <SCORE.INTRA>
-1.70311

>  <SCORE.INTRA.DIHEDRAL>
-6.79169

>  <SCORE.INTRA.DIHEDRAL.0>
13.2525

>  <SCORE.INTRA.POLAR>
0

>  <SCORE.INTRA.POLAR.0>
0

>  <SCORE.INTRA.REPUL>
0

>  <SCORE.INTRA.REPUL.0>
0

>  <SCORE.INTRA.SOLV>
3.20724

>  <SCORE.INTRA.SOLV.lig_0>
-70.7221

>  <SCORE.INTRA.VDW>
0.0891196

>  <SCORE.INTRA.VDW.0>
-1.46337

>  <SCORE.INTRA.norm>
-0.0709628

>  <SCORE.RESTR>
0.0158545

>  <SCORE.RESTR.CAVITY>
0.0158545

>  <SCORE.RESTR.norm>
0.000660603

>  <SCORE.SYSTEM>
0

>  <SCORE.SYSTEM.CONST>
0

>  <SCORE.SYSTEM.DIHEDRAL>
0

>  <SCORE.SYSTEM.SOLV>
0

>  <SCORE.SYSTEM.norm>
0

>  <SCORE.heavy>
24

>  <SCORE.norm>
-0.708644

>  <RMSD>
1.275

$$$$
ligand
 OpenBabel11021811483D
libRbt.so/2013.1/901 2013/11/27
 24 26  0  0  0  0  0  0  0  0999 V2000
   -6.7907   -7.2125   14.3572 P   0  0  1  0  0  0  0  0  0  0  0  0
   -5.3871   -6.7865   13.9833 O   0  0  0  0  0  0  0  0  0  0  0  0
   -7.0571   -8.6993   14.3772 O   0  5  0  0  0  0  0  0  0  0  0  0
   -7.3494   -6.4987   15.5791 O   0  0  0  0  0  0  0  0  0  0  0  0
   -7.4555   -7.2134   11.7358 C   0  0  0  0  0  0  0  0  0  0  0  0
   -7.6860   -6.7588   13.0806 O   0  0  0  0  0  0  0  0  0  0  0  0
   -8.3788   -6.4670   10.7683 C   0  0  1  0  0  0  0  0  0  0  0  0
   -8.1912   -5.0479   10.8380 O   0  0  0  0  0  0  0  0  0  0  0  0
   -8.1994   -6.8331    9.3049 C   0  0  1  0  0  0  0  0  0  0  0  0
   -9.0845   -7.9107    8.9852 O   0  0  0  0  0  0  0  0  0  0  0  0
   -8.5875   -5.5578    8.5747 C   0  0  1  0  0  0  0  0  0  0  0  0
  -10.0131   -5.4703    8.4391 O   0  0  0  0  0  0  0  0  0  0  0  0
   -8.1922   -4.4530    9.5343 C   0  0  2  0  0  0  0  0  0  0  0  0
   -5.2392   -0.2981    9.8037 N   0  0  0  0  0  0  0  0  0  0  0  0
   -6.5611   -0.4306   10.0573 C   0  0  1  0  0  0  0  0  0  0  0  0
   -7.2692    0.6522   10.4507 N   0  0  0  0  0  0  0  0  0  0  0  0
   -7.1795   -1.6271    9.9223 N   0  0  0  0  0  0  0  0  0  0  0  0
   -6.4649   -2.7079    9.5273 C   0  0  1  0  0  0  0  0  0  0  0  0
   -5.1142   -2.6010    9.2600 C   0  0  2  0  0  0  0  0  0  0  0  0
   -4.5028   -1.3615    9.4071 C   0  0  0  0  0  0  0  0  0  0  0  0
   -3.2856   -1.2210    9.1760 O   0  0  0  0  0  0  0  0  0  0  0  0
   -4.6826   -3.8235    8.8881 N   0  0  0  0  0  0  0  0  0  0  0  0
   -5.7412   -4.6658    8.9325 C   0  0  0  0  0  0  0  0  0  0  0  0
   -6.8142   -3.9713    9.3240 N   0  0  1  0  0  0  0  0  0  0  0  0
  1  2  1  6  0  0  0
  1  3  1  0  0  0  0
  1  4  2  0  0  0  0
  1  6  1  0  0  0  0
  5  6  1  0  0  0  0
  7  5  1  1  0  0  0
  7  8  1  0  0  0  0
  7  9  1  0  0  0  0
  9 10  1  6  0  0  0
  9 11  1  0  0  0  0
 11 12  1  1  0  0  0
 11 13  1  0  0  0  0
 13  8  1  1  0  0  0
 13 24  1  0  0  0  0
 14 15  1  0  0  0  0
 14 20  1  0  0  0  0
 15 16  1  6  0  0  0
 15 17  1  0  0  0  0
 18 17  1  1  0  0  0
 18 19  1  0  0  0  0
 18 24  1  0  0  0  0
 19 20  1  6  0  0  0
 19 22  1  0  0  0  0
 20 21  2  0  0  0  0
 22 23  1  0  0  0  0
 24 23  1  1  0  0  0
M  CHG  1   3  -1
M  END
>  <CHROM.1>
58.27002282,57.84815087,-173.58899088,-98.05355115,-6.91446980,-4.70398532
10.87449309,-1.94311975,-0.89293706,-0.87651134

>  <Name>
ligand

>  <RI>
0

>  <Rbt.Current_Directory>
/home/itssahil/PROJECTS/Mol_Feturizer/New_Systems/rnas/3SLQ

>  <Rbt.Executable>
rbdock ($Id: //depot/dev/client3/rdock/2013.1/src/exe/rbdock.cxx#4 $)

>  <Rbt.Library>
libRbt.so (2013.1, Build901 2013/11/27)

>  <Rbt.Parameter_File>
/export/apps/rDock/src/rDock_2013.1_src/data/scripts/dock_solv.prm

>  <Rbt.Receptor>
prm/pocket_docking_2.prm

>  <SCORE>
-16.5279

>  <SCORE.INTER>
-10.3828

>  <SCORE.INTER.CONST>
1

>  <SCORE.INTER.POLAR>
0

>  <SCORE.INTER.ROT>
4

>  <SCORE.INTER.SOLV>
23.494

>  <SCORE.INTER.VDW>
-21.0199

>  <SCORE.INTER.norm>
-0.432616

>  <SCORE.INTRA>
-6.15829

>  <SCORE.INTRA.DIHEDRAL>
-11.8471

>  <SCORE.INTRA.DIHEDRAL.0>
13.2525

>  <SCORE.INTRA.POLAR>
0

>  <SCORE.INTRA.POLAR.0>
0

>  <SCORE.INTRA.REPUL>
0

>  <SCORE.INTRA.REPUL.0>
0

>  <SCORE.INTRA.SOLV>
-0.0433336

>  <SCORE.INTRA.SOLV.lig_0>
-70.7221

>  <SCORE.INTRA.VDW>
-0.213077

>  <SCORE.INTRA.VDW.0>
-1.46337

>  <SCORE.INTRA.norm>
-0.256595

>  <SCORE.RESTR>
0.0131497

>  <SCORE.RESTR.CAVITY>
0.0131497

>  <SCORE.RESTR.norm>
0.000547906

>  <SCORE.SYSTEM>
0

>  <SCORE.SYSTEM.CONST>
0

>  <SCORE.SYSTEM.DIHEDRAL>
0

>  <SCORE.SYSTEM.SOLV>
0

>  <SCORE.SYSTEM.norm>
0

>  <SCORE.heavy>
24

>  <SCORE.norm>
-0.688664

>  <RMSD>
1.289

$$$$
ligand
 OpenBabel11021811483D
libRbt.so/2013.1/901 2013/11/27
 24 26  0  0  0  0  0  0  0  0999 V2000
   -4.7457   -7.9970   14.4435 P   0  0  1  0  0  0  0  0  0  0  0  0
   -3.4033   -7.3735   14.1260 O   0  0  0  0  0  0  0  0  0  0  0  0
   -4.8187   -9.5041   14.3711 O   0  5  0  0  0  0  0  0  0  0  0  0
   -5.4091   -7.4356   15.6922 O   0  0  0  0  0  0  0  0  0  0  0  0
   -5.9226   -6.2276   12.7709 C   0  0  0  0  0  0  0  0  0  0  0  0
   -5.6735   -7.5848   13.1761 O   0  0  0  0  0  0  0  0  0  0  0  0
   -6.7423   -6.2125   11.4772 C   0  0  1  0  0  0  0  0  0  0  0  0
   -6.8212   -4.8987   10.9099 O   0  0  0  0  0  0  0  0  0  0  0  0
   -6.2056   -7.1052   10.3714 C   0  0  1  0  0  0  0  0  0  0  0  0
   -6.8063   -8.3984   10.4877 O   0  0  0  0  0  0  0  0  0  0  0  0
   -6.6499   -6.3965    9.1024 C   0  0  1  0  0  0  0  0  0  0  0  0
   -8.0104   -6.7289    8.7912 O   0  0  0  0  0  0  0  0  0  0  0  0
   -6.6572   -4.9302    9.4867 C   0  0  2  0  0  0  0  0  0  0  0  0
   -4.3479   -0.3782    9.5414 N   0  0  0  0  0  0  0  0  0  0  0  0
   -5.6308   -0.6944    9.8307 C   0  0  1  0  0  0  0  0  0  0  0  0
   -6.4841    0.2863   10.2029 N   0  0  0  0  0  0  0  0  0  0  0  0
   -6.0674   -1.9732    9.7520 N   0  0  0  0  0  0  0  0  0  0  0  0
   -5.2079   -2.9510    9.3780 C   0  0  1  0  0  0  0  0  0  0  0  0
   -3.8931   -2.6565    9.0752 C   0  0  2  0  0  0  0  0  0  0  0  0
   -3.4695   -1.3357    9.1646 C   0  0  0  0  0  0  0  0  0  0  0  0
   -2.2910   -1.0262    8.9000 O   0  0  0  0  0  0  0  0  0  0  0  0
   -3.2921   -3.8152    8.7359 N   0  0  0  0  0  0  0  0  0  0  0  0
   -4.2131   -4.8020    8.8347 C   0  0  0  0  0  0  0  0  0  0  0  0
   -5.3699   -4.2590    9.2271 N   0  0  1  0  0  0  0  0  0  0  0  0
  1  2  1  6  0  0  0
  1  3  1  0  0  0  0
  1  4  2  0  0  0  0
  1  6  1  0  0  0  0
  5  6  1  0  0  0  0
  7  5  1  1  0  0  0
  7  8  1  0  0  0  0
  7  9  1  0  0  0  0
  9 10  1  1  0  0  0
  9 11  1  0  0  0  0
 11 12  1  1  0  0  0
 11 13  1  0  0  0  0
 13  8  1  1  0  0  0
 13 24  1  0  0  0  0
 14 15  1  0  0  0  0
 14 20  1  0  0  0  0
 15 16  1  6  0  0  0
 15 17  1  0  0  0  0
 18 17  1  1  0  0  0
 18 19  1  0  0  0  0
 18 24  1  0  0  0  0
 19 20  1  6  0  0  0
 19 22  1  0  0  0  0
 20 21  2  0  0  0  0
 22 23  1  0  0  0  0
 24 23  1  1  0  0  0
M  CHG  1   3  -1
M  END
>  <CHROM.1>
-57.96297819,-170.01053959,175.43354268,-71.21127876,-5.32390428,-5.05264026
11.02835627,-1.69847416,-0.85744931,-0.70296935

>  <Name>
ligand

>  <RI>
0

>  <Rbt.Current_Directory>
/home/itssahil/PROJECTS/Mol_Feturizer/New_Systems/rnas/3SLQ

>  <Rbt.Executable>
rbdock ($Id: //depot/dev/client3/rdock/2013.1/src/exe/rbdock.cxx#4 $)

>  <Rbt.Library>
libRbt.so (2013.1, Build901 2013/11/27)

>  <Rbt.Parameter_File>
/export/apps/rDock/src/rDock_2013.1_src/data/scripts/dock_solv.prm

>  <Rbt.Receptor>
prm/pocket_docking_5.prm

>  <SCORE>
-23.6091

>  <SCORE.INTER>
-17.6518

>  <SCORE.INTER.CONST>
1

>  <SCORE.INTER.POLAR>
0

>  <SCORE.INTER.ROT>
4

>  <SCORE.INTER.SOLV>
21.1199

>  <SCORE.INTER.VDW>
-25.0745

>  <SCORE.INTER.norm>
-0.735492

>  <SCORE.INTRA>
-5.9573

>  <SCORE.INTRA.DIHEDRAL>
-11.6015

>  <SCORE.INTRA.DIHEDRAL.0>
13.2525

>  <SCORE.INTRA.POLAR>
0

>  <SCORE.INTRA.POLAR.0>
0

>  <SCORE.INTRA.REPUL>
0

>  <SCORE.INTRA.REPUL.0>
0

>  <SCORE.INTRA.SOLV>
0.0902304

>  <SCORE.INTRA.SOLV.lig_0>
-70.7221

>  <SCORE.INTRA.VDW>
-0.201668

>  <SCORE.INTRA.VDW.0>
-1.46337

>  <SCORE.INTRA.norm>
-0.248221

>  <SCORE.RESTR>
0

>  <SCORE.RESTR.CAVITY>
0

>  <SCORE.RESTR.norm>
0

>  <SCORE.SYSTEM>
0

>  <SCORE.SYSTEM.CONST>
0

>  <SCORE.SYSTEM.DIHEDRAL>
0

>  <SCORE.SYSTEM.SOLV>
0

>  <SCORE.SYSTEM.norm>
0

>  <SCORE.heavy>
24

>  <SCORE.norm>
-0.983712

>  <RMSD>
1.302

$$$$
ligand
 OpenBabel11021811483D
libRbt.so/2013.1/901 2013/11/27
 24 26  0  0  0  0  0  0  0  0999 V2000
   -4.8696   -7.9980   14.5714 P   0  0  1  0  0  0  0  0  0  0  0  0
   -5.4999   -7.1931   15.6878 O   0  0  0  0  0  0  0  0  0  0  0  0
   -3.4857   -7.5746   14.1385 O   0  5  0  0  0  0  0  0  0  0  0  0
   -4.9957   -9.5040   14.7468 O   0  0  0  0  0  0  0  0  0  0  0  0
   -5.9009   -6.2386   12.7954 C   0  0  0  0  0  0  0  0  0  0  0  0
   -5.7380   -7.5893   13.2615 O   0  0  0  0  0  0  0  0  0  0  0  0
   -6.7282   -6.2287   11.5065 C   0  0  1  0  0  0  0  0  0  0  0  0
   -6.8134   -4.9165   10.9363 O   0  0  0  0  0  0  0  0  0  0  0  0
   -6.1960   -7.1231   10.4000 C   0  0  1  0  0  0  0  0  0  0  0  0
   -6.7931   -8.4173   10.5232 O   0  0  0  0  0  0  0  0  0  0  0  0
   -6.6494   -6.4187    9.1317 C   0  0  1  0  0  0  0  0  0  0  0  0
   -8.0110   -6.7549    8.8294 O   0  0  0  0  0  0  0  0  0  0  0  0
   -6.6577   -4.9514    9.5122 C   0  0  2  0  0  0  0  0  0  0  0  0
   -4.3598   -0.3934    9.5363 N   0  0  0  0  0  0  0  0  0  0  0  0
   -5.6404   -0.7116    9.8334 C   0  0  1  0  0  0  0  0  0  0  0  0
   -6.4944    0.2684   10.2058 N   0  0  0  0  0  0  0  0  0  0  0  0
   -6.0741   -1.9918    9.7623 N   0  0  0  0  0  0  0  0  0  0  0  0
   -5.2141   -2.9691    9.3880 C   0  0  1  0  0  0  0  0  0  0  0  0
   -3.9015   -2.6725    9.0773 C   0  0  2  0  0  0  0  0  0  0  0  0
   -3.4808   -1.3502    9.1591 C   0  0  0  0  0  0  0  0  0  0  0  0
   -2.3045   -1.0389    8.8872 O   0  0  0  0  0  0  0  0  0  0  0  0
   -3.2993   -3.8310    8.7398 N   0  0  0  0  0  0  0  0  0  0  0  0
   -4.2173   -4.8198    8.8473 C   0  0  0  0  0  0  0  0  0  0  0  0
   -5.3734   -4.2780    9.2433 N   0  0  1  0  0  0  0  0  0  0  0  0
  1  2  1  1  0  0  0
  1  3  1  0  0  0  0
  1  4  2  0  0  0  0
  1  6  1  0  0  0  0
  5  6  1  0  0  0  0
  7  5  1  1  0  0  0
  7  8  1  0  0  0  0
  7  9  1  0  0  0  0
  9 10  1  1  0  0  0
  9 11  1  0  0  0  0
 11 12  1  1  0  0  0
 11 13  1  0  0  0  0
 13  8  1  1  0  0  0
 13 24  1  0  0  0  0
 14 15  1  0  0  0  0
 14 20  1  0  0  0  0
 15 16  1  6  0  0  0
 15 17  1  0  0  0  0
 18 17  1  1  0  0  0
 18 19  1  0  0  0  0
 18 24  1  0  0  0  0
 19 20  1  6  0  0  0
 19 22  1  0  0  0  0
 20 21  2  0  0  0  0
 22 23  1  0  0  0  0
 24 23  1  1  0  0  0
M  CHG  1   3  -1
M  END
>  <CHROM.1>
56.83773136,-174.62437483,177.58112099,-71.31303886,-5.35425952,-5.06398895
11.07153115,-1.71744884,-0.89055310,-0.73539426

>  <Name>
ligand

>  <RI>
0

>  <Rbt.Current_Directory>
/home/itssahil/PROJECTS/Mol_Feturizer/New_Systems/rnas/3SLQ

>  <Rbt.Executable>
rbdock ($Id: //depot/dev/client3/rdock/2013.1/src/exe/rbdock.cxx#4 $)

>  <Rbt.Library>
libRbt.so (2013.1, Build901 2013/11/27)

>  <Rbt.Parameter_File>
/export/apps/rDock/src/rDock_2013.1_src/data/scripts/dock_solv.prm

>  <Rbt.Receptor>
prm/pocket_docking_5.prm

>  <SCORE>
-22.9234

>  <SCORE.INTER>
-16.935

>  <SCORE.INTER.CONST>
1

>  <SCORE.INTER.POLAR>
0

>  <SCORE.INTER.ROT>
4

>  <SCORE.INTER.SOLV>
22.0283

>  <SCORE.INTER.VDW>
-24.8994

>  <SCORE.INTER.norm>
-0.705625

>  <SCORE.INTRA>
-5.98842

>  <SCORE.INTRA.DIHEDRAL>
-11.9152

>  <SCORE.INTRA.DIHEDRAL.0>
13.2525

>  <SCORE.INTRA.POLAR>
0

>  <SCORE.INTRA.POLAR.0>
0

>  <SCORE.INTRA.REPUL>
0

>  <SCORE.INTRA.REPUL.0>
0

>  <SCORE.INTRA.SOLV>
0.179409

>  <SCORE.INTRA.SOLV.lig_0>
-70.7221

>  <SCORE.INTRA.VDW>
-0.120545

>  <SCORE.INTRA.VDW.0>
-1.46337

>  <SCORE.INTRA.norm>
-0.249518

>  <SCORE.RESTR>
0

>  <SCORE.RESTR.CAVITY>
0

>  <SCORE.RESTR.norm>
0

>  <SCORE.SYSTEM>
0

>  <SCORE.SYSTEM.CONST>
0

>  <SCORE.SYSTEM.DIHEDRAL>
0

>  <SCORE.SYSTEM.SOLV>
0

>  <SCORE.SYSTEM.norm>
0

>  <SCORE.heavy>
24

>  <SCORE.norm>
-0.955143

>  <RMSD>
1.311

$$$$
ligand
 OpenBabel11021811483D
libRbt.so/2013.1/901 2013/11/27
 24 26  0  0  0  0  0  0  0  0999 V2000
   -6.4947   -9.1401   13.6035 P   0  0  1  0  0  0  0  0  0  0  0  0
   -5.9535  -10.5538   13.6069 O   0  0  0  0  0  0  0  0  0  0  0  0
   -7.7485   -8.9043   12.7946 O   0  5  0  0  0  0  0  0  0  0  0  0
   -6.5540   -8.4967   14.9808 O   0  0  0  0  0  0  0  0  0  0  0  0
   -5.4685   -6.8915   12.5061 C   0  0  0  0  0  0  0  0  0  0  0  0
   -5.4063   -8.3109   12.7288 O   0  0  0  0  0  0  0  0  0  0  0  0
   -6.5190   -6.5776   11.4367 C   0  0  1  0  0  0  0  0  0  0  0  0
   -6.5870   -5.1751   11.1498 O   0  0  0  0  0  0  0  0  0  0  0  0
   -6.2904   -7.2594   10.0985 C   0  0  1  0  0  0  0  0  0  0  0  0
   -6.9718   -8.5174   10.0973 O   0  0  0  0  0  0  0  0  0  0  0  0
   -6.9065   -6.2909    9.1022 C   0  0  1  0  0  0  0  0  0  0  0  0
   -8.3260   -6.4845    9.0252 O   0  0  0  0  0  0  0  0  0  0  0  0
   -6.7061   -4.9317    9.7427 C   0  0  2  0  0  0  0  0  0  0  0  0
   -4.3621   -0.4108    9.3916 N   0  0  0  0  0  0  0  0  0  0  0  0
   -5.6202   -0.6971    9.7973 C   0  0  1  0  0  0  0  0  0  0  0  0
   -6.4328    0.3106   10.1881 N   0  0  0  0  0  0  0  0  0  0  0  0
   -6.0724   -1.9728    9.8160 N   0  0  0  0  0  0  0  0  0  0  0  0
   -5.2538   -2.9778    9.4227 C   0  0  1  0  0  0  0  0  0  0  0  0
   -3.9650   -2.7141    9.0021 C   0  0  2  0  0  0  0  0  0  0  0  0
   -3.5247   -1.3958    8.9931 C   0  0  0  0  0  0  0  0  0  0  0  0
   -2.3686   -1.1137    8.6206 O   0  0  0  0  0  0  0  0  0  0  0  0
   -3.4028   -3.8950    8.6728 N   0  0  0  0  0  0  0  0  0  0  0  0
   -4.3211   -4.8647    8.8925 C   0  0  0  0  0  0  0  0  0  0  0  0
   -5.4382   -4.2894    9.3490 N   0  0  1  0  0  0  0  0  0  0  0  0
  1  2  1  1  0  0  0
  1  3  1  0  0  0  0
  1  4  2  0  0  0  0
  1  6  1  0  0  0  0
  5  6  1  0  0  0  0
  7  5  1  1  0  0  0
  7  8  1  0  0  0  0
  7  9  1  0  0  0  0
  9 10  1  1  0  0  0
  9 11  1  0  0  0  0
 11 12  1  1  0  0  0
 11 13  1  0  0  0  0
 13  8  1  1  0  0  0
 13 24  1  0  0  0  0
 14 15  1  0  0  0  0
 14 20  1  0  0  0  0
 15 16  1  6  0  0  0
 15 17  1  0  0  0  0
 18 17  1  1  0  0  0
 18 19  1  0  0  0  0
 18 24  1  0  0  0  0
 19 20  1  6  0  0  0
 19 22  1  0  0  0  0
 20 21  2  0  0  0  0
 22 23  1  0  0  0  0
 24 23  1  1  0  0  0
M  CHG  1   3  -1
M  END
>  <CHROM.1>
-176.81800134,-178.15643734,-77.50149512,-87.19685693,-5.78059406,-5.41304692
10.77951659,-1.96922248,-0.90831609,-0.79339386

>  <Name>
ligand

>  <RI>
0

>  <Rbt.Current_Directory>
/home/itssahil/PROJECTS/Mol_Feturizer/New_Systems/rnas/3SLQ

>  <Rbt.Executable>
rbdock ($Id: //depot/dev/client3/rdock/2013.1/src/exe/rbdock.cxx#4 $)

>  <Rbt.Library>
libRbt.so (2013.1, Build901 2013/11/27)

>  <Rbt.Parameter_File>
/export/apps/rDock/src/rDock_2013.1_src/data/scripts/dock_solv.prm

>  <Rbt.Receptor>
prm/pocket_docking_4.prm

>  <SCORE>
-17.5815

>  <SCORE.INTER>
-13.4539

>  <SCORE.INTER.CONST>
1

>  <SCORE.INTER.POLAR>
0

>  <SCORE.INTER.ROT>
4

>  <SCORE.INTER.SOLV>
16.9571

>  <SCORE.INTER.VDW>
-20.8883

>  <SCORE.INTER.norm>
-0.56058

>  <SCORE.INTRA>
-4.12755

>  <SCORE.INTRA.DIHEDRAL>
-10.6333

>  <SCORE.INTRA.DIHEDRAL.0>
13.2525

>  <SCORE.INTRA.POLAR>
0

>  <SCORE.INTRA.POLAR.0>
0

>  <SCORE.INTRA.REPUL>
0

>  <SCORE.INTRA.REPUL.0>
0

>  <SCORE.INTRA.SOLV>
3.97011

>  <SCORE.INTRA.SOLV.lig_0>
-70.7221

>  <SCORE.INTRA.VDW>
-0.795936

>  <SCORE.INTRA.VDW.0>
-1.46337

>  <SCORE.INTRA.norm>
-0.171981

>  <SCORE.RESTR>
0

>  <SCORE.RESTR.CAVITY>
0

>  <SCORE.RESTR.norm>
0

>  <SCORE.SYSTEM>
0

>  <SCORE.SYSTEM.CONST>
0

>  <SCORE.SYSTEM.DIHEDRAL>
0

>  <SCORE.SYSTEM.SOLV>
0

>  <SCORE.SYSTEM.norm>
0

>  <SCORE.heavy>
24

>  <SCORE.norm>
-0.732561

>  <RMSD>
1.318

$$$$
ligand
 OpenBabel11021811483D
libRbt.so/2013.1/901 2013/11/27
 24 26  0  0  0  0  0  0  0  0999 V2000
   -4.8519   -8.4830   14.2439 P   0  0  1  0  0  0  0  0  0  0  0  0
   -3.4564   -7.9496   13.9998 O   0  0  0  0  0  0  0  0  0  0  0  0
   -5.0384   -9.9729   14.0789 O   0  5  0  0  0  0  0  0  0  0  0  0
   -5.5082   -7.9446   15.5064 O   0  0  0  0  0  0  0  0  0  0  0  0
   -5.8103   -6.5349   12.6316 C   0  0  0  0  0  0  0  0  0  0  0  0
   -5.7058   -7.9263   12.9798 O   0  0  0  0  0  0  0  0  0  0  0  0
   -6.6988   -6.3730   11.3946 C   0  0  1  0  0  0  0  0  0  0  0  0
   -6.7649   -5.0092   10.9589 O   0  0  0  0  0  0  0  0  0  0  0  0
   -6.2535   -7.1703   10.1806 C   0  0  1  0  0  0  0  0  0  0  0  0
   -6.8896   -8.4514   10.2091 O   0  0  0  0  0  0  0  0  0  0  0  0
   -6.7430   -6.3310    9.0116 C   0  0  1  0  0  0  0  0  0  0  0  0
   -8.1288   -6.5940    8.7496 O   0  0  0  0  0  0  0  0  0  0  0  0
   -6.6804   -4.9087    9.5320 C   0  0  2  0  0  0  0  0  0  0  0  0
   -4.3323   -0.3762    9.5265 N   0  0  0  0  0  0  0  0  0  0  0  0
   -5.6176   -0.6778    9.8209 C   0  0  1  0  0  0  0  0  0  0  0  0
   -6.4622    0.3149   10.1811 N   0  0  0  0  0  0  0  0  0  0  0  0
   -6.0652   -1.9537    9.7589 N   0  0  0  0  0  0  0  0  0  0  0  0
   -5.2144   -2.9435    9.3968 C   0  0  1  0  0  0  0  0  0  0  0  0
   -3.8974   -2.6641    9.0893 C   0  0  2  0  0  0  0  0  0  0  0  0
   -3.4624   -1.3459    9.1614 C   0  0  0  0  0  0  0  0  0  0  0  0
   -2.2815   -1.0500    8.8919 O   0  0  0  0  0  0  0  0  0  0  0  0
   -3.3065   -3.8322    8.7644 N   0  0  0  0  0  0  0  0  0  0  0  0
   -4.2359   -4.8098    8.8765 C   0  0  0  0  0  0  0  0  0  0  0  0
   -5.3876   -4.2519    9.2628 N   0  0  1  0  0  0  0  0  0  0  0  0
  1  2  1  6  0  0  0
  1  3  1  0  0  0  0
  1  4  2  0  0  0  0
  1  6  1  0  0  0  0
  5  6  1  0  0  0  0
  7  5  1  1  0  0  0
  7  8  1  0  0  0  0
  7  9  1  0  0  0  0
  9 10  1  1  0  0  0
  9 11  1  0  0  0  0
 11 12  1  1  0  0  0
 11 13  1  0  0  0  0
 13  8  1  1  0  0  0
 13 24  1  0  0  0  0
 14 15  1  0  0  0  0
 14 20  1  0  0  0  0
 15 16  1  6  0  0  0
 15 17  1  0  0  0  0
 18 17  1  1  0  0  0
 18 19  1  0  0  0  0
 18 24  1  0  0  0  0
 19 20  1  6  0  0  0
 19 22  1  0  0  0  0
 20 21  2  0  0  0  0
 22 23  1  0  0  0  0
 24 23  1  1  0  0  0
M  CHG  1   3  -1
M  END
>  <CHROM.1>
-56.37907309,-176.34690313,-179.59838099,-78.28502426,-5.35764422,-5.19846131
10.94856467,-1.69673448,-0.79616801,-0.64753914

>  <Name>
ligand

>  <RI>
0

>  <Rbt.Current_Directory>
/home/itssahil/PROJECTS/Mol_Feturizer/New_Systems/rnas/3SLQ

>  <Rbt.Executable>
rbdock ($Id: //depot/dev/client3/rdock/2013.1/src/exe/rbdock.cxx#4 $)

>  <Rbt.Library>
libRbt.so (2013.1, Build901 2013/11/27)

>  <Rbt.Parameter_File>
/export/apps/rDock/src/rDock_2013.1_src/data/scripts/dock_solv.prm

>  <Rbt.Receptor>
prm/pocket_docking_4.prm

>  <SCORE>
-22.6115

>  <SCORE.INTER>
-16.3531

>  <SCORE.INTER.CONST>
1

>  <SCORE.INTER.POLAR>
0

>  <SCORE.INTER.ROT>
4

>  <SCORE.INTER.SOLV>
19.292

>  <SCORE.INTER.VDW>
-23.5994

>  <SCORE.INTER.norm>
-0.681379

>  <SCORE.INTRA>
-6.25835

>  <SCORE.INTRA.DIHEDRAL>
-11.9973

>  <SCORE.INTRA.DIHEDRAL.0>
13.2525

>  <SCORE.INTRA.POLAR>
0

>  <SCORE.INTRA.POLAR.0>
0

>  <SCORE.INTRA.REPUL>
0

>  <SCORE.INTRA.REPUL.0>
0

>  <SCORE.INTRA.SOLV>
0.0236708

>  <SCORE.INTRA.SOLV.lig_0>
-70.7221

>  <SCORE.INTRA.VDW>
-0.271542

>  <SCORE.INTRA.VDW.0>
-1.46337

>  <SCORE.INTRA.norm>
-0.260765

>  <SCORE.RESTR>
0

>  <SCORE.RESTR.CAVITY>
0

>  <SCORE.RESTR.norm>
0

>  <SCORE.SYSTEM>
0

>  <SCORE.SYSTEM.CONST>
0

>  <SCORE.SYSTEM.DIHEDRAL>
0

>  <SCORE.SYSTEM.SOLV>
0

>  <SCORE.SYSTEM.norm>
0

>  <SCORE.heavy>
24

>  <SCORE.norm>
-0.942144

>  <RMSD>
1.324

$$$$
ligand
 OpenBabel11021811483D
libRbt.so/2013.1/901 2013/11/27
 24 26  0  0  0  0  0  0  0  0999 V2000
   -5.6060   -7.4654   13.6920 P   0  0  1  0  0  0  0  0  0  0  0  0
   -4.2685   -6.8485   13.3426 O   0  0  0  0  0  0  0  0  0  0  0  0
   -5.6365   -8.3516   14.9150 O   0  5  0  0  0  0  0  0  0  0  0  0
   -6.7699   -6.4867   13.6460 O   0  0  0  0  0  0  0  0  0  0  0  0
   -5.7355   -8.2667   11.1124 C   0  0  0  0  0  0  0  0  0  0  0  0
   -5.8470   -8.5591   12.5160 O   0  0  0  0  0  0  0  0  0  0  0  0
   -6.8797   -7.3449   10.6799 C   0  0  1  0  0  0  0  0  0  0  0  0
   -6.6405   -5.9831   11.0572 O   0  0  0  0  0  0  0  0  0  0  0  0
   -7.1449   -7.3158    9.1844 C   0  0  1  0  0  0  0  0  0  0  0  0
   -8.1143   -8.3187    8.8663 O   0  0  0  0  0  0  0  0  0  0  0  0
   -7.6934   -5.9173    8.9532 C   0  0  1  0  0  0  0  0  0  0  0  0
   -9.0936   -5.8692    9.2621 O   0  0  0  0  0  0  0  0  0  0  0  0
   -7.0050   -5.0759   10.0095 C   0  0  2  0  0  0  0  0  0  0  0  0
   -4.5337   -0.6486    9.4196 N   0  0  0  0  0  0  0  0  0  0  0  0
   -5.7815   -0.8804    9.8871 C   0  0  1  0  0  0  0  0  0  0  0  0
   -6.5434    0.1651   10.2808 N   0  0  0  0  0  0  0  0  0  0  0  0
   -6.2734   -2.1391    9.9644 N   0  0  0  0  0  0  0  0  0  0  0  0
   -5.5057   -3.1822    9.5679 C   0  0  1  0  0  0  0  0  0  0  0  0
   -4.2286   -2.9745    9.0849 C   0  0  2  0  0  0  0  0  0  0  0  0
   -3.7467   -1.6725    9.0165 C   0  0  0  0  0  0  0  0  0  0  0  0
   -2.5994   -1.4406    8.5866 O   0  0  0  0  0  0  0  0  0  0  0  0
   -3.7197   -4.1827    8.7686 N   0  0  0  0  0  0  0  0  0  0  0  0
   -4.6584   -5.1141    9.0571 C   0  0  0  0  0  0  0  0  0  0  0  0
   -5.7354   -4.4884    9.5427 N   0  0  1  0  0  0  0  0  0  0  0  0
  1  2  1  6  0  0  0
  1  3  1  0  0  0  0
  1  4  2  0  0  0  0
  1  6  1  0  0  0  0
  5  6  1  0  0  0  0
  7  5  1  6  0  0  0
  7  8  1  0  0  0  0
  7  9  1  0  0  0  0
  9 10  1  1  0  0  0
  9 11  1  0  0  0  0
 11 12  1  1  0  0  0
 11 13  1  0  0  0  0
 13  8  1  1  0  0  0
 13 24  1  0  0  0  0
 14 15  1  0  0  0  0
 14 20  1  0  0  0  0
 15 16  1  6  0  0  0
 15 17  1  0  0  0  0
 18 17  1  1  0  0  0
 18 19  1  0  0  0  0
 18 24  1  0  0  0  0
 19 20  1  6  0  0  0
 19 22  1  0  0  0  0
 20 21  2  0  0  0  0
 22 23  1  0  0  0  0
 24 23  1  1  0  0  0
M  CHG  1   3  -1
M  END
>  <CHROM.1>
-50.74876081,78.25685080,-68.97840012,-121.35183317,-5.84045958,-5.16692794
10.67781025,-1.88179908,-0.84326622,-0.72483509

>  <Name>
ligand

>  <RI>
0

>  <Rbt.Current_Directory>
/home/itssahil/PROJECTS/Mol_Feturizer/New_Systems/rnas/3SLQ

>  <Rbt.Executable>
rbdock ($Id: //depot/dev/client3/rdock/2013.1/src/exe/rbdock.cxx#4 $)

>  <Rbt.Library>
libRbt.so (2013.1, Build901 2013/11/27)

>  <Rbt.Parameter_File>
/export/apps/rDock/src/rDock_2013.1_src/data/scripts/dock_solv.prm

>  <Rbt.Receptor>
prm/pocket_docking_3.prm

>  <SCORE>
-19.1403

>  <SCORE.INTER>
-14.4999

>  <SCORE.INTER.CONST>
1

>  <SCORE.INTER.POLAR>
0

>  <SCORE.INTER.ROT>
4

>  <SCORE.INTER.SOLV>
18.9236

>  <SCORE.INTER.VDW>
-22.2411

>  <SCORE.INTER.norm>
-0.604162

>  <SCORE.INTRA>
-4.64044

>  <SCORE.INTRA.DIHEDRAL>
-10.4041

>  <SCORE.INTRA.DIHEDRAL.0>
13.2525

>  <SCORE.INTRA.POLAR>
0

>  <SCORE.INTRA.POLAR.0>
0

>  <SCORE.INTRA.REPUL>
0

>  <SCORE.INTRA.REPUL.0>
0

>  <SCORE.INTRA.SOLV>
2.72338

>  <SCORE.INTRA.SOLV.lig_0>
-70.7221

>  <SCORE.INTRA.VDW>
-0.800061

>  <SCORE.INTRA.VDW.0>
-1.46337

>  <SCORE.INTRA.norm>
-0.193352

>  <SCORE.RESTR>
0

>  <SCORE.RESTR.CAVITY>
0

>  <SCORE.RESTR.norm>
0

>  <SCORE.SYSTEM>
0

>  <SCORE.SYSTEM.CONST>
0

>  <SCORE.SYSTEM.DIHEDRAL>
0

>  <SCORE.SYSTEM.SOLV>
0

>  <SCORE.SYSTEM.norm>
0

>  <SCORE.heavy>
24

>  <SCORE.norm>
-0.797514

>  <RMSD>
1.356

$$$$
ligand
 OpenBabel11021811483D
libRbt.so/2013.1/901 2013/11/27
 24 26  0  0  0  0  0  0  0  0999 V2000
   -7.8937   -6.6495   14.4900 P   0  0  1  0  0  0  0  0  0  0  0  0
   -7.5104   -6.9436   15.9246 O   0  0  0  0  0  0  0  0  0  0  0  0
   -8.1197   -7.8471   13.5975 O   0  5  0  0  0  0  0  0  0  0  0  0
   -8.9793   -5.5938   14.3434 O   0  0  0  0  0  0  0  0  0  0  0  0
   -6.5131   -4.9698   12.8818 C   0  0  0  0  0  0  0  0  0  0  0  0
   -6.5348   -6.0388   13.8436 O   0  0  0  0  0  0  0  0  0  0  0  0
   -6.9605   -5.4916   11.5131 C   0  0  1  0  0  0  0  0  0  0  0  0
   -6.9517   -4.4594   10.5188 O   0  0  0  0  0  0  0  0  0  0  0  0
   -6.1062   -6.6132   10.9476 C   0  0  1  0  0  0  0  0  0  0  0  0
   -6.6510   -7.8674   11.3683 O   0  0  0  0  0  0  0  0  0  0  0  0
   -6.2333   -6.4265    9.4445 C   0  0  1  0  0  0  0  0  0  0  0  0
   -7.4444   -7.0271    8.9641 O   0  0  0  0  0  0  0  0  0  0  0  0
   -6.4152   -4.9311    9.2766 C   0  0  2  0  0  0  0  0  0  0  0  0
   -4.2650   -0.3129    9.6012 N   0  0  0  0  0  0  0  0  0  0  0  0
   -5.5488   -0.6800    9.8168 C   0  0  1  0  0  0  0  0  0  0  0  0
   -6.4512    0.2589   10.1810 N   0  0  0  0  0  0  0  0  0  0  0  0
   -5.9381   -1.9684    9.6727 N   0  0  0  0  0  0  0  0  0  0  0  0
   -5.0296   -2.9042    9.3071 C   0  0  1  0  0  0  0  0  0  0  0  0
   -3.7125   -2.5572    9.0789 C   0  0  2  0  0  0  0  0  0  0  0  0
   -3.3381   -1.2276    9.2346 C   0  0  0  0  0  0  0  0  0  0  0  0
   -2.1594   -0.8715    9.0383 O   0  0  0  0  0  0  0  0  0  0  0  0
   -3.0576   -3.6831    8.7292 N   0  0  0  0  0  0  0  0  0  0  0  0
   -3.9487   -4.7016    8.7488 C   0  0  0  0  0  0  0  0  0  0  0  0
   -5.1403   -4.2103    9.1032 N   0  0  1  0  0  0  0  0  0  0  0  0
  1  2  1  1  0  0  0
  1  3  1  0  0  0  0
  1  4  2  0  0  0  0
  1  6  1  0  0  0  0
  5  6  1  0  0  0  0
  7  5  1  1  0  0  0
  7  8  1  0  0  0  0
  7  9  1  0  0  0  0
  9 10  1  6  0  0  0
  9 11  1  0  0  0  0
 11 12  1  1  0  0  0
 11 13  1  0  0  0  0
 13  8  1  1  0  0  0
 13 24  1  0  0  0  0
 14 15  1  0  0  0  0
 14 20  1  0  0  0  0
 15 16  1  6  0  0  0
 15 17  1  0  0  0  0
 18 17  1  1  0  0  0
 18 19  1  0  0  0  0
 18 24  1  0  0  0  0
 19 20  1  6  0  0  0
 19 22  1  0  0  0  0
 20 21  2  0  0  0  0
 22 23  1  0  0  0  0
 24 23  1  1  0  0  0
M  CHG  1   3  -1
M  END
>  <CHROM.1>
-142.74480896,-179.86390021,-74.63391282,-45.81360988,-6.04652870,-4.53695316
11.10555204,2.83571996,-1.07187674,-2.64692479

>  <Name>
ligand

>  <RI>
0

>  <Rbt.Current_Directory>
/home/itssahil/PROJECTS/Mol_Feturizer/New_Systems/rnas/3SLQ

>  <Rbt.Executable>
rbdock ($Id: //depot/dev/client3/rdock/2013.1/src/exe/rbdock.cxx#4 $)

>  <Rbt.Library>
libRbt.so (2013.1, Build901 2013/11/27)

>  <Rbt.Parameter_File>
/export/apps/rDock/src/rDock_2013.1_src/data/scripts/dock_solv.prm

>  <Rbt.Receptor>
prm/pocket_docking_3.prm

>  <SCORE>
-21.3548

>  <SCORE.INTER>
-18.1863

>  <SCORE.INTER.CONST>
1

>  <SCORE.INTER.POLAR>
0

>  <SCORE.INTER.ROT>
4

>  <SCORE.INTER.SOLV>
22.7326

>  <SCORE.INTER.VDW>
-25.9684

>  <SCORE.INTER.norm>
-0.757761

>  <SCORE.INTRA>
-3.1685

>  <SCORE.INTRA.DIHEDRAL>
-9.38369

>  <SCORE.INTRA.DIHEDRAL.0>
13.2525

>  <SCORE.INTRA.POLAR>
0

>  <SCORE.INTRA.POLAR.0>
0

>  <SCORE.INTRA.REPUL>
0

>  <SCORE.INTRA.REPUL.0>
0

>  <SCORE.INTRA.SOLV>
4.07508

>  <SCORE.INTRA.SOLV.lig_0>
-70.7221

>  <SCORE.INTRA.VDW>
-0.514193

>  <SCORE.INTRA.VDW.0>
-1.46337

>  <SCORE.INTRA.norm>
-0.132021

>  <SCORE.RESTR>
0

>  <SCORE.RESTR.CAVITY>
0

>  <SCORE.RESTR.norm>
0

>  <SCORE.SYSTEM>
0

>  <SCORE.SYSTEM.CONST>
0

>  <SCORE.SYSTEM.DIHEDRAL>
0

>  <SCORE.SYSTEM.SOLV>
0

>  <SCORE.SYSTEM.norm>
0

>  <SCORE.heavy>
24

>  <SCORE.norm>
-0.889782

>  <RMSD>
1.364

$$$$
ligand
 OpenBabel11021811483D
libRbt.so/2013.1/901 2013/11/27
 24 26  0  0  0  0  0  0  0  0999 V2000
   -8.1786   -6.7289   14.2039 P   0  0  1  0  0  0  0  0  0  0  0  0
   -8.9674   -5.4563   14.4277 O   0  0  0  0  0  0  0  0  0  0  0  0
   -7.8451   -7.5363   15.4363 O   0  5  0  0  0  0  0  0  0  0  0  0
   -8.7006   -7.5878   13.0618 O   0  0  0  0  0  0  0  0  0  0  0  0
   -6.4729   -5.1472   12.8247 C   0  0  0  0  0  0  0  0  0  0  0  0
   -6.7038   -6.2002   13.7765 O   0  0  0  0  0  0  0  0  0  0  0  0
   -6.9144   -5.6000   11.4298 C   0  0  1  0  0  0  0  0  0  0  0  0
   -6.8997   -4.5200   10.4877 O   0  0  0  0  0  0  0  0  0  0  0  0
   -6.0588   -6.6936   10.8136 C   0  0  1  0  0  0  0  0  0  0  0  0
   -6.6070   -7.9663   11.1692 O   0  0  0  0  0  0  0  0  0  0  0  0
   -6.1785   -6.4327    9.3210 C   0  0  1  0  0  0  0  0  0  0  0  0
   -7.3880   -7.0071    8.8058 O   0  0  0  0  0  0  0  0  0  0  0  0
   -6.3578   -4.9305    9.2262 C   0  0  2  0  0  0  0  0  0  0  0  0
   -4.2400   -0.3031    9.6243 N   0  0  0  0  0  0  0  0  0  0  0  0
   -5.5284   -0.6762    9.7980 C   0  0  1  0  0  0  0  0  0  0  0  0
   -6.4463    0.2583   10.1338 N   0  0  0  0  0  0  0  0  0  0  0  0
   -5.9071   -1.9661    9.6403 N   0  0  0  0  0  0  0  0  0  0  0  0
   -4.9830   -2.8975    9.3033 C   0  0  1  0  0  0  0  0  0  0  0  0
   -3.6608   -2.5443    9.1180 C   0  0  2  0  0  0  0  0  0  0  0  0
   -3.2976   -1.2133    9.2868 C   0  0  0  0  0  0  0  0  0  0  0  0
   -2.1148   -0.8517    9.1290 O   0  0  0  0  0  0  0  0  0  0  0  0
   -2.9899   -3.6669    8.7885 N   0  0  0  0  0  0  0  0  0  0  0  0
   -3.8766   -4.6895    8.7784 C   0  0  0  0  0  0  0  0  0  0  0  0
   -5.0812   -4.2038    9.0947 N   0  0  1  0  0  0  0  0  0  0  0  0
  1  2  1  1  0  0  0
  1  3  1  0  0  0  0
  1  4  2  0  0  0  0
  1  6  1  0  0  0  0
  5  6  1  0  0  0  0
  7  5  1  1  0  0  0
  7  8  1  0  0  0  0
  7  9  1  0  0  0  0
  9 10  1  6  0  0  0
  9 11  1  0  0  0  0
 11 12  1  1  0  0  0
 11 13  1  0  0  0  0
 13  8  1  1  0  0  0
 13 24  1  0  0  0  0
 14 15  1  0  0  0  0
 14 20  1  0  0  0  0
 15 16  1  6  0  0  0
 15 17  1  0  0  0  0
 18 17  1  1  0  0  0
 18 19  1  0  0  0  0
 18 24  1  0  0  0  0
 19 20  1  6  0  0  0
 19 22  1  0  0  0  0
 20 21  2  0  0  0  0
 22 23  1  0  0  0  0
 24 23  1  1  0  0  0
M  CHG  1   3  -1
M  END
>  <CHROM.1>
-45.25445817,170.92776016,-66.72814774,-49.02217749,-6.08648976,-4.57647639
11.00832583,2.73319045,-1.01137115,-2.73011705

>  <Name>
ligand

>  <RI>
0

>  <Rbt.Current_Directory>
/home/itssahil/PROJECTS/Mol_Feturizer/New_Systems/rnas/3SLQ

>  <Rbt.Executable>
rbdock ($Id: //depot/dev/client3/rdock/2013.1/src/exe/rbdock.cxx#4 $)

>  <Rbt.Library>
libRbt.so (2013.1, Build901 2013/11/27)

>  <Rbt.Parameter_File>
/export/apps/rDock/src/rDock_2013.1_src/data/scripts/dock_solv.prm

>  <Rbt.Receptor>
prm/pocket_docking_5.prm

>  <SCORE>
-23.04

>  <SCORE.INTER>
-18.2632

>  <SCORE.INTER.CONST>
1

>  <SCORE.INTER.POLAR>
0

>  <SCORE.INTER.ROT>
4

>  <SCORE.INTER.SOLV>
20.3224

>  <SCORE.INTER.VDW>
-25.2162

>  <SCORE.INTER.norm>
-0.760965

>  <SCORE.INTRA>
-4.77683

>  <SCORE.INTRA.DIHEDRAL>
-11.1827

>  <SCORE.INTRA.DIHEDRAL.0>
13.2525

>  <SCORE.INTRA.POLAR>
0

>  <SCORE.INTRA.POLAR.0>
0

>  <SCORE.INTRA.REPUL>
0

>  <SCORE.INTRA.REPUL.0>
0

>  <SCORE.INTRA.SOLV>
3.03763

>  <SCORE.INTRA.SOLV.lig_0>
-70.7221

>  <SCORE.INTRA.VDW>
-0.704293

>  <SCORE.INTRA.VDW.0>
-1.46337

>  <SCORE.INTRA.norm>
-0.199034

>  <SCORE.RESTR>
0

>  <SCORE.RESTR.CAVITY>
0

>  <SCORE.RESTR.norm>
0

>  <SCORE.SYSTEM>
0

>  <SCORE.SYSTEM.CONST>
0

>  <SCORE.SYSTEM.DIHEDRAL>
0

>  <SCORE.SYSTEM.SOLV>
0

>  <SCORE.SYSTEM.norm>
0

>  <SCORE.heavy>
24

>  <SCORE.norm>
-0.959999

>  <RMSD>
1.384

$$$$
ligand
 OpenBabel11021811483D
libRbt.so/2013.1/901 2013/11/27
 24 26  0  0  0  0  0  0  0  0999 V2000
   -4.9175   -8.4014   14.3101 P   0  0  1  0  0  0  0  0  0  0  0  0
   -5.2257   -9.8824   14.3671 O   0  0  0  0  0  0  0  0  0  0  0  0
   -5.4890   -7.5545   15.4227 O   0  5  0  0  0  0  0  0  0  0  0  0
   -3.4583   -8.0836   14.0195 O   0  0  0  0  0  0  0  0  0  0  0  0
   -5.8485   -6.4975   12.6302 C   0  0  0  0  0  0  0  0  0  0  0  0
   -5.7887   -7.8731   13.0456 O   0  0  0  0  0  0  0  0  0  0  0  0
   -6.7271   -6.3680   11.3825 C   0  0  1  0  0  0  0  0  0  0  0  0
   -6.7980   -5.0144   10.9169 O   0  0  0  0  0  0  0  0  0  0  0  0
   -6.2663   -7.1884   10.1898 C   0  0  1  0  0  0  0  0  0  0  0  0
   -6.8946   -8.4727   10.2406 O   0  0  0  0  0  0  0  0  0  0  0  0
   -6.7508   -6.3777    8.9989 C   0  0  1  0  0  0  0  0  0  0  0  0
   -8.1326   -6.6552    8.7308 O   0  0  0  0  0  0  0  0  0  0  0  0
   -6.7017   -4.9441    9.4889 C   0  0  2  0  0  0  0  0  0  0  0  0
   -4.3472   -0.4151    9.5289 N   0  0  0  0  0  0  0  0  0  0  0  0
   -5.6299   -0.7195    9.8316 C   0  0  1  0  0  0  0  0  0  0  0  0
   -6.4694    0.2686   10.2155 N   0  0  0  0  0  0  0  0  0  0  0  0
   -6.0799   -1.9937    9.7547 N   0  0  0  0  0  0  0  0  0  0  0  0
   -5.2343   -2.9790    9.3689 C   0  0  1  0  0  0  0  0  0  0  0  0
   -3.9200   -2.6966    9.0524 C   0  0  2  0  0  0  0  0  0  0  0  0
   -3.4825   -1.3803    9.1402 C   0  0  0  0  0  0  0  0  0  0  0  0
   -2.3039   -1.0817    8.8633 O   0  0  0  0  0  0  0  0  0  0  0  0
   -3.3342   -3.8603    8.7037 N   0  0  0  0  0  0  0  0  0  0  0  0
   -4.2638   -4.8383    8.8103 C   0  0  0  0  0  0  0  0  0  0  0  0
   -5.4107   -4.2849    9.2168 N   0  0  1  0  0  0  0  0  0  0  0  0
  1  2  1  1  0  0  0
  1  3  1  0  0  0  0
  1  4  2  0  0  0  0
  1  6  1  0  0  0  0
  5  6  1  0  0  0  0
  7  5  1  1  0  0  0
  7  8  1  0  0  0  0
  7  9  1  0  0  0  0
  9 10  1  1  0  0  0
  9 11  1  0  0  0  0
 11 12  1  1  0  0  0
 11 13  1  0  0  0  0
 13  8  1  1  0  0  0
 13 24  1  0  0  0  0
 14 15  1  0  0  0  0
 14 20  1  0  0  0  0
 15 16  1  6  0  0  0
 15 17  1  0  0  0  0
 18 17  1  1  0  0  0
 18 19  1  0  0  0  0
 18 24  1  0  0  0  0
 19 20  1  6  0  0  0
 19 22  1  0  0  0  0
 20 21  2  0  0  0  0
 22 23  1  0  0  0  0
 24 23  1  1  0  0  0
M  CHG  1   3  -1
M  END
>  <CHROM.1>
177.76310691,-178.99645539,178.29188364,-75.87453718,-5.38865796,-5.19391741
10.95487203,-1.71088741,-0.83232968,-0.67681367

>  <Name>
ligand

>  <RI>
0

>  <Rbt.Current_Directory>
/home/itssahil/PROJECTS/Mol_Feturizer/New_Systems/rnas/3SLQ

>  <Rbt.Executable>
rbdock ($Id: //depot/dev/client3/rdock/2013.1/src/exe/rbdock.cxx#4 $)

>  <Rbt.Library>
libRbt.so (2013.1, Build901 2013/11/27)

>  <Rbt.Parameter_File>
/export/apps/rDock/src/rDock_2013.1_src/data/scripts/dock_solv.prm

>  <Rbt.Receptor>
prm/pocket_docking_4.prm

>  <SCORE>
-20.5263

>  <SCORE.INTER>
-14.6588

>  <SCORE.INTER.CONST>
1

>  <SCORE.INTER.POLAR>
0

>  <SCORE.INTER.ROT>
4

>  <SCORE.INTER.SOLV>
22.9613

>  <SCORE.INTER.VDW>
-23.6929

>  <SCORE.INTER.norm>
-0.610782

>  <SCORE.INTRA>
-5.86753

>  <SCORE.INTRA.DIHEDRAL>
-12.0408

>  <SCORE.INTRA.DIHEDRAL.0>
13.2525

>  <SCORE.INTRA.POLAR>
0

>  <SCORE.INTRA.POLAR.0>
0

>  <SCORE.INTRA.REPUL>
0

>  <SCORE.INTRA.REPUL.0>
0

>  <SCORE.INTRA.SOLV>
0.647067

>  <SCORE.INTRA.SOLV.lig_0>
-70.7221

>  <SCORE.INTRA.VDW>
-0.170647

>  <SCORE.INTRA.VDW.0>
-1.46337

>  <SCORE.INTRA.norm>
-0.24448

>  <SCORE.RESTR>
0

>  <SCORE.RESTR.CAVITY>
0

>  <SCORE.RESTR.norm>
0

>  <SCORE.SYSTEM>
0

>  <SCORE.SYSTEM.CONST>
0

>  <SCORE.SYSTEM.DIHEDRAL>
0

>  <SCORE.SYSTEM.SOLV>
0

>  <SCORE.SYSTEM.norm>
0

>  <SCORE.heavy>
24

>  <SCORE.norm>
-0.855262

>  <RMSD>
1.386

$$$$
ligand
 OpenBabel11021811483D
libRbt.so/2013.1/901 2013/11/27
 24 26  0  0  0  0  0  0  0  0999 V2000
   -8.2475   -6.7252   14.1322 P   0  0  1  0  0  0  0  0  0  0  0  0
   -9.0264   -5.4611   14.4266 O   0  0  0  0  0  0  0  0  0  0  0  0
   -7.9068   -7.5945   15.3196 O   0  5  0  0  0  0  0  0  0  0  0  0
   -8.7855   -7.5235   12.9541 O   0  0  0  0  0  0  0  0  0  0  0  0
   -6.5441   -5.1279   12.7680 C   0  0  0  0  0  0  0  0  0  0  0  0
   -6.7738   -6.1839   13.7168 O   0  0  0  0  0  0  0  0  0  0  0  0
   -6.9778   -5.5801   11.3704 C   0  0  1  0  0  0  0  0  0  0  0  0
   -6.9487   -4.5018   10.4268 O   0  0  0  0  0  0  0  0  0  0  0  0
   -6.1246   -6.6803   10.7626 C   0  0  1  0  0  0  0  0  0  0  0  0
   -6.6840   -7.9488   11.1159 O   0  0  0  0  0  0  0  0  0  0  0  0
   -6.2310   -6.4210    9.2687 C   0  0  1  0  0  0  0  0  0  0  0  0
   -7.4403   -6.9883    8.7450 O   0  0  0  0  0  0  0  0  0  0  0  0
   -6.3998   -4.9178    9.1702 C   0  0  2  0  0  0  0  0  0  0  0  0
   -4.2471   -0.3108    9.6151 N   0  0  0  0  0  0  0  0  0  0  0  0
   -5.5386   -0.6756    9.7835 C   0  0  1  0  0  0  0  0  0  0  0  0
   -6.4499    0.2626   10.1267 N   0  0  0  0  0  0  0  0  0  0  0  0
   -5.9269   -1.9610    9.6129 N   0  0  0  0  0  0  0  0  0  0  0  0
   -5.0095   -2.8962    9.2685 C   0  0  1  0  0  0  0  0  0  0  0  0
   -3.6844   -2.5515    9.0885 C   0  0  2  0  0  0  0  0  0  0  0  0
   -3.3113   -1.2250    9.2704 C   0  0  0  0  0  0  0  0  0  0  0  0
   -2.1255   -0.8710    9.1178 O   0  0  0  0  0  0  0  0  0  0  0  0
   -3.0216   -3.6761    8.7493 N   0  0  0  0  0  0  0  0  0  0  0  0
   -3.9161   -4.6917    8.7283 C   0  0  0  0  0  0  0  0  0  0  0  0
   -5.1174   -4.1998    9.0475 N   0  0  1  0  0  0  0  0  0  0  0  0
  1  2  1  1  0  0  0
  1  3  1  0  0  0  0
  1  4  2  0  0  0  0
  1  6  1  0  0  0  0
  5  6  1  0  0  0  0
  7  5  1  1  0  0  0
  7  8  1  0  0  0  0
  7  9  1  0  0  0  0
  9 10  1  6  0  0  0
  9 11  1  0  0  0  0
 11 12  1  1  0  0  0
 11 13  1  0  0  0  0
 13  8  1  1  0  0  0
 13 24  1  0  0  0  0
 14 15  1  0  0  0  0
 14 20  1  0  0  0  0
 15 16  1  6  0  0  0
 15 17  1  0  0  0  0
 18 17  1  1  0  0  0
 18 19  1  0  0  0  0
 18 24  1  0  0  0  0
 19 20  1  6  0  0  0
 19 22  1  0  0  0  0
 20 21  2  0  0  0  0
 22 23  1  0  0  0  0
 24 23  1  1  0  0  0
M  CHG  1   3  -1
M  END
>  <CHROM.1>
-48.31151703,171.64624528,-66.43896468,-48.29184609,-6.13214936,-4.57168577
10.96054413,2.74542193,-1.00474476,-2.71397746

>  <Name>
ligand

>  <RI>
0

>  <Rbt.Current_Directory>
/home/itssahil/PROJECTS/Mol_Feturizer/New_Systems/rnas/3SLQ

>  <Rbt.Executable>
rbdock ($Id: //depot/dev/client3/rdock/2013.1/src/exe/rbdock.cxx#4 $)

>  <Rbt.Library>
libRbt.so (2013.1, Build901 2013/11/27)

>  <Rbt.Parameter_File>
/export/apps/rDock/src/rDock_2013.1_src/data/scripts/dock_solv.prm

>  <Rbt.Receptor>
prm/pocket_docking_4.prm

>  <SCORE>
-23.0881

>  <SCORE.INTER>
-18.2829

>  <SCORE.INTER.CONST>
1

>  <SCORE.INTER.POLAR>
0

>  <SCORE.INTER.ROT>
4

>  <SCORE.INTER.SOLV>
20.0134

>  <SCORE.INTER.VDW>
-25.1264

>  <SCORE.INTER.norm>
-0.761789

>  <SCORE.INTRA>
-4.8052

>  <SCORE.INTRA.DIHEDRAL>
-11.3672

>  <SCORE.INTRA.DIHEDRAL.0>
13.2525

>  <SCORE.INTRA.POLAR>
0

>  <SCORE.INTRA.POLAR.0>
0

>  <SCORE.INTRA.REPUL>
0

>  <SCORE.INTRA.REPUL.0>
0

>  <SCORE.INTRA.SOLV>
3.16848

>  <SCORE.INTRA.SOLV.lig_0>
-70.7221

>  <SCORE.INTRA.VDW>
-0.705849

>  <SCORE.INTRA.VDW.0>
-1.46337

>  <SCORE.INTRA.norm>
-0.200216

>  <SCORE.RESTR>
0

>  <SCORE.RESTR.CAVITY>
0

>  <SCORE.RESTR.norm>
0

>  <SCORE.SYSTEM>
0

>  <SCORE.SYSTEM.CONST>
0

>  <SCORE.SYSTEM.DIHEDRAL>
0

>  <SCORE.SYSTEM.SOLV>
0

>  <SCORE.SYSTEM.norm>
0

>  <SCORE.heavy>
24

>  <SCORE.norm>
-0.962006

>  <RMSD>
1.398

$$$$
ligand
 OpenBabel11021811483D
libRbt.so/2013.1/901 2013/11/27
 24 26  0  0  0  0  0  0  0  0999 V2000
   -4.4364   -8.0402   14.3160 P   0  0  1  0  0  0  0  0  0  0  0  0
   -3.1702   -7.2921   13.9575 O   0  0  0  0  0  0  0  0  0  0  0  0
   -4.3991   -9.5408   14.1468 O   0  5  0  0  0  0  0  0  0  0  0  0
   -5.0543   -7.6129   15.6389 O   0  0  0  0  0  0  0  0  0  0  0  0
   -5.8066   -6.2677   12.8013 C   0  0  0  0  0  0  0  0  0  0  0  0
   -5.4770   -7.6260   13.1400 O   0  0  0  0  0  0  0  0  0  0  0  0
   -6.6774   -6.2419   11.5415 C   0  0  1  0  0  0  0  0  0  0  0  0
   -6.7772   -4.9237   10.9879 O   0  0  0  0  0  0  0  0  0  0  0  0
   -6.1864   -7.1266   10.4084 C   0  0  1  0  0  0  0  0  0  0  0  0
   -6.7836   -8.4201   10.5388 O   0  0  0  0  0  0  0  0  0  0  0  0
   -6.6802   -6.4077    9.1636 C   0  0  1  0  0  0  0  0  0  0  0  0
   -8.0525   -6.7364    8.9045 O   0  0  0  0  0  0  0  0  0  0  0  0
   -6.6703   -4.9444    9.5591 C   0  0  2  0  0  0  0  0  0  0  0  0
   -4.3769   -0.3846    9.4876 N   0  0  0  0  0  0  0  0  0  0  0  0
   -5.6496   -0.7012    9.8183 C   0  0  1  0  0  0  0  0  0  0  0  0
   -6.4954    0.2815   10.2025 N   0  0  0  0  0  0  0  0  0  0  0  0
   -6.0838   -1.9823    9.7689 N   0  0  0  0  0  0  0  0  0  0  0  0
   -5.2320   -2.9621    9.3826 C   0  0  1  0  0  0  0  0  0  0  0  0
   -3.9276   -2.6673    9.0378 C   0  0  2  0  0  0  0  0  0  0  0  0
   -3.5064   -1.3440    9.0978 C   0  0  0  0  0  0  0  0  0  0  0  0
   -2.3372   -1.0342    8.7949 O   0  0  0  0  0  0  0  0  0  0  0  0
   -3.3325   -3.8283    8.6961 N   0  0  0  0  0  0  0  0  0  0  0  0
   -4.2467   -4.8168    8.8344 C   0  0  0  0  0  0  0  0  0  0  0  0
   -5.3935   -4.2724    9.2534 N   0  0  1  0  0  0  0  0  0  0  0  0
  1  2  1  6  0  0  0
  1  3  1  0  0  0  0
  1  4  2  0  0  0  0
  1  6  1  0  0  0  0
  5  6  1  0  0  0  0
  7  5  1  1  0  0  0
  7  8  1  0  0  0  0
  7  9  1  0  0  0  0
  9 10  1  1  0  0  0
  9 11  1  0  0  0  0
 11 12  1  1  0  0  0
 11 13  1  0  0  0  0
 13  8  1  1  0  0  0
 13 24  1  0  0  0  0
 14 15  1  0  0  0  0
 14 20  1  0  0  0  0
 15 16  1  6  0  0  0
 15 17  1  0  0  0  0
 18 17  1  1  0  0  0
 18 19  1  0  0  0  0
 18 24  1  0  0  0  0
 19 20  1  6  0  0  0
 19 22  1  0  0  0  0
 20 21  2  0  0  0  0
 22 23  1  0  0  0  0
 24 23  1  1  0  0  0
M  CHG  1   3  -1
M  END
>  <CHROM.1>
-54.84329781,-166.59312561,172.98713006,-72.57103660,-5.24735689,-5.07502868
11.00569687,-1.63535378,-0.78166607,-0.64037091

>  <Name>
ligand

>  <RI>
0

>  <Rbt.Current_Directory>
/home/itssahil/PROJECTS/Mol_Feturizer/New_Systems/rnas/3SLQ

>  <Rbt.Executable>
rbdock ($Id: //depot/dev/client3/rdock/2013.1/src/exe/rbdock.cxx#4 $)

>  <Rbt.Library>
libRbt.so (2013.1, Build901 2013/11/27)

>  <Rbt.Parameter_File>
/export/apps/rDock/src/rDock_2013.1_src/data/scripts/dock_solv.prm

>  <Rbt.Receptor>
prm/pocket_docking_5.prm

>  <SCORE>
-23.725

>  <SCORE.INTER>
-18.0263

>  <SCORE.INTER.CONST>
1

>  <SCORE.INTER.POLAR>
0

>  <SCORE.INTER.ROT>
4

>  <SCORE.INTER.SOLV>
21.6491

>  <SCORE.INTER.VDW>
-25.5006

>  <SCORE.INTER.norm>
-0.751095

>  <SCORE.INTRA>
-5.69871

>  <SCORE.INTRA.DIHEDRAL>
-11.157

>  <SCORE.INTRA.DIHEDRAL.0>
13.2525

>  <SCORE.INTRA.POLAR>
0

>  <SCORE.INTRA.POLAR.0>
0

>  <SCORE.INTRA.REPUL>
0

>  <SCORE.INTRA.REPUL.0>
0

>  <SCORE.INTRA.SOLV>
0.0898433

>  <SCORE.INTRA.SOLV.lig_0>
-70.7221

>  <SCORE.INTRA.VDW>
-0.165135

>  <SCORE.INTRA.VDW.0>
-1.46337

>  <SCORE.INTRA.norm>
-0.237446

>  <SCORE.RESTR>
0

>  <SCORE.RESTR.CAVITY>
0

>  <SCORE.RESTR.norm>
0

>  <SCORE.SYSTEM>
0

>  <SCORE.SYSTEM.CONST>
0

>  <SCORE.SYSTEM.DIHEDRAL>
0

>  <SCORE.SYSTEM.SOLV>
0

>  <SCORE.SYSTEM.norm>
0

>  <SCORE.heavy>
24

>  <SCORE.norm>
-0.988541

>  <RMSD>
1.416

$$$$
ligand
 OpenBabel11021811483D
libRbt.so/2013.1/901 2013/11/27
 24 26  0  0  0  0  0  0  0  0999 V2000
   -8.1592   -6.6558   14.2013 P   0  0  1  0  0  0  0  0  0  0  0  0
   -9.0417   -5.4543   14.4643 O   0  0  0  0  0  0  0  0  0  0  0  0
   -7.7324   -7.4520   15.4119 O   0  5  0  0  0  0  0  0  0  0  0  0
   -8.6380   -7.5367   13.0570 O   0  0  0  0  0  0  0  0  0  0  0  0
   -6.6165   -4.9483   12.7805 C   0  0  0  0  0  0  0  0  0  0  0  0
   -6.7422   -6.0037   13.7493 O   0  0  0  0  0  0  0  0  0  0  0  0
   -7.0083   -5.4655   11.3932 C   0  0  1  0  0  0  0  0  0  0  0  0
   -6.9601   -4.4300   10.4035 O   0  0  0  0  0  0  0  0  0  0  0  0
   -6.1315   -6.5850   10.8586 C   0  0  1  0  0  0  0  0  0  0  0  0
   -6.6921   -7.8408   11.2528 O   0  0  0  0  0  0  0  0  0  0  0  0
   -6.1981   -6.3932    9.3523 C   0  0  1  0  0  0  0  0  0  0  0  0
   -7.3887   -6.9925    8.8216 O   0  0  0  0  0  0  0  0  0  0  0  0
   -6.3739   -4.8972    9.1823 C   0  0  2  0  0  0  0  0  0  0  0  0
   -4.2327   -0.2869    9.6481 N   0  0  0  0  0  0  0  0  0  0  0  0
   -5.5233   -0.6557    9.8148 C   0  0  1  0  0  0  0  0  0  0  0  0
   -6.4369    0.2787   10.1623 N   0  0  0  0  0  0  0  0  0  0  0  0
   -5.9084   -1.9413    9.6384 N   0  0  0  0  0  0  0  0  0  0  0  0
   -4.9887   -2.8726    9.2898 C   0  0  1  0  0  0  0  0  0  0  0  0
   -3.6644   -2.5238    9.1113 C   0  0  2  0  0  0  0  0  0  0  0  0
   -3.2946   -1.1971    9.2993 C   0  0  0  0  0  0  0  0  0  0  0  0
   -2.1097   -0.8395    9.1482 O   0  0  0  0  0  0  0  0  0  0  0  0
   -2.9988   -3.6451    8.7670 N   0  0  0  0  0  0  0  0  0  0  0  0
   -3.8908   -4.6628    8.7414 C   0  0  0  0  0  0  0  0  0  0  0  0
   -5.0933   -4.1754    9.0628 N   0  0  1  0  0  0  0  0  0  0  0  0
  1  2  1  1  0  0  0
  1  3  1  0  0  0  0
  1  4  2  0  0  0  0
  1  6  1  0  0  0  0
  5  6  1  0  0  0  0
  7  5  1  1  0  0  0
  7  8  1  0  0  0  0
  7  9  1  0  0  0  0
  9 10  1  6  0  0  0
  9 11  1  0  0  0  0
 11 12  1  1  0  0  0
 11 13  1  0  0  0  0
 13  8  1  1  0  0  0
 13 24  1  0  0  0  0
 14 15  1  0  0  0  0
 14 20  1  0  0  0  0
 15 16  1  6  0  0  0
 15 17  1  0  0  0  0
 18 17  1  1  0  0  0
 18 19  1  0  0  0  0
 18 24  1  0  0  0  0
 19 20  1  6  0  0  0
 19 22  1  0  0  0  0
 20 21  2  0  0  0  0
 22 23  1  0  0  0  0
 24 23  1  1  0  0  0
M  CHG  1   3  -1
M  END
>  <CHROM.1>
-47.18627286,177.21301720,-67.65694901,-45.05387228,-6.10215158,-4.51661148
11.00580224,2.76197557,-1.01335572,-2.70430220

>  <Name>
ligand

>  <RI>
0

>  <Rbt.Current_Directory>
/home/itssahil/PROJECTS/Mol_Feturizer/New_Systems/rnas/3SLQ

>  <Rbt.Executable>
rbdock ($Id: //depot/dev/client3/rdock/2013.1/src/exe/rbdock.cxx#4 $)

>  <Rbt.Library>
libRbt.so (2013.1, Build901 2013/11/27)

>  <Rbt.Parameter_File>
/export/apps/rDock/src/rDock_2013.1_src/data/scripts/dock_solv.prm

>  <Rbt.Receptor>
prm/pocket_docking_3.prm

>  <SCORE>
-23.1224

>  <SCORE.INTER>
-18.4831

>  <SCORE.INTER.CONST>
1

>  <SCORE.INTER.POLAR>
0

>  <SCORE.INTER.ROT>
4

>  <SCORE.INTER.SOLV>
20.6974

>  <SCORE.INTER.VDW>
-25.4878

>  <SCORE.INTER.norm>
-0.770128

>  <SCORE.INTRA>
-4.63928

>  <SCORE.INTRA.DIHEDRAL>
-11.4604

>  <SCORE.INTRA.DIHEDRAL.0>
13.2525

>  <SCORE.INTRA.POLAR>
0

>  <SCORE.INTRA.POLAR.0>
0

>  <SCORE.INTRA.REPUL>
0

>  <SCORE.INTRA.REPUL.0>
0

>  <SCORE.INTRA.SOLV>
3.371

>  <SCORE.INTRA.SOLV.lig_0>
-70.7221

>  <SCORE.INTRA.VDW>
-0.594565

>  <SCORE.INTRA.VDW.0>
-1.46337

>  <SCORE.INTRA.norm>
-0.193303

>  <SCORE.RESTR>
0

>  <SCORE.RESTR.CAVITY>
0

>  <SCORE.RESTR.norm>
0

>  <SCORE.SYSTEM>
0

>  <SCORE.SYSTEM.CONST>
0

>  <SCORE.SYSTEM.DIHEDRAL>
0

>  <SCORE.SYSTEM.SOLV>
0

>  <SCORE.SYSTEM.norm>
0

>  <SCORE.heavy>
24

>  <SCORE.norm>
-0.963432

>  <RMSD>
1.419

$$$$
ligand
 OpenBabel11021811483D
libRbt.so/2013.1/901 2013/11/27
 24 26  0  0  0  0  0  0  0  0999 V2000
   -5.7949   -7.3060   14.0889 P   0  0  1  0  0  0  0  0  0  0  0  0
   -4.6028   -6.9890   13.2115 O   0  0  0  0  0  0  0  0  0  0  0  0
   -6.6058   -8.5211   13.7047 O   0  5  0  0  0  0  0  0  0  0  0  0
   -5.5000   -7.2435   15.5801 O   0  0  0  0  0  0  0  0  0  0  0  0
   -6.6100   -5.0809   12.7857 C   0  0  0  0  0  0  0  0  0  0  0  0
   -6.8490   -6.1168   13.7542 O   0  0  0  0  0  0  0  0  0  0  0  0
   -7.0245   -5.5645   11.3928 C   0  0  1  0  0  0  0  0  0  0  0  0
   -6.9839   -4.5072   10.4261 O   0  0  0  0  0  0  0  0  0  0  0  0
   -6.1620   -6.6766   10.8209 C   0  0  1  0  0  0  0  0  0  0  0  0
   -6.7246   -7.9377   11.1947 O   0  0  0  0  0  0  0  0  0  0  0  0
   -6.2487   -6.4505    9.3204 C   0  0  1  0  0  0  0  0  0  0  0  0
   -7.4502   -7.0309    8.7933 O   0  0  0  0  0  0  0  0  0  0  0  0
   -6.4178   -4.9501    9.1864 C   0  0  2  0  0  0  0  0  0  0  0  0
   -4.2602   -0.3463    9.6408 N   0  0  0  0  0  0  0  0  0  0  0  0
   -5.5520   -0.7102    9.8086 C   0  0  1  0  0  0  0  0  0  0  0  0
   -6.4622    0.2283   10.1539 N   0  0  0  0  0  0  0  0  0  0  0  0
   -5.9417   -1.9948    9.6354 N   0  0  0  0  0  0  0  0  0  0  0  0
   -5.0254   -2.9302    9.2888 C   0  0  1  0  0  0  0  0  0  0  0  0
   -3.6999   -2.5865    9.1093 C   0  0  2  0  0  0  0  0  0  0  0  0
   -3.3253   -1.2608    9.2940 C   0  0  0  0  0  0  0  0  0  0  0  0
   -2.1392   -0.9077    9.1419 O   0  0  0  0  0  0  0  0  0  0  0  0
   -3.0384   -3.7111    8.7676 N   0  0  0  0  0  0  0  0  0  0  0  0
   -3.9339   -4.7257    8.7446 C   0  0  0  0  0  0  0  0  0  0  0  0
   -5.1347   -4.2332    9.0650 N   0  0  1  0  0  0  0  0  0  0  0  0
  1  2  1  6  0  0  0
  1  3  1  0  0  0  0
  1  4  2  0  0  0  0
  1  6  1  0  0  0  0
  5  6  1  0  0  0  0
  7  5  1  1  0  0  0
  7  8  1  0  0  0  0
  7  9  1  0  0  0  0
  9 10  1  6  0  0  0
  9 11  1  0  0  0  0
 11 12  1  1  0  0  0
 11 13  1  0  0  0  0
 13  8  1  1  0  0  0
 13 24  1  0  0  0  0
 14 15  1  0  0  0  0
 14 20  1  0  0  0  0
 15 16  1  6  0  0  0
 15 17  1  0  0  0  0
 18 17  1  1  0  0  0
 18 19  1  0  0  0  0
 18 24  1  0  0  0  0
 19 20  1  6  0  0  0
 19 22  1  0  0  0  0
 20 21  2  0  0  0  0
 22 23  1  0  0  0  0
 24 23  1  1  0  0  0
M  CHG  1   3  -1
M  END
>  <CHROM.1>
2.03142666,171.74563853,85.73859765,-46.69529689,-5.53274143,-4.73294540
10.97015740,-2.24671416,-1.14706137,-1.24379694

>  <Name>
ligand

>  <RI>
0

>  <Rbt.Current_Directory>
/home/itssahil/PROJECTS/Mol_Feturizer/New_Systems/rnas/3SLQ

>  <Rbt.Executable>
rbdock ($Id: //depot/dev/client3/rdock/2013.1/src/exe/rbdock.cxx#4 $)

>  <Rbt.Library>
libRbt.so (2013.1, Build901 2013/11/27)

>  <Rbt.Parameter_File>
/export/apps/rDock/src/rDock_2013.1_src/data/scripts/dock_solv.prm

>  <Rbt.Receptor>
prm/pocket_docking_3.prm

>  <SCORE>
-20.6658

>  <SCORE.INTER>
-18.8268

>  <SCORE.INTER.CONST>
1

>  <SCORE.INTER.POLAR>
0

>  <SCORE.INTER.ROT>
4

>  <SCORE.INTER.SOLV>
21.6061

>  <SCORE.INTER.VDW>
-26.0199

>  <SCORE.INTER.norm>
-0.784448

>  <SCORE.INTRA>
-1.83908

>  <SCORE.INTRA.DIHEDRAL>
-6.6001

>  <SCORE.INTRA.DIHEDRAL.0>
13.2525

>  <SCORE.INTRA.POLAR>
0

>  <SCORE.INTRA.POLAR.0>
0

>  <SCORE.INTRA.REPUL>
0

>  <SCORE.INTRA.REPUL.0>
0

>  <SCORE.INTRA.SOLV>
3.13067

>  <SCORE.INTRA.SOLV.lig_0>
-70.7221

>  <SCORE.INTRA.VDW>
-0.104361

>  <SCORE.INTRA.VDW.0>
-1.46337

>  <SCORE.INTRA.norm>
-0.0766281

>  <SCORE.RESTR>
0

>  <SCORE.RESTR.CAVITY>
0

>  <SCORE.RESTR.norm>
0

>  <SCORE.SYSTEM>
0

>  <SCORE.SYSTEM.CONST>
0

>  <SCORE.SYSTEM.DIHEDRAL>
0

>  <SCORE.SYSTEM.SOLV>
0

>  <SCORE.SYSTEM.norm>
0

>  <SCORE.heavy>
24

>  <SCORE.norm>
-0.861076

>  <RMSD>
1.419

$$$$
ligand
 OpenBabel11021811483D
libRbt.so/2013.1/901 2013/11/27
 24 26  0  0  0  0  0  0  0  0999 V2000
   -8.2380   -6.6609   14.1352 P   0  0  1  0  0  0  0  0  0  0  0  0
   -9.0606   -5.4343   14.4675 O   0  0  0  0  0  0  0  0  0  0  0  0
   -7.8294   -7.5301   15.3011 O   0  5  0  0  0  0  0  0  0  0  0  0
   -8.7741   -7.4661   12.9610 O   0  0  0  0  0  0  0  0  0  0  0  0
   -6.6390   -4.9902   12.7331 C   0  0  0  0  0  0  0  0  0  0  0  0
   -6.7998   -6.0531   13.6884 O   0  0  0  0  0  0  0  0  0  0  0  0
   -7.0345   -5.4805   11.3371 C   0  0  1  0  0  0  0  0  0  0  0  0
   -6.9753   -4.4292   10.3648 O   0  0  0  0  0  0  0  0  0  0  0  0
   -6.1681   -6.5994   10.7847 C   0  0  1  0  0  0  0  0  0  0  0  0
   -6.7413   -7.8561   11.1575 O   0  0  0  0  0  0  0  0  0  0  0  0
   -6.2315   -6.3820    9.2817 C   0  0  1  0  0  0  0  0  0  0  0  0
   -7.4273   -6.9608    8.7402 O   0  0  0  0  0  0  0  0  0  0  0  0
   -6.3925   -4.8818    9.1364 C   0  0  2  0  0  0  0  0  0  0  0  0
   -4.2137   -0.2939    9.6468 N   0  0  0  0  0  0  0  0  0  0  0  0
   -5.5086   -0.6523    9.8028 C   0  0  1  0  0  0  0  0  0  0  0  0
   -6.4160    0.2878   10.1508 N   0  0  0  0  0  0  0  0  0  0  0  0
   -5.9039   -1.9333    9.6154 N   0  0  0  0  0  0  0  0  0  0  0  0
   -4.9902   -2.8704    9.2663 C   0  0  1  0  0  0  0  0  0  0  0  0
   -3.6618   -2.5321    9.0986 C   0  0  2  0  0  0  0  0  0  0  0  0
   -3.2815   -1.2101    9.2978 C   0  0  0  0  0  0  0  0  0  0  0  0
   -2.0925   -0.8620    9.1567 O   0  0  0  0  0  0  0  0  0  0  0  0
   -3.0039   -3.6570    8.7510 N   0  0  0  0  0  0  0  0  0  0  0  0
   -3.9047   -4.6666    8.7129 C   0  0  0  0  0  0  0  0  0  0  0  0
   -5.1049   -4.1706    9.0299 N   0  0  1  0  0  0  0  0  0  0  0  0
  1  2  1  1  0  0  0
  1  3  1  0  0  0  0
  1  4  2  0  0  0  0
  1  6  1  0  0  0  0
  5  6  1  0  0  0  0
  7  5  1  1  0  0  0
  7  8  1  0  0  0  0
  7  9  1  0  0  0  0
  9 10  1  6  0  0  0
  9 11  1  0  0  0  0
 11 12  1  1  0  0  0
 11 13  1  0  0  0  0
 13  8  1  1  0  0  0
 13 24  1  0  0  0  0
 14 15  1  0  0  0  0
 14 20  1  0  0  0  0
 15 16  1  6  0  0  0
 15 17  1  0  0  0  0
 18 17  1  1  0  0  0
 18 19  1  0  0  0  0
 18 24  1  0  0  0  0
 19 20  1  6  0  0  0
 19 22  1  0  0  0  0
 20 21  2  0  0  0  0
 22 23  1  0  0  0  0
 24 23  1  1  0  0  0
M  CHG  1   3  -1
M  END
>  <CHROM.1>
-49.30213663,176.13659143,-68.36768431,-45.70510209,-6.13033222,-4.52128142
10.96190611,2.77222364,-1.00329133,-2.68853589

>  <Name>
ligand

>  <RI>
0

>  <Rbt.Current_Directory>
/home/itssahil/PROJECTS/Mol_Feturizer/New_Systems/rnas/3SLQ

>  <Rbt.Executable>
rbdock ($Id: //depot/dev/client3/rdock/2013.1/src/exe/rbdock.cxx#4 $)

>  <Rbt.Library>
libRbt.so (2013.1, Build901 2013/11/27)

>  <Rbt.Parameter_File>
/export/apps/rDock/src/rDock_2013.1_src/data/scripts/dock_solv.prm

>  <Rbt.Receptor>
prm/pocket_docking_7.prm

>  <SCORE>
-23.1757

>  <SCORE.INTER>
-18.422

>  <SCORE.INTER.CONST>
1

>  <SCORE.INTER.POLAR>
0

>  <SCORE.INTER.ROT>
4

>  <SCORE.INTER.SOLV>
20.3837

>  <SCORE.INTER.VDW>
-25.3426

>  <SCORE.INTER.norm>
-0.767582

>  <SCORE.INTRA>
-4.75375

>  <SCORE.INTRA.DIHEDRAL>
-11.4575

>  <SCORE.INTRA.DIHEDRAL.0>
13.2525

>  <SCORE.INTRA.POLAR>
0

>  <SCORE.INTRA.POLAR.0>
0

>  <SCORE.INTRA.REPUL>
0

>  <SCORE.INTRA.REPUL.0>
0

>  <SCORE.INTRA.SOLV>
3.31498

>  <SCORE.INTRA.SOLV.lig_0>
-70.7221

>  <SCORE.INTRA.VDW>
-0.682487

>  <SCORE.INTRA.VDW.0>
-1.46337

>  <SCORE.INTRA.norm>
-0.198073

>  <SCORE.RESTR>
0

>  <SCORE.RESTR.CAVITY>
0

>  <SCORE.RESTR.norm>
0

>  <SCORE.SYSTEM>
0

>  <SCORE.SYSTEM.CONST>
0

>  <SCORE.SYSTEM.DIHEDRAL>
0

>  <SCORE.SYSTEM.SOLV>
0

>  <SCORE.SYSTEM.norm>
0

>  <SCORE.heavy>
24

>  <SCORE.norm>
-0.965655

>  <RMSD>
1.429

$$$$
ligand
 OpenBabel11021811483D
libRbt.so/2013.1/901 2013/11/27
 24 26  0  0  0  0  0  0  0  0999 V2000
   -8.1047   -6.5752   14.2930 P   0  0  1  0  0  0  0  0  0  0  0  0
   -9.0406   -5.3929   14.4260 O   0  0  0  0  0  0  0  0  0  0  0  0
   -7.6599   -7.2263   15.5815 O   0  5  0  0  0  0  0  0  0  0  0  0
   -8.5312   -7.5868   13.2398 O   0  0  0  0  0  0  0  0  0  0  0  0
   -6.6284   -4.8735   12.7969 C   0  0  0  0  0  0  0  0  0  0  0  0
   -6.7110   -5.9110   13.7893 O   0  0  0  0  0  0  0  0  0  0  0  0
   -7.0072   -5.4353   11.4234 C   0  0  1  0  0  0  0  0  0  0  0  0
   -6.9544   -4.4310   10.4022 O   0  0  0  0  0  0  0  0  0  0  0  0
   -6.1224   -6.5678   10.9313 C   0  0  1  0  0  0  0  0  0  0  0  0
   -6.6821   -7.8126   11.3601 O   0  0  0  0  0  0  0  0  0  0  0  0
   -6.1774   -6.4235    9.4192 C   0  0  1  0  0  0  0  0  0  0  0  0
   -7.3617   -7.0434    8.8980 O   0  0  0  0  0  0  0  0  0  0  0  0
   -6.3567   -4.9342    9.2009 C   0  0  2  0  0  0  0  0  0  0  0  0
   -4.2204   -0.3163    9.6097 N   0  0  0  0  0  0  0  0  0  0  0  0
   -5.5099   -0.6850    9.7849 C   0  0  1  0  0  0  0  0  0  0  0  0
   -6.4235    0.2518   10.1257 N   0  0  0  0  0  0  0  0  0  0  0  0
   -5.8938   -1.9730    9.6237 N   0  0  0  0  0  0  0  0  0  0  0  0
   -4.9740   -2.9067    9.2817 C   0  0  1  0  0  0  0  0  0  0  0  0
   -3.6509   -2.5580    9.0948 C   0  0  2  0  0  0  0  0  0  0  0  0
   -3.2822   -1.2289    9.2673 C   0  0  0  0  0  0  0  0  0  0  0  0
   -2.0984   -0.8713    9.1081 O   0  0  0  0  0  0  0  0  0  0  0  0
   -2.9849   -3.6821    8.7602 N   0  0  0  0  0  0  0  0  0  0  0  0
   -3.8755   -4.7012    8.7486 C   0  0  0  0  0  0  0  0  0  0  0  0
   -5.0776   -4.2120    9.0691 N   0  0  1  0  0  0  0  0  0  0  0  0
  1  2  1  1  0  0  0
  1  3  1  0  0  0  0
  1  4  2  0  0  0  0
  1  6  1  0  0  0  0
  5  6  1  0  0  0  0
  7  5  1  1  0  0  0
  7  8  1  0  0  0  0
  7  9  1  0  0  0  0
  9 10  1  6  0  0  0
  9 11  1  0  0  0  0
 11 12  1  1  0  0  0
 11 13  1  0  0  0  0
 13  8  1  1  0  0  0
 13 24  1  0  0  0  0
 14 15  1  0  0  0  0
 14 20  1  0  0  0  0
 15 16  1  6  0  0  0
 15 17  1  0  0  0  0
 18 17  1  1  0  0  0
 18 19  1  0  0  0  0
 18 24  1  0  0  0  0
 19 20  1  6  0  0  0
 19 22  1  0  0  0  0
 20 21  2  0  0  0  0
 22 23  1  0  0  0  0
 24 23  1  1  0  0  0
M  CHG  1   3  -1
M  END
>  <CHROM.1>
-41.81074512,179.32270040,-69.43905321,-43.69116501,-6.07903668,-4.50706193
11.03746989,2.77930450,-1.02053592,-2.70724794

>  <Name>
ligand

>  <RI>
0

>  <Rbt.Current_Directory>
/home/itssahil/PROJECTS/Mol_Feturizer/New_Systems/rnas/3SLQ

>  <Rbt.Executable>
rbdock ($Id: //depot/dev/client3/rdock/2013.1/src/exe/rbdock.cxx#4 $)

>  <Rbt.Library>
libRbt.so (2013.1, Build901 2013/11/27)

>  <Rbt.Parameter_File>
/export/apps/rDock/src/rDock_2013.1_src/data/scripts/dock_solv.prm

>  <Rbt.Receptor>
prm/pocket_docking_8.prm

>  <SCORE>
-23.0637

>  <SCORE.INTER>
-18.6075

>  <SCORE.INTER.CONST>
1

>  <SCORE.INTER.POLAR>
0

>  <SCORE.INTER.ROT>
4

>  <SCORE.INTER.SOLV>
21.377

>  <SCORE.INTER.VDW>
-25.7973

>  <SCORE.INTER.norm>
-0.775313

>  <SCORE.INTRA>
-4.45615

>  <SCORE.INTRA.DIHEDRAL>
-11.0959

>  <SCORE.INTRA.DIHEDRAL.0>
13.2525

>  <SCORE.INTRA.POLAR>
0

>  <SCORE.INTRA.POLAR.0>
0

>  <SCORE.INTRA.REPUL>
0

>  <SCORE.INTRA.REPUL.0>
0

>  <SCORE.INTRA.SOLV>
3.24875

>  <SCORE.INTRA.SOLV.lig_0>
-70.7221

>  <SCORE.INTRA.VDW>
-0.532556

>  <SCORE.INTRA.VDW.0>
-1.46337

>  <SCORE.INTRA.norm>
-0.185673

>  <SCORE.RESTR>
0

>  <SCORE.RESTR.CAVITY>
0

>  <SCORE.RESTR.norm>
0

>  <SCORE.SYSTEM>
0

>  <SCORE.SYSTEM.CONST>
0

>  <SCORE.SYSTEM.DIHEDRAL>
0

>  <SCORE.SYSTEM.SOLV>
0

>  <SCORE.SYSTEM.norm>
0

>  <SCORE.heavy>
24

>  <SCORE.norm>
-0.960986

>  <RMSD>
1.438

$$$$
ligand
 OpenBabel11021811483D
libRbt.so/2013.1/901 2013/11/27
 24 26  0  0  0  0  0  0  0  0999 V2000
   -8.2973   -6.4236   14.3801 P   0  0  1  0  0  0  0  0  0  0  0  0
   -7.4537   -6.7218   15.6011 O   0  0  0  0  0  0  0  0  0  0  0  0
   -8.2626   -7.4519   13.2741 O   0  5  0  0  0  0  0  0  0  0  0  0
   -9.7080   -5.9539   14.7022 O   0  0  0  0  0  0  0  0  0  0  0  0
   -6.3980   -5.3385   12.7899 C   0  0  0  0  0  0  0  0  0  0  0  0
   -7.5253   -5.1842   13.6694 O   0  0  0  0  0  0  0  0  0  0  0  0
   -6.8808   -5.7085   11.3843 C   0  0  1  0  0  0  0  0  0  0  0  0
   -6.8798   -4.5775   10.5040 O   0  0  0  0  0  0  0  0  0  0  0  0
   -6.0531   -6.7733   10.6852 C   0  0  1  0  0  0  0  0  0  0  0  0
   -6.6050   -8.0590   10.9839 O   0  0  0  0  0  0  0  0  0  0  0  0
   -6.2095   -6.4281    9.2133 C   0  0  1  0  0  0  0  0  0  0  0  0
   -7.4381   -6.9619    8.6996 O   0  0  0  0  0  0  0  0  0  0  0  0
   -6.3757   -4.9214    9.2074 C   0  0  2  0  0  0  0  0  0  0  0  0
   -4.2386   -0.3050    9.6296 N   0  0  0  0  0  0  0  0  0  0  0  0
   -5.5291   -0.6731    9.7983 C   0  0  1  0  0  0  0  0  0  0  0  0
   -6.4438    0.2640   10.1352 N   0  0  0  0  0  0  0  0  0  0  0  0
   -5.9130   -1.9607    9.6344 N   0  0  0  0  0  0  0  0  0  0  0  0
   -4.9922   -2.8948    9.2963 C   0  0  1  0  0  0  0  0  0  0  0  0
   -3.6679   -2.5468    9.1160 C   0  0  2  0  0  0  0  0  0  0  0  0
   -3.2993   -1.2181    9.2912 C   0  0  0  0  0  0  0  0  0  0  0  0
   -2.1145   -0.8610    9.1381 O   0  0  0  0  0  0  0  0  0  0  0  0
   -3.0010   -3.6710    8.7840 N   0  0  0  0  0  0  0  0  0  0  0  0
   -3.8922   -4.6896    8.7674 C   0  0  0  0  0  0  0  0  0  0  0  0
   -5.0955   -4.1999    9.0823 N   0  0  1  0  0  0  0  0  0  0  0  0
  1  2  1  1  0  0  0
  1  3  1  0  0  0  0
  1  4  2  0  0  0  0
  1  6  1  0  0  0  0
  5  6  1  0  0  0  0
  7  5  1  1  0  0  0
  7  8  1  0  0  0  0
  7  9  1  0  0  0  0
  9 10  1  6  0  0  0
  9 11  1  0  0  0  0
 11 12  1  1  0  0  0
 11 13  1  0  0  0  0
 13  8  1  1  0  0  0
 13 24  1  0  0  0  0
 14 15  1  0  0  0  0
 14 20  1  0  0  0  0
 15 16  1  6  0  0  0
 15 17  1  0  0  0  0
 18 17  1  1  0  0  0
 18 19  1  0  0  0  0
 18 24  1  0  0  0  0
 19 20  1  6  0  0  0
 19 22  1  0  0  0  0
 20 21  2  0  0  0  0
 22 23  1  0  0  0  0
 24 23  1  1  0  0  0
M  CHG  1   3  -1
M  END
>  <CHROM.1>
83.02585338,100.88483869,80.96921799,-52.46074719,-6.13073285,-4.50249545
11.02269419,2.80855932,-1.00045896,-2.69760739

>  <Name>
ligand

>  <RI>
0

>  <Rbt.Current_Directory>
/home/itssahil/PROJECTS/Mol_Feturizer/New_Systems/rnas/3SLQ

>  <Rbt.Executable>
rbdock ($Id: //depot/dev/client3/rdock/2013.1/src/exe/rbdock.cxx#4 $)

>  <Rbt.Library>
libRbt.so (2013.1, Build901 2013/11/27)

>  <Rbt.Parameter_File>
/export/apps/rDock/src/rDock_2013.1_src/data/scripts/dock_solv.prm

>  <Rbt.Receptor>
prm/pocket_docking_4.prm

>  <SCORE>
-19.8394

>  <SCORE.INTER>
-18.5247

>  <SCORE.INTER.CONST>
1

>  <SCORE.INTER.POLAR>
0

>  <SCORE.INTER.ROT>
4

>  <SCORE.INTER.SOLV>
23.0065

>  <SCORE.INTER.VDW>
-26.2853

>  <SCORE.INTER.norm>
-0.771863

>  <SCORE.INTRA>
-1.31465

>  <SCORE.INTRA.DIHEDRAL>
-5.24676

>  <SCORE.INTRA.DIHEDRAL.0>
13.2525

>  <SCORE.INTRA.POLAR>
0

>  <SCORE.INTRA.POLAR.0>
0

>  <SCORE.INTRA.REPUL>
0

>  <SCORE.INTRA.REPUL.0>
0

>  <SCORE.INTRA.SOLV>
2.96734

>  <SCORE.INTRA.SOLV.lig_0>
-70.7221

>  <SCORE.INTRA.VDW>
-0.174943

>  <SCORE.INTRA.VDW.0>
-1.46337

>  <SCORE.INTRA.norm>
-0.0547771

>  <SCORE.RESTR>
0

>  <SCORE.RESTR.CAVITY>
0

>  <SCORE.RESTR.norm>
0

>  <SCORE.SYSTEM>
0

>  <SCORE.SYSTEM.CONST>
0

>  <SCORE.SYSTEM.DIHEDRAL>
0

>  <SCORE.SYSTEM.SOLV>
0

>  <SCORE.SYSTEM.norm>
0

>  <SCORE.heavy>
24

>  <SCORE.norm>
-0.82664

>  <RMSD>
1.462

$$$$
ligand
 OpenBabel11021811483D
libRbt.so/2013.1/901 2013/11/27
 24 26  0  0  0  0  0  0  0  0999 V2000
   -6.2593   -7.1834   13.6271 P   0  0  1  0  0  0  0  0  0  0  0  0
   -7.5077   -6.3272   13.6263 O   0  0  0  0  0  0  0  0  0  0  0  0
   -5.0160   -6.5564   13.0415 O   0  5  0  0  0  0  0  0  0  0  0  0
   -5.9948   -7.8908   14.9478 O   0  0  0  0  0  0  0  0  0  0  0  0
   -6.5296   -8.1065   11.0995 C   0  0  0  0  0  0  0  0  0  0  0  0
   -6.5746   -8.3286   12.5197 O   0  0  0  0  0  0  0  0  0  0  0  0
   -7.6021   -7.0898   10.6972 C   0  0  1  0  0  0  0  0  0  0  0  0
   -7.2499   -5.7575   11.0909 O   0  0  0  0  0  0  0  0  0  0  0  0
   -7.8838   -7.0160    9.2062 C   0  0  1  0  0  0  0  0  0  0  0  0
   -8.9344   -7.9333    8.8875 O   0  0  0  0  0  0  0  0  0  0  0  0
   -8.3219   -5.5748    9.0035 C   0  0  1  0  0  0  0  0  0  0  0  0
   -9.7095   -5.4202    9.3333 O   0  0  0  0  0  0  0  0  0  0  0  0
   -7.5546   -4.8077   10.0620 C   0  0  2  0  0  0  0  0  0  0  0  0
   -4.7858   -0.5701    9.4038 N   0  0  0  0  0  0  0  0  0  0  0  0
   -6.0459   -0.7086    9.8755 C   0  0  1  0  0  0  0  0  0  0  0  0
   -6.7334    0.3926   10.2539 N   0  0  0  0  0  0  0  0  0  0  0  0
   -6.6230   -1.9291    9.9721 N   0  0  0  0  0  0  0  0  0  0  0  0
   -5.9293   -3.0284    9.5909 C   0  0  1  0  0  0  0  0  0  0  0  0
   -4.6418   -2.9162    9.1041 C   0  0  2  0  0  0  0  0  0  0  0  0
   -4.0717   -1.6516    9.0157 C   0  0  0  0  0  0  0  0  0  0  0  0
   -2.9119   -1.5056    8.5817 O   0  0  0  0  0  0  0  0  0  0  0  0
   -4.2177   -4.1612    8.8057 N   0  0  0  0  0  0  0  0  0  0  0  0
   -5.2178   -5.0214    9.1088 C   0  0  0  0  0  0  0  0  0  0  0  0
   -6.2483   -4.3160    9.5855 N   0  0  1  0  0  0  0  0  0  0  0  0
  1  2  1  1  0  0  0
  1  3  1  0  0  0  0
  1  4  2  0  0  0  0
  1  6  1  0  0  0  0
  5  6  1  0  0  0  0
  7  5  1  6  0  0  0
  7  8  1  0  0  0  0
  7  9  1  0  0  0  0
  9 10  1  1  0  0  0
  9 11  1  0  0  0  0
 11 12  1  1  0  0  0
 11 13  1  0  0  0  0
 13  8  1  1  0  0  0
 13 24  1  0  0  0  0
 14 15  1  0  0  0  0
 14 20  1  0  0  0  0
 15 16  1  6  0  0  0
 15 17  1  0  0  0  0
 18 17  1  1  0  0  0
 18 19  1  0  0  0  0
 18 24  1  0  0  0  0
 19 20  1  6  0  0  0
 19 22  1  0  0  0  0
 20 21  2  0  0  0  0
 22 23  1  0  0  0  0
 24 23  1  1  0  0  0
M  CHG  1   3  -1
M  END
>  <CHROM.1>
75.97992102,73.57128762,-63.92584264,-123.33776453,-6.38583231,-4.95215270
10.67401746,-1.94713999,-0.76795753,-0.75712513

>  <Name>
ligand

>  <RI>
0

>  <Rbt.Current_Directory>
/home/itssahil/PROJECTS/Mol_Feturizer/New_Systems/rnas/3SLQ

>  <Rbt.Executable>
rbdock ($Id: //depot/dev/client3/rdock/2013.1/src/exe/rbdock.cxx#4 $)

>  <Rbt.Library>
libRbt.so (2013.1, Build901 2013/11/27)

>  <Rbt.Parameter_File>
/export/apps/rDock/src/rDock_2013.1_src/data/scripts/dock_solv.prm

>  <Rbt.Receptor>
prm/pocket_docking_2.prm

>  <SCORE>
-15.8449

>  <SCORE.INTER>
-10.8325

>  <SCORE.INTER.CONST>
1

>  <SCORE.INTER.POLAR>
0

>  <SCORE.INTER.ROT>
4

>  <SCORE.INTER.SOLV>
21.7511

>  <SCORE.INTER.VDW>
-20.7387

>  <SCORE.INTER.norm>
-0.451353

>  <SCORE.INTRA>
-5.01242

>  <SCORE.INTRA.DIHEDRAL>
-10.9354

>  <SCORE.INTRA.DIHEDRAL.0>
13.2525

>  <SCORE.INTRA.POLAR>
0

>  <SCORE.INTRA.POLAR.0>
0

>  <SCORE.INTRA.REPUL>
0

>  <SCORE.INTRA.REPUL.0>
0

>  <SCORE.INTRA.SOLV>
2.28889

>  <SCORE.INTRA.SOLV.lig_0>
-70.7221

>  <SCORE.INTRA.VDW>
-0.689186

>  <SCORE.INTRA.VDW.0>
-1.46337

>  <SCORE.INTRA.norm>
-0.208851

>  <SCORE.RESTR>
0

>  <SCORE.RESTR.CAVITY>
0

>  <SCORE.RESTR.norm>
0

>  <SCORE.SYSTEM>
0

>  <SCORE.SYSTEM.CONST>
0

>  <SCORE.SYSTEM.DIHEDRAL>
0

>  <SCORE.SYSTEM.SOLV>
0

>  <SCORE.SYSTEM.norm>
0

>  <SCORE.heavy>
24

>  <SCORE.norm>
-0.660203

>  <RMSD>
1.466

$$$$
ligand
 OpenBabel11021811483D
libRbt.so/2013.1/901 2013/11/27
 24 26  0  0  0  0  0  0  0  0999 V2000
   -7.1154   -6.3124   13.8727 P   0  0  1  0  0  0  0  0  0  0  0  0
   -8.4943   -5.9143   13.3912 O   0  0  0  0  0  0  0  0  0  0  0  0
   -5.9591   -5.4981   13.3420 O   0  5  0  0  0  0  0  0  0  0  0  0
   -7.0282   -6.5493   15.3730 O   0  0  0  0  0  0  0  0  0  0  0  0
   -6.4177   -7.8708   11.7754 C   0  0  0  0  0  0  0  0  0  0  0  0
   -6.8466   -7.7374   13.1417 O   0  0  0  0  0  0  0  0  0  0  0  0
   -7.4113   -7.1666   10.8466 C   0  0  1  0  0  0  0  0  0  0  0  0
   -7.2687   -5.7413   10.8935 O   0  0  0  0  0  0  0  0  0  0  0  0
   -7.2901   -7.5430    9.3798 C   0  0  1  0  0  0  0  0  0  0  0  0
   -8.1526   -8.6531    9.1139 O   0  0  0  0  0  0  0  0  0  0  0  0
   -7.7559   -6.2897    8.6570 C   0  0  1  0  0  0  0  0  0  0  0  0
   -9.1885   -6.2514    8.5898 O   0  0  0  0  0  0  0  0  0  0  0  0
   -7.3525   -5.1616    9.5856 C   0  0  2  0  0  0  0  0  0  0  0  0
   -4.5729   -0.8806    9.5276 N   0  0  0  0  0  0  0  0  0  0  0  0
   -5.8798   -1.0525    9.8311 C   0  0  1  0  0  0  0  0  0  0  0  0
   -6.6212    0.0209   10.1866 N   0  0  0  0  0  0  0  0  0  0  0  0
   -6.4502   -2.2790    9.7829 N   0  0  0  0  0  0  0  0  0  0  0  0
   -5.7024   -3.3504    9.4255 C   0  0  1  0  0  0  0  0  0  0  0  0
   -4.3662   -3.2037    9.1088 C   0  0  2  0  0  0  0  0  0  0  0  0
   -3.8041   -1.9337    9.1669 C   0  0  0  0  0  0  0  0  0  0  0  0
   -2.6015   -1.7569    8.8888 O   0  0  0  0  0  0  0  0  0  0  0  0
   -3.8942   -4.4266    8.7915 N   0  0  0  0  0  0  0  0  0  0  0  0
   -4.9139   -5.3076    8.9171 C   0  0  0  0  0  0  0  0  0  0  0  0
   -6.0034   -4.6366    9.3041 N   0  0  1  0  0  0  0  0  0  0  0  0
  1  2  1  6  0  0  0
  1  3  1  0  0  0  0
  1  4  2  0  0  0  0
  1  6  1  0  0  0  0
  5  6  1  0  0  0  0
  7  5  1  1  0  0  0
  7  8  1  0  0  0  0
  7  9  1  0  0  0  0
  9 10  1  1  0  0  0
  9 11  1  0  0  0  0
 11 12  1  1  0  0  0
 11 13  1  0  0  0  0
 13  8  1  1  0  0  0
 13 24  1  0  0  0  0
 14 15  1  0  0  0  0
 14 20  1  0  0  0  0
 15 16  1  6  0  0  0
 15 17  1  0  0  0  0
 18 17  1  1  0  0  0
 18 19  1  0  0  0  0
 18 24  1  0  0  0  0
 19 20  1  6  0  0  0
 19 22  1  0  0  0  0
 20 21  2  0  0  0  0
 22 23  1  0  0  0  0
 24 23  1  1  0  0  0
M  CHG  1   3  -1
M  END
>  <CHROM.1>
80.04918901,75.36970581,-56.75412764,-100.88554513,-6.38907362,-4.97060025
10.71037454,-2.65932470,-1.08870486,-1.59480721

>  <Name>
ligand

>  <RI>
0

>  <Rbt.Current_Directory>
/home/itssahil/PROJECTS/Mol_Feturizer/New_Systems/rnas/3SLQ

>  <Rbt.Executable>
rbdock ($Id: //depot/dev/client3/rdock/2013.1/src/exe/rbdock.cxx#4 $)

>  <Rbt.Library>
libRbt.so (2013.1, Build901 2013/11/27)

>  <Rbt.Parameter_File>
/export/apps/rDock/src/rDock_2013.1_src/data/scripts/dock_solv.prm

>  <Rbt.Receptor>
prm/pocket_docking_5.prm

>  <SCORE>
-16.7965

>  <SCORE.INTER>
-12.2954

>  <SCORE.INTER.CONST>
1

>  <SCORE.INTER.POLAR>
0

>  <SCORE.INTER.ROT>
4

>  <SCORE.INTER.SOLV>
24.1048

>  <SCORE.INTER.VDW>
-22.4985

>  <SCORE.INTER.norm>
-0.512308

>  <SCORE.INTRA>
-4.50113

>  <SCORE.INTRA.DIHEDRAL>
-10.6027

>  <SCORE.INTRA.DIHEDRAL.0>
13.2525

>  <SCORE.INTRA.POLAR>
0

>  <SCORE.INTRA.POLAR.0>
0

>  <SCORE.INTRA.REPUL>
0

>  <SCORE.INTRA.REPUL.0>
0

>  <SCORE.INTRA.SOLV>
2.75494

>  <SCORE.INTRA.SOLV.lig_0>
-70.7221

>  <SCORE.INTRA.VDW>
-0.577249

>  <SCORE.INTRA.VDW.0>
-1.46337

>  <SCORE.INTRA.norm>
-0.187547

>  <SCORE.RESTR>
0

>  <SCORE.RESTR.CAVITY>
0

>  <SCORE.RESTR.norm>
0

>  <SCORE.SYSTEM>
0

>  <SCORE.SYSTEM.CONST>
0

>  <SCORE.SYSTEM.DIHEDRAL>
0

>  <SCORE.SYSTEM.SOLV>
0

>  <SCORE.SYSTEM.norm>
0

>  <SCORE.heavy>
24

>  <SCORE.norm>
-0.699855

>  <RMSD>
1.466

$$$$
ligand
 OpenBabel11021811483D
libRbt.so/2013.1/901 2013/11/27
 24 26  0  0  0  0  0  0  0  0999 V2000
   -4.3049   -7.9654   14.2611 P   0  0  1  0  0  0  0  0  0  0  0  0
   -3.0838   -7.1753   13.8414 O   0  0  0  0  0  0  0  0  0  0  0  0
   -4.2262   -9.4638   14.0870 O   0  5  0  0  0  0  0  0  0  0  0  0
   -4.8697   -7.5596   15.6142 O   0  0  0  0  0  0  0  0  0  0  0  0
   -5.8076   -6.2388   12.8208 C   0  0  0  0  0  0  0  0  0  0  0  0
   -5.4162   -7.5855   13.1395 O   0  0  0  0  0  0  0  0  0  0  0  0
   -6.6681   -6.2327   11.5538 C   0  0  1  0  0  0  0  0  0  0  0  0
   -6.7750   -4.9208   10.9867 O   0  0  0  0  0  0  0  0  0  0  0  0
   -6.1599   -7.1238   10.4332 C   0  0  1  0  0  0  0  0  0  0  0  0
   -6.7468   -8.4212   10.5711 O   0  0  0  0  0  0  0  0  0  0  0  0
   -6.6498   -6.4212    9.1776 C   0  0  1  0  0  0  0  0  0  0  0  0
   -8.0169   -6.7645    8.9104 O   0  0  0  0  0  0  0  0  0  0  0  0
   -6.6560   -4.9541    9.5591 C   0  0  2  0  0  0  0  0  0  0  0  0
   -4.3900   -0.3805    9.5029 N   0  0  0  0  0  0  0  0  0  0  0  0
   -5.6614   -0.7055    9.8305 C   0  0  1  0  0  0  0  0  0  0  0  0
   -6.5137    0.2711   10.2155 N   0  0  0  0  0  0  0  0  0  0  0  0
   -6.0877   -1.9891    9.7772 N   0  0  0  0  0  0  0  0  0  0  0  0
   -5.2293   -2.9628    9.3901 C   0  0  1  0  0  0  0  0  0  0  0  0
   -3.9261   -2.6593    9.0485 C   0  0  2  0  0  0  0  0  0  0  0  0
   -3.5130   -1.3337    9.1125 C   0  0  0  0  0  0  0  0  0  0  0  0
   -2.3451   -1.0162    8.8125 O   0  0  0  0  0  0  0  0  0  0  0  0
   -3.3234   -3.8159    8.7051 N   0  0  0  0  0  0  0  0  0  0  0  0
   -4.2319   -4.8102    8.8393 C   0  0  0  0  0  0  0  0  0  0  0  0
   -5.3828   -4.2738    9.2575 N   0  0  1  0  0  0  0  0  0  0  0  0
  1  2  1  6  0  0  0
  1  3  1  0  0  0  0
  1  4  2  0  0  0  0
  1  6  1  0  0  0  0
  5  6  1  0  0  0  0
  7  5  1  1  0  0  0
  7  8  1  0  0  0  0
  7  9  1  0  0  0  0
  9 10  1  1  0  0  0
  9 11  1  0  0  0  0
 11 12  1  1  0  0  0
 11 13  1  0  0  0  0
 13  8  1  1  0  0  0
 13 24  1  0  0  0  0
 14 15  1  0  0  0  0
 14 20  1  0  0  0  0
 15 16  1  6  0  0  0
 15 17  1  0  0  0  0
 18 17  1  1  0  0  0
 18 19  1  0  0  0  0
 18 24  1  0  0  0  0
 19 20  1  6  0  0  0
 19 22  1  0  0  0  0
 20 21  2  0  0  0  0
 22 23  1  0  0  0  0
 24 23  1  1  0  0  0
M  CHG  1   3  -1
M  END
>  <CHROM.1>
-54.85162862,-163.89335441,169.41144699,-71.77690602,-5.20783726,-5.05459531
11.00061711,-1.61586958,-0.76767418,-0.62252147

>  <Name>
ligand

>  <RI>
0

>  <Rbt.Current_Directory>
/home/itssahil/PROJECTS/Mol_Feturizer/New_Systems/rnas/3SLQ

>  <Rbt.Executable>
rbdock ($Id: //depot/dev/client3/rdock/2013.1/src/exe/rbdock.cxx#4 $)

>  <Rbt.Library>
libRbt.so (2013.1, Build901 2013/11/27)

>  <Rbt.Parameter_File>
/export/apps/rDock/src/rDock_2013.1_src/data/scripts/dock_solv.prm

>  <Rbt.Receptor>
prm/pocket_docking_7.prm

>  <SCORE>
-23.7487

>  <SCORE.INTER>
-18.3688

>  <SCORE.INTER.CONST>
1

>  <SCORE.INTER.POLAR>
0

>  <SCORE.INTER.ROT>
4

>  <SCORE.INTER.SOLV>
22.4154

>  <SCORE.INTER.VDW>
-25.9843

>  <SCORE.INTER.norm>
-0.765367

>  <SCORE.INTRA>
-5.37992

>  <SCORE.INTRA.DIHEDRAL>
-10.5972

>  <SCORE.INTRA.DIHEDRAL.0>
13.2525

>  <SCORE.INTRA.POLAR>
0

>  <SCORE.INTRA.POLAR.0>
0

>  <SCORE.INTRA.REPUL>
0

>  <SCORE.INTRA.REPUL.0>
0

>  <SCORE.INTRA.SOLV>
0.11318

>  <SCORE.INTRA.SOLV.lig_0>
-70.7221

>  <SCORE.INTRA.VDW>
-0.137895

>  <SCORE.INTRA.VDW.0>
-1.46337

>  <SCORE.INTRA.norm>
-0.224163

>  <SCORE.RESTR>
0

>  <SCORE.RESTR.CAVITY>
0

>  <SCORE.RESTR.norm>
0

>  <SCORE.SYSTEM>
0

>  <SCORE.SYSTEM.CONST>
0

>  <SCORE.SYSTEM.DIHEDRAL>
0

>  <SCORE.SYSTEM.SOLV>
0

>  <SCORE.SYSTEM.norm>
0

>  <SCORE.heavy>
24

>  <SCORE.norm>
-0.98953

>  <RMSD>
1.470

$$$$
ligand
 OpenBabel11021811483D
libRbt.so/2013.1/901 2013/11/27
 24 26  0  0  0  0  0  0  0  0999 V2000
   -4.8694   -8.5298   14.0852 P   0  0  1  0  0  0  0  0  0  0  0  0
   -3.4617   -8.4254   13.5385 O   0  0  0  0  0  0  0  0  0  0  0  0
   -5.5185   -9.8917   14.0099 O   0  5  0  0  0  0  0  0  0  0  0  0
   -5.0587   -7.8624   15.4392 O   0  0  0  0  0  0  0  0  0  0  0  0
   -5.7061   -7.9137   11.5884 C   0  0  0  0  0  0  0  0  0  0  0  0
   -5.7644   -7.7049   13.0101 O   0  0  0  0  0  0  0  0  0  0  0  0
   -6.8300   -7.1327   10.9009 C   0  0  1  0  0  0  0  0  0  0  0  0
   -6.6887   -5.7185   11.0857 O   0  0  0  0  0  0  0  0  0  0  0  0
   -6.9266   -7.3426    9.3994 C   0  0  1  0  0  0  0  0  0  0  0  0
   -7.8139   -8.4346    9.1406 O   0  0  0  0  0  0  0  0  0  0  0  0
   -7.5006   -6.0275    8.8982 C   0  0  1  0  0  0  0  0  0  0  0  0
   -8.9274   -6.0124    9.0474 O   0  0  0  0  0  0  0  0  0  0  0  0
   -6.9689   -5.0002    9.8778 C   0  0  2  0  0  0  0  0  0  0  0  0
   -4.4413   -0.5886    9.4238 N   0  0  0  0  0  0  0  0  0  0  0  0
   -5.7063   -0.8146    9.8458 C   0  0  1  0  0  0  0  0  0  0  0  0
   -6.4722    0.2331   10.2254 N   0  0  0  0  0  0  0  0  0  0  0  0
   -6.2112   -2.0696    9.8917 N   0  0  0  0  0  0  0  0  0  0  0  0
   -5.4392   -3.1150    9.5095 C   0  0  1  0  0  0  0  0  0  0  0  0
   -4.1447   -2.9132    9.0728 C   0  0  2  0  0  0  0  0  0  0  0  0
   -3.6497   -1.6149    9.0359 C   0  0  0  0  0  0  0  0  0  0  0  0
   -2.4865   -1.3883    8.6482 O   0  0  0  0  0  0  0  0  0  0  0  0
   -3.6355   -4.1223    8.7601 N   0  0  0  0  0  0  0  0  0  0  0  0
   -4.5915   -5.0485    9.0055 C   0  0  0  0  0  0  0  0  0  0  0  0
   -5.6790   -4.4188    9.4613 N   0  0  1  0  0  0  0  0  0  0  0  0
  1  2  1  6  0  0  0
  1  3  1  0  0  0  0
  1  4  2  0  0  0  0
  1  6  1  0  0  0  0
  5  6  1  0  0  0  0
  7  5  1  6  0  0  0
  7  8  1  0  0  0  0
  7  9  1  0  0  0  0
  9 10  1  1  0  0  0
  9 11  1  0  0  0  0
 11 12  1  1  0  0  0
 11 13  1  0  0  0  0
 13  8  1  1  0  0  0
 13 24  1  0  0  0  0
 14 15  1  0  0  0  0
 14 20  1  0  0  0  0
 15 16  1  6  0  0  0
 15 17  1  0  0  0  0
 18 17  1  1  0  0  0
 18 19  1  0  0  0  0
 18 24  1  0  0  0  0
 19 20  1  6  0  0  0
 19 22  1  0  0  0  0
 20 21  2  0  0  0  0
 22 23  1  0  0  0  0
 24 23  1  1  0  0  0
M  CHG  1   3  -1
M  END
>  <CHROM.1>
50.00671526,63.19549172,171.08618516,-110.48606747,-5.58279770,-5.37795271
10.80457065,-1.66826068,-0.71734896,-0.60057968

>  <Name>
ligand

>  <RI>
0

>  <Rbt.Current_Directory>
/home/itssahil/PROJECTS/Mol_Feturizer/New_Systems/rnas/3SLQ

>  <Rbt.Executable>
rbdock ($Id: //depot/dev/client3/rdock/2013.1/src/exe/rbdock.cxx#4 $)

>  <Rbt.Library>
libRbt.so (2013.1, Build901 2013/11/27)

>  <Rbt.Parameter_File>
/export/apps/rDock/src/rDock_2013.1_src/data/scripts/dock_solv.prm

>  <Rbt.Receptor>
prm/pocket_docking_4.prm

>  <SCORE>
-20.4655

>  <SCORE.INTER>
-14.3888

>  <SCORE.INTER.CONST>
1

>  <SCORE.INTER.POLAR>
0

>  <SCORE.INTER.ROT>
4

>  <SCORE.INTER.SOLV>
18.8744

>  <SCORE.INTER.VDW>
-22.1507

>  <SCORE.INTER.norm>
-0.599533

>  <SCORE.INTRA>
-6.07829

>  <SCORE.INTRA.DIHEDRAL>
-11.4808

>  <SCORE.INTRA.DIHEDRAL.0>
13.2525

>  <SCORE.INTRA.POLAR>
0

>  <SCORE.INTRA.POLAR.0>
0

>  <SCORE.INTRA.REPUL>
0

>  <SCORE.INTRA.REPUL.0>
0

>  <SCORE.INTRA.SOLV>
-0.121306

>  <SCORE.INTRA.SOLV.lig_0>
-70.7221

>  <SCORE.INTRA.VDW>
-0.277224

>  <SCORE.INTRA.VDW.0>
-1.46337

>  <SCORE.INTRA.norm>
-0.253262

>  <SCORE.RESTR>
0.00156454

>  <SCORE.RESTR.CAVITY>
0.00156454

>  <SCORE.RESTR.norm>
6.51892e-05

>  <SCORE.SYSTEM>
0

>  <SCORE.SYSTEM.CONST>
0

>  <SCORE.SYSTEM.DIHEDRAL>
0

>  <SCORE.SYSTEM.SOLV>
0

>  <SCORE.SYSTEM.norm>
0

>  <SCORE.heavy>
24

>  <SCORE.norm>
-0.85273

>  <RMSD>
1.485

$$$$
ligand
 OpenBabel11021811483D
libRbt.so/2013.1/901 2013/11/27
 24 26  0  0  0  0  0  0  0  0999 V2000
   -8.4062   -6.9533   13.9079 P   0  0  1  0  0  0  0  0  0  0  0  0
   -8.8640   -7.5102   12.5769 O   0  0  0  0  0  0  0  0  0  0  0  0
   -9.1188   -5.7145   14.3971 O   0  5  0  0  0  0  0  0  0  0  0  0
   -8.2414   -8.0047   14.9951 O   0  0  0  0  0  0  0  0  0  0  0  0
   -6.6887   -5.2543   12.6923 C   0  0  0  0  0  0  0  0  0  0  0  0
   -6.9317   -6.3518   13.5894 O   0  0  0  0  0  0  0  0  0  0  0  0
   -7.0941   -5.6461   11.2683 C   0  0  1  0  0  0  0  0  0  0  0  0
   -7.0253   -4.5333   10.3678 O   0  0  0  0  0  0  0  0  0  0  0  0
   -6.2426   -6.7358   10.6396 C   0  0  1  0  0  0  0  0  0  0  0  0
   -6.8295   -8.0077   10.9303 O   0  0  0  0  0  0  0  0  0  0  0  0
   -6.3078   -6.4183    9.1546 C   0  0  1  0  0  0  0  0  0  0  0  0
   -7.5120   -6.9459    8.5803 O   0  0  0  0  0  0  0  0  0  0  0  0
   -6.4516   -4.9099    9.1099 C   0  0  2  0  0  0  0  0  0  0  0  0
   -4.2563   -0.3393    9.6988 N   0  0  0  0  0  0  0  0  0  0  0  0
   -5.5581   -0.6883    9.8125 C   0  0  1  0  0  0  0  0  0  0  0  0
   -6.4693    0.2580   10.1331 N   0  0  0  0  0  0  0  0  0  0  0  0
   -5.9567   -1.9659    9.6100 N   0  0  0  0  0  0  0  0  0  0  0  0
   -5.0393   -2.9092    9.2885 C   0  0  1  0  0  0  0  0  0  0  0  0
   -3.7037   -2.5806    9.1641 C   0  0  2  0  0  0  0  0  0  0  0  0
   -3.3202   -1.2619    9.3780 C   0  0  0  0  0  0  0  0  0  0  0  0
   -2.1248   -0.9224    9.2757 O   0  0  0  0  0  0  0  0  0  0  0  0
   -3.0434   -3.7098    8.8356 N   0  0  0  0  0  0  0  0  0  0  0  0
   -3.9499   -4.7125    8.7667 C   0  0  0  0  0  0  0  0  0  0  0  0
   -5.1560   -4.2082    9.0461 N   0  0  1  0  0  0  0  0  0  0  0  0
  1  2  1  6  0  0  0
  1  3  1  0  0  0  0
  1  4  2  0  0  0  0
  1  6  1  0  0  0  0
  5  6  1  0  0  0  0
  7  5  1  1  0  0  0
  7  8  1  0  0  0  0
  7  9  1  0  0  0  0
  9 10  1  6  0  0  0
  9 11  1  0  0  0  0
 11 12  1  1  0  0  0
 11 13  1  0  0  0  0
 13  8  1  1  0  0  0
 13 24  1  0  0  0  0
 14 15  1  0  0  0  0
 14 20  1  0  0  0  0
 15 16  1  6  0  0  0
 15 17  1  0  0  0  0
 18 17  1  1  0  0  0
 18 19  1  0  0  0  0
 18 24  1  0  0  0  0
 19 20  1  6  0  0  0
 19 22  1  0  0  0  0
 20 21  2  0  0  0  0
 22 23  1  0  0  0  0
 24 23  1  1  0  0  0
M  CHG  1   3  -1
M  END
>  <CHROM.1>
64.27347834,172.84242753,-63.95437852,-49.93518016,-6.21654376,-4.64894210
10.88928686,2.72814531,-0.98101313,-2.68974907

>  <Name>
ligand

>  <RI>
0

>  <Rbt.Current_Directory>
/home/itssahil/PROJECTS/Mol_Feturizer/New_Systems/rnas/3SLQ

>  <Rbt.Executable>
rbdock ($Id: //depot/dev/client3/rdock/2013.1/src/exe/rbdock.cxx#4 $)

>  <Rbt.Library>
libRbt.so (2013.1, Build901 2013/11/27)

>  <Rbt.Parameter_File>
/export/apps/rDock/src/rDock_2013.1_src/data/scripts/dock_solv.prm

>  <Rbt.Receptor>
prm/pocket_docking_3.prm

>  <SCORE>
-21.8601

>  <SCORE.INTER>
-16.4214

>  <SCORE.INTER.CONST>
1

>  <SCORE.INTER.POLAR>
0

>  <SCORE.INTER.ROT>
4

>  <SCORE.INTER.SOLV>
22.0569

>  <SCORE.INTER.VDW>
-24.5666

>  <SCORE.INTER.norm>
-0.684226

>  <SCORE.INTRA>
-5.43863

>  <SCORE.INTRA.DIHEDRAL>
-11.7492

>  <SCORE.INTRA.DIHEDRAL.0>
13.2525

>  <SCORE.INTRA.POLAR>
0

>  <SCORE.INTRA.POLAR.0>
0

>  <SCORE.INTRA.REPUL>
0

>  <SCORE.INTRA.REPUL.0>
0

>  <SCORE.INTRA.SOLV>
1.69196

>  <SCORE.INTRA.SOLV.lig_0>
-70.7221

>  <SCORE.INTRA.VDW>
-0.410032

>  <SCORE.INTRA.VDW.0>
-1.46337

>  <SCORE.INTRA.norm>
-0.22661

>  <SCORE.RESTR>
0

>  <SCORE.RESTR.CAVITY>
0

>  <SCORE.RESTR.norm>
0

>  <SCORE.SYSTEM>
0

>  <SCORE.SYSTEM.CONST>
0

>  <SCORE.SYSTEM.DIHEDRAL>
0

>  <SCORE.SYSTEM.SOLV>
0

>  <SCORE.SYSTEM.norm>
0

>  <SCORE.heavy>
24

>  <SCORE.norm>
-0.910836

>  <RMSD>
1.499

$$$$
ligand
 OpenBabel11021811483D
libRbt.so/2013.1/901 2013/11/27
 24 26  0  0  0  0  0  0  0  0999 V2000
   -8.4081   -6.9321   13.9144 P   0  0  1  0  0  0  0  0  0  0  0  0
   -8.8934   -7.4849   12.5914 O   0  0  0  0  0  0  0  0  0  0  0  0
   -9.0999   -5.6858   14.4144 O   0  5  0  0  0  0  0  0  0  0  0  0
   -8.2365   -7.9847   14.9994 O   0  0  0  0  0  0  0  0  0  0  0  0
   -6.6942   -5.2444   12.6785 C   0  0  0  0  0  0  0  0  0  0  0  0
   -6.9329   -6.3461   13.5715 O   0  0  0  0  0  0  0  0  0  0  0  0
   -7.0955   -5.6333   11.2526 C   0  0  1  0  0  0  0  0  0  0  0  0
   -7.0203   -4.5196   10.3537 O   0  0  0  0  0  0  0  0  0  0  0  0
   -6.2447   -6.7246   10.6257 C   0  0  1  0  0  0  0  0  0  0  0  0
   -6.8362   -7.9953   10.9127 O   0  0  0  0  0  0  0  0  0  0  0  0
   -6.3037   -6.4052    9.1409 C   0  0  1  0  0  0  0  0  0  0  0  0
   -7.5072   -6.9287    8.5615 O   0  0  0  0  0  0  0  0  0  0  0  0
   -6.4430   -4.8964    9.0974 C   0  0  2  0  0  0  0  0  0  0  0  0
   -4.2381   -0.3314    9.6940 N   0  0  0  0  0  0  0  0  0  0  0  0
   -5.5413   -0.6769    9.8020 C   0  0  1  0  0  0  0  0  0  0  0  0
   -6.4513    0.2721   10.1180 N   0  0  0  0  0  0  0  0  0  0  0  0
   -5.9424   -1.9535    9.5983 N   0  0  0  0  0  0  0  0  0  0  0  0
   -5.0261   -2.8994    9.2815 C   0  0  1  0  0  0  0  0  0  0  0  0
   -3.6891   -2.5745    9.1630 C   0  0  2  0  0  0  0  0  0  0  0  0
   -3.3030   -1.2567    9.3780 C   0  0  0  0  0  0  0  0  0  0  0  0
   -2.1062   -0.9205    9.2809 O   0  0  0  0  0  0  0  0  0  0  0  0
   -3.0304   -3.7057    8.8380 N   0  0  0  0  0  0  0  0  0  0  0  0
   -3.9393   -4.7060    8.7655 C   0  0  0  0  0  0  0  0  0  0  0  0
   -5.1452   -4.1982    9.0391 N   0  0  1  0  0  0  0  0  0  0  0  0
  1  2  1  6  0  0  0
  1  3  1  0  0  0  0
  1  4  2  0  0  0  0
  1  6  1  0  0  0  0
  5  6  1  0  0  0  0
  7  5  1  1  0  0  0
  7  8  1  0  0  0  0
  7  9  1  0  0  0  0
  9 10  1  6  0  0  0
  9 11  1  0  0  0  0
 11 12  1  1  0  0  0
 11 13  1  0  0  0  0
 13  8  1  1  0  0  0
 13 24  1  0  0  0  0
 14 15  1  0  0  0  0
 14 20  1  0  0  0  0
 15 16  1  6  0  0  0
 15 17  1  0  0  0  0
 18 17  1  1  0  0  0
 18 19  1  0  0  0  0
 18 24  1  0  0  0  0
 19 20  1  6  0  0  0
 19 22  1  0  0  0  0
 20 21  2  0  0  0  0
 22 23  1  0  0  0  0
 24 23  1  1  0  0  0
M  CHG  1   3  -1
M  END
>  <CHROM.1>
64.81769247,173.32618345,-65.54908957,-50.04511222,-6.21054383,-4.63599196
10.88393539,2.73781452,-0.98110696,-2.68102657

>  <Name>
ligand

>  <RI>
0

>  <Rbt.Current_Directory>
/home/itssahil/PROJECTS/Mol_Feturizer/New_Systems/rnas/3SLQ

>  <Rbt.Executable>
rbdock ($Id: //depot/dev/client3/rdock/2013.1/src/exe/rbdock.cxx#4 $)

>  <Rbt.Library>
libRbt.so (2013.1, Build901 2013/11/27)

>  <Rbt.Parameter_File>
/export/apps/rDock/src/rDock_2013.1_src/data/scripts/dock_solv.prm

>  <Rbt.Receptor>
prm/pocket_docking_3.prm

>  <SCORE>
-21.8809

>  <SCORE.INTER>
-16.3901

>  <SCORE.INTER.CONST>
1

>  <SCORE.INTER.POLAR>
0

>  <SCORE.INTER.ROT>
4

>  <SCORE.INTER.SOLV>
22.2233

>  <SCORE.INTER.VDW>
-24.6012

>  <SCORE.INTER.norm>
-0.682921

>  <SCORE.INTRA>
-5.49083

>  <SCORE.INTRA.DIHEDRAL>
-11.6908

>  <SCORE.INTRA.DIHEDRAL.0>
13.2525

>  <SCORE.INTRA.POLAR>
0

>  <SCORE.INTRA.POLAR.0>
0

>  <SCORE.INTRA.REPUL>
0

>  <SCORE.INTRA.REPUL.0>
0

>  <SCORE.INTRA.SOLV>
1.6457

>  <SCORE.INTRA.SOLV.lig_0>
-70.7221

>  <SCORE.INTRA.VDW>
-0.46826

>  <SCORE.INTRA.VDW.0>
-1.46337

>  <SCORE.INTRA.norm>
-0.228785

>  <SCORE.RESTR>
0

>  <SCORE.RESTR.CAVITY>
0

>  <SCORE.RESTR.norm>
0

>  <SCORE.SYSTEM>
0

>  <SCORE.SYSTEM.CONST>
0

>  <SCORE.SYSTEM.DIHEDRAL>
0

>  <SCORE.SYSTEM.SOLV>
0

>  <SCORE.SYSTEM.norm>
0

>  <SCORE.heavy>
24

>  <SCORE.norm>
-0.911706

>  <RMSD>
1.506

$$$$
ligand
 OpenBabel11021811483D
libRbt.so/2013.1/901 2013/11/27
 24 26  0  0  0  0  0  0  0  0999 V2000
   -4.3484   -7.8734   14.2171 P   0  0  1  0  0  0  0  0  0  0  0  0
   -3.1181   -7.0934   13.8056 O   0  0  0  0  0  0  0  0  0  0  0  0
   -4.3132   -9.3625   13.9657 O   0  5  0  0  0  0  0  0  0  0  0  0
   -4.8681   -7.5234   15.6035 O   0  0  0  0  0  0  0  0  0  0  0  0
   -5.4335   -7.7278   11.7443 C   0  0  0  0  0  0  0  0  0  0  0  0
   -5.4773   -7.4092   13.1460 O   0  0  0  0  0  0  0  0  0  0  0  0
   -6.5813   -7.0240   11.0142 C   0  0  1  0  0  0  0  0  0  0  0  0
   -6.5015   -5.5987   11.1418 O   0  0  0  0  0  0  0  0  0  0  0  0
   -6.6517   -7.2989    9.5218 C   0  0  1  0  0  0  0  0  0  0  0  0
   -7.4893   -8.4373    9.2996 O   0  0  0  0  0  0  0  0  0  0  0  0
   -7.2745   -6.0309    8.9611 C   0  0  1  0  0  0  0  0  0  0  0  0
   -8.7023   -6.0703    9.0956 O   0  0  0  0  0  0  0  0  0  0  0  0
   -6.7977   -4.9428    9.9026 C   0  0  2  0  0  0  0  0  0  0  0  0
   -4.4092   -0.4588    9.4078 N   0  0  0  0  0  0  0  0  0  0  0  0
   -5.6642   -0.7209    9.8386 C   0  0  1  0  0  0  0  0  0  0  0  0
   -6.4597    0.3052   10.2166 N   0  0  0  0  0  0  0  0  0  0  0  0
   -6.1302   -1.9905    9.8948 N   0  0  0  0  0  0  0  0  0  0  0  0
   -5.3287   -3.0140    9.5142 C   0  0  1  0  0  0  0  0  0  0  0  0
   -4.0435   -2.7753    9.0687 C   0  0  2  0  0  0  0  0  0  0  0  0
   -3.5887   -1.4627    9.0213 C   0  0  0  0  0  0  0  0  0  0  0  0
   -2.4352   -1.2030    8.6254 O   0  0  0  0  0  0  0  0  0  0  0  0
   -3.4993   -3.9701    8.7601 N   0  0  0  0  0  0  0  0  0  0  0  0
   -4.4250   -4.9236    9.0166 C   0  0  0  0  0  0  0  0  0  0  0  0
   -5.5287   -4.3248    9.4751 N   0  0  1  0  0  0  0  0  0  0  0  0
  1  2  1  6  0  0  0
  1  3  1  0  0  0  0
  1  4  2  0  0  0  0
  1  6  1  0  0  0  0
  5  6  1  0  0  0  0
  7  5  1  6  0  0  0
  7  8  1  0  0  0  0
  7  9  1  0  0  0  0
  9 10  1  1  0  0  0
  9 11  1  0  0  0  0
 11 12  1  1  0  0  0
 11 13  1  0  0  0  0
 13  8  1  1  0  0  0
 13 24  1  0  0  0  0
 14 15  1  0  0  0  0
 14 20  1  0  0  0  0
 15 16  1  6  0  0  0
 15 17  1  0  0  0  0
 18 17  1  1  0  0  0
 18 19  1  0  0  0  0
 18 24  1  0  0  0  0
 19 20  1  6  0  0  0
 19 22  1  0  0  0  0
 20 21  2  0  0  0  0
 22 23  1  0  0  0  0
 24 23  1  1  0  0  0
M  CHG  1   3  -1
M  END
>  <CHROM.1>
67.47265423,60.30872008,-174.73464440,-108.16609592,-5.33351593,-5.14092493
10.86783759,-1.60902835,-0.76159670,-0.60026612

>  <Name>
ligand

>  <RI>
0

>  <Rbt.Current_Directory>
/home/itssahil/PROJECTS/Mol_Feturizer/New_Systems/rnas/3SLQ

>  <Rbt.Executable>
rbdock ($Id: //depot/dev/client3/rdock/2013.1/src/exe/rbdock.cxx#4 $)

>  <Rbt.Library>
libRbt.so (2013.1, Build901 2013/11/27)

>  <Rbt.Parameter_File>
/export/apps/rDock/src/rDock_2013.1_src/data/scripts/dock_solv.prm

>  <Rbt.Receptor>
prm/pocket_docking_7.prm

>  <SCORE>
-22.9292

>  <SCORE.INTER>
-16.7637

>  <SCORE.INTER.CONST>
1

>  <SCORE.INTER.POLAR>
0

>  <SCORE.INTER.ROT>
4

>  <SCORE.INTER.SOLV>
22.6348

>  <SCORE.INTER.VDW>
-24.9874

>  <SCORE.INTER.norm>
-0.698486

>  <SCORE.INTRA>
-6.16555

>  <SCORE.INTRA.DIHEDRAL>
-11.8342

>  <SCORE.INTRA.DIHEDRAL.0>
13.2525

>  <SCORE.INTRA.POLAR>
0

>  <SCORE.INTRA.POLAR.0>
0

>  <SCORE.INTRA.REPUL>
0

>  <SCORE.INTRA.REPUL.0>
0

>  <SCORE.INTRA.SOLV>
0.00868761

>  <SCORE.INTRA.SOLV.lig_0>
-70.7221

>  <SCORE.INTRA.VDW>
-0.252817

>  <SCORE.INTRA.VDW.0>
-1.46337

>  <SCORE.INTRA.norm>
-0.256898

>  <SCORE.RESTR>
0

>  <SCORE.RESTR.CAVITY>
0

>  <SCORE.RESTR.norm>
0

>  <SCORE.SYSTEM>
0

>  <SCORE.SYSTEM.CONST>
0

>  <SCORE.SYSTEM.DIHEDRAL>
0

>  <SCORE.SYSTEM.SOLV>
0

>  <SCORE.SYSTEM.norm>
0

>  <SCORE.heavy>
24

>  <SCORE.norm>
-0.955384

>  <RMSD>
1.512

$$$$
ligand
 OpenBabel11021811483D
libRbt.so/2013.1/901 2013/11/27
 24 26  0  0  0  0  0  0  0  0999 V2000
   -8.6983   -6.6332   13.9281 P   0  0  1  0  0  0  0  0  0  0  0  0
   -9.7887   -5.9143   14.6935 O   0  0  0  0  0  0  0  0  0  0  0  0
   -7.7964   -7.5366   14.7356 O   0  5  0  0  0  0  0  0  0  0  0  0
   -9.1728   -7.2796   12.6351 O   0  0  0  0  0  0  0  0  0  0  0  0
   -6.5283   -5.6337   12.6609 C   0  0  0  0  0  0  0  0  0  0  0  0
   -7.6629   -5.4488   13.5250 O   0  0  0  0  0  0  0  0  0  0  0  0
   -7.0018   -5.8851   11.2262 C   0  0  1  0  0  0  0  0  0  0  0  0
   -6.9731   -4.6894   10.4367 O   0  0  0  0  0  0  0  0  0  0  0  0
   -6.1838   -6.9062   10.4542 C   0  0  1  0  0  0  0  0  0  0  0  0
   -6.7594   -8.2018   10.6465 O   0  0  0  0  0  0  0  0  0  0  0  0
   -6.3187   -6.4450    9.0122 C   0  0  1  0  0  0  0  0  0  0  0  0
   -7.5501   -6.9165    8.4468 O   0  0  0  0  0  0  0  0  0  0  0  0
   -6.4607   -4.9399    9.1221 C   0  0  2  0  0  0  0  0  0  0  0  0
   -4.2880   -0.3609    9.7299 N   0  0  0  0  0  0  0  0  0  0  0  0
   -5.5888   -0.7158    9.8368 C   0  0  1  0  0  0  0  0  0  0  0  0
   -6.5056    0.2260   10.1547 N   0  0  0  0  0  0  0  0  0  0  0  0
   -5.9809   -1.9947    9.6300 N   0  0  0  0  0  0  0  0  0  0  0  0
   -5.0579   -2.9334    9.3112 C   0  0  1  0  0  0  0  0  0  0  0  0
   -3.7232   -2.5988    9.1938 C   0  0  2  0  0  0  0  0  0  0  0  0
   -3.3464   -1.2788    9.4120 C   0  0  0  0  0  0  0  0  0  0  0  0
   -2.1520   -0.9340    9.3161 O   0  0  0  0  0  0  0  0  0  0  0  0
   -3.0564   -3.7246    8.8664 N   0  0  0  0  0  0  0  0  0  0  0  0
   -3.9582   -4.7311    8.7913 C   0  0  0  0  0  0  0  0  0  0  0  0
   -5.1678   -4.2324    9.0658 N   0  0  1  0  0  0  0  0  0  0  0  0
  1  2  1  1  0  0  0
  1  3  1  0  0  0  0
  1  4  2  0  0  0  0
  1  6  1  0  0  0  0
  5  6  1  0  0  0  0
  7  5  1  1  0  0  0
  7  8  1  0  0  0  0
  7  9  1  0  0  0  0
  9 10  1  6  0  0  0
  9 11  1  0  0  0  0
 11 12  1  1  0  0  0
 11 13  1  0  0  0  0
 13  8  1  1  0  0  0
 13 24  1  0  0  0  0
 14 15  1  0  0  0  0
 14 20  1  0  0  0  0
 15 16  1  6  0  0  0
 15 17  1  0  0  0  0
 18 17  1  1  0  0  0
 18 19  1  0  0  0  0
 18 24  1  0  0  0  0
 19 20  1  6  0  0  0
 19 22  1  0  0  0  0
 20 21  2  0  0  0  0
 22 23  1  0  0  0  0
 24 23  1  1  0  0  0
M  CHG  1   3  -1
M  END
>  <CHROM.1>
-173.21436277,97.42439023,69.42060728,-56.21710697,-6.29340174,-4.61326354
10.87363959,2.73122711,-0.93219084,-2.72345578

>  <Name>
ligand

>  <RI>
0

>  <Rbt.Current_Directory>
/home/itssahil/PROJECTS/Mol_Feturizer/New_Systems/rnas/3SLQ

>  <Rbt.Executable>
rbdock ($Id: //depot/dev/client3/rdock/2013.1/src/exe/rbdock.cxx#4 $)

>  <Rbt.Library>
libRbt.so (2013.1, Build901 2013/11/27)

>  <Rbt.Parameter_File>
/export/apps/rDock/src/rDock_2013.1_src/data/scripts/dock_solv.prm

>  <Rbt.Receptor>
prm/pocket_docking_3.prm

>  <SCORE>
-20.8094

>  <SCORE.INTER>
-18.0987

>  <SCORE.INTER.CONST>
1

>  <SCORE.INTER.POLAR>
0

>  <SCORE.INTER.ROT>
4

>  <SCORE.INTER.SOLV>
19.9704

>  <SCORE.INTER.VDW>
-24.9892

>  <SCORE.INTER.norm>
-0.754112

>  <SCORE.INTRA>
-2.7107

>  <SCORE.INTRA.DIHEDRAL>
-7.90445

>  <SCORE.INTRA.DIHEDRAL.0>
13.2525

>  <SCORE.INTRA.POLAR>
0

>  <SCORE.INTRA.POLAR.0>
0

>  <SCORE.INTRA.REPUL>
0

>  <SCORE.INTRA.REPUL.0>
0

>  <SCORE.INTRA.SOLV>
3.53682

>  <SCORE.INTRA.SOLV.lig_0>
-70.7221

>  <SCORE.INTRA.VDW>
-0.52689

>  <SCORE.INTRA.VDW.0>
-1.46337

>  <SCORE.INTRA.norm>
-0.112946

>  <SCORE.RESTR>
0

>  <SCORE.RESTR.CAVITY>
0

>  <SCORE.RESTR.norm>
0

>  <SCORE.SYSTEM>
0

>  <SCORE.SYSTEM.CONST>
0

>  <SCORE.SYSTEM.DIHEDRAL>
0

>  <SCORE.SYSTEM.SOLV>
0

>  <SCORE.SYSTEM.norm>
0

>  <SCORE.heavy>
24

>  <SCORE.norm>
-0.867058

>  <RMSD>
1.518

$$$$
ligand
 OpenBabel11021811483D
libRbt.so/2013.1/901 2013/11/27
 24 26  0  0  0  0  0  0  0  0999 V2000
   -4.5913   -8.0726   14.2582 P   0  0  1  0  0  0  0  0  0  0  0  0
   -4.6732   -9.5682   14.0390 O   0  0  0  0  0  0  0  0  0  0  0  0
   -5.2166   -7.5460   15.5284 O   0  5  0  0  0  0  0  0  0  0  0  0
   -3.2144   -7.4827   13.9924 O   0  0  0  0  0  0  0  0  0  0  0  0
   -5.4927   -7.7192   11.7331 C   0  0  0  0  0  0  0  0  0  0  0  0
   -5.6024   -7.4620   13.1438 O   0  0  0  0  0  0  0  0  0  0  0  0
   -6.6302   -7.0169   10.9857 C   0  0  1  0  0  0  0  0  0  0  0  0
   -6.5470   -5.5910   11.1040 O   0  0  0  0  0  0  0  0  0  0  0  0
   -6.6855   -7.3023    9.4946 C   0  0  1  0  0  0  0  0  0  0  0  0
   -7.5245   -8.4394    9.2716 O   0  0  0  0  0  0  0  0  0  0  0  0
   -7.2980   -6.0362    8.9183 C   0  0  1  0  0  0  0  0  0  0  0  0
   -8.7273   -6.0700    9.0377 O   0  0  0  0  0  0  0  0  0  0  0  0
   -6.8276   -4.9430    9.8571 C   0  0  2  0  0  0  0  0  0  0  0  0
   -4.4074   -0.4734    9.3868 N   0  0  0  0  0  0  0  0  0  0  0  0
   -5.6668   -0.7283    9.8091 C   0  0  1  0  0  0  0  0  0  0  0  0
   -6.4581    0.3021   10.1842 N   0  0  0  0  0  0  0  0  0  0  0  0
   -6.1412   -1.9950    9.8597 N   0  0  0  0  0  0  0  0  0  0  0  0
   -5.3439   -3.0228    9.4820 C   0  0  1  0  0  0  0  0  0  0  0  0
   -4.0544   -2.7915    9.0451 C   0  0  2  0  0  0  0  0  0  0  0  0
   -3.5910   -1.4817    9.0033 C   0  0  0  0  0  0  0  0  0  0  0  0
   -2.4334   -1.2285    8.6151 O   0  0  0  0  0  0  0  0  0  0  0  0
   -3.5160   -3.9891    8.7373 N   0  0  0  0  0  0  0  0  0  0  0  0
   -4.4493   -4.9372    8.9860 C   0  0  0  0  0  0  0  0  0  0  0  0
   -5.5521   -4.3322    9.4389 N   0  0  1  0  0  0  0  0  0  0  0  0
  1  2  1  6  0  0  0
  1  3  1  0  0  0  0
  1  4  2  0  0  0  0
  1  6  1  0  0  0  0
  5  6  1  0  0  0  0
  7  5  1  6  0  0  0
  7  8  1  0  0  0  0
  7  9  1  0  0  0  0
  9 10  1  1  0  0  0
  9 11  1  0  0  0  0
 11 12  1  1  0  0  0
 11 13  1  0  0  0  0
 13  8  1  1  0  0  0
 13 24  1  0  0  0  0
 14 15  1  0  0  0  0
 14 20  1  0  0  0  0
 15 16  1  6  0  0  0
 15 17  1  0  0  0  0
 18 17  1  1  0  0  0
 18 19  1  0  0  0  0
 18 24  1  0  0  0  0
 19 20  1  6  0  0  0
 19 22  1  0  0  0  0
 20 21  2  0  0  0  0
 22 23  1  0  0  0  0
 24 23  1  1  0  0  0
M  CHG  1   3  -1
M  END
>  <CHROM.1>
-56.23917434,64.09094575,178.48555173,-107.55194695,-5.41233465,-5.19323944
10.85755674,-1.64073291,-0.77320721,-0.62326254

>  <Name>
ligand

>  <RI>
0

>  <Rbt.Current_Directory>
/home/itssahil/PROJECTS/Mol_Feturizer/New_Systems/rnas/3SLQ

>  <Rbt.Executable>
rbdock ($Id: //depot/dev/client3/rdock/2013.1/src/exe/rbdock.cxx#4 $)

>  <Rbt.Library>
libRbt.so (2013.1, Build901 2013/11/27)

>  <Rbt.Parameter_File>
/export/apps/rDock/src/rDock_2013.1_src/data/scripts/dock_solv.prm

>  <Rbt.Receptor>
prm/pocket_docking_8.prm

>  <SCORE>
-20.1479

>  <SCORE.INTER>
-13.7402

>  <SCORE.INTER.CONST>
1

>  <SCORE.INTER.POLAR>
0

>  <SCORE.INTER.ROT>
4

>  <SCORE.INTER.SOLV>
25.8313

>  <SCORE.INTER.VDW>
-24.0372

>  <SCORE.INTER.norm>
-0.572508

>  <SCORE.INTRA>
-6.40769

>  <SCORE.INTRA.DIHEDRAL>
-11.9681

>  <SCORE.INTRA.DIHEDRAL.0>
13.2525

>  <SCORE.INTRA.POLAR>
0

>  <SCORE.INTRA.POLAR.0>
0

>  <SCORE.INTRA.REPUL>
0

>  <SCORE.INTRA.REPUL.0>
0

>  <SCORE.INTRA.SOLV>
-0.189455

>  <SCORE.INTRA.SOLV.lig_0>
-70.7221

>  <SCORE.INTRA.VDW>
-0.328899

>  <SCORE.INTRA.VDW.0>
-1.46337

>  <SCORE.INTRA.norm>
-0.266987

>  <SCORE.RESTR>
0

>  <SCORE.RESTR.CAVITY>
0

>  <SCORE.RESTR.norm>
0

>  <SCORE.SYSTEM>
0

>  <SCORE.SYSTEM.CONST>
0

>  <SCORE.SYSTEM.DIHEDRAL>
0

>  <SCORE.SYSTEM.SOLV>
0

>  <SCORE.SYSTEM.norm>
0

>  <SCORE.heavy>
24

>  <SCORE.norm>
-0.839495

>  <RMSD>
1.532

$$$$
ligand
 OpenBabel11021811483D
libRbt.so/2013.1/901 2013/11/27
 24 26  0  0  0  0  0  0  0  0999 V2000
   -8.8121   -6.5627   13.8813 P   0  0  1  0  0  0  0  0  0  0  0  0
   -9.2385   -7.0720   12.5210 O   0  0  0  0  0  0  0  0  0  0  0  0
   -9.8845   -5.9046   14.7171 O   0  5  0  0  0  0  0  0  0  0  0  0
   -7.9706   -7.5501   14.6760 O   0  0  0  0  0  0  0  0  0  0  0  0
   -6.7019   -5.3549   12.6972 C   0  0  0  0  0  0  0  0  0  0  0  0
   -7.8665   -5.2878   13.5383 O   0  0  0  0  0  0  0  0  0  0  0  0
   -7.1133   -5.7115   11.2657 C   0  0  1  0  0  0  0  0  0  0  0  0
   -7.0490   -4.5767   10.3927 O   0  0  0  0  0  0  0  0  0  0  0  0
   -6.2639   -6.7848   10.6065 C   0  0  1  0  0  0  0  0  0  0  0  0
   -6.8489   -8.0639   10.8681 O   0  0  0  0  0  0  0  0  0  0  0  0
   -6.3358   -6.4306    9.1302 C   0  0  1  0  0  0  0  0  0  0  0  0
   -7.5421   -6.9446    8.5481 O   0  0  0  0  0  0  0  0  0  0  0  0
   -6.4805   -4.9217    9.1234 C   0  0  2  0  0  0  0  0  0  0  0  0
   -4.2954   -0.3514    9.7512 N   0  0  0  0  0  0  0  0  0  0  0  0
   -5.5974   -0.7029    9.8550 C   0  0  1  0  0  0  0  0  0  0  0  0
   -6.5118    0.2404   10.1753 N   0  0  0  0  0  0  0  0  0  0  0  0
   -5.9929   -1.9799    9.6430 N   0  0  0  0  0  0  0  0  0  0  0  0
   -5.0722   -2.9201    9.3218 C   0  0  1  0  0  0  0  0  0  0  0  0
   -3.7363   -2.5889    9.2074 C   0  0  2  0  0  0  0  0  0  0  0  0
   -3.3560   -1.2708    9.4310 C   0  0  0  0  0  0  0  0  0  0  0  0
   -2.1605   -0.9291    9.3379 O   0  0  0  0  0  0  0  0  0  0  0  0
   -3.0724   -3.7153    8.8766 N   0  0  0  0  0  0  0  0  0  0  0  0
   -3.9770   -4.7189    8.7965 C   0  0  0  0  0  0  0  0  0  0  0  0
   -5.1855   -4.2178    9.0714 N   0  0  1  0  0  0  0  0  0  0  0  0
  1  2  1  6  0  0  0
  1  3  1  0  0  0  0
  1  4  2  0  0  0  0
  1  6  1  0  0  0  0
  5  6  1  0  0  0  0
  7  5  1  1  0  0  0
  7  8  1  0  0  0  0
  7  9  1  0  0  0  0
  9 10  1  6  0  0  0
  9 11  1  0  0  0  0
 11 12  1  1  0  0  0
 11 13  1  0  0  0  0
 13  8  1  1  0  0  0
 13 24  1  0  0  0  0
 14 15  1  0  0  0  0
 14 20  1  0  0  0  0
 15 16  1  6  0  0  0
 15 17  1  0  0  0  0
 18 17  1  1  0  0  0
 18 19  1  0  0  0  0
 18 24  1  0  0  0  0
 19 20  1  6  0  0  0
 19 22  1  0  0  0  0
 20 21  2  0  0  0  0
 22 23  1  0  0  0  0
 24 23  1  1  0  0  0
M  CHG  1   3  -1
M  END
>  <CHROM.1>
-56.36686767,105.20346017,64.84045282,-51.18643331,-6.35483814,-4.55305583
10.89481151,2.72149698,-0.90785314,-2.74939377

>  <Name>
ligand

>  <RI>
0

>  <Rbt.Current_Directory>
/home/itssahil/PROJECTS/Mol_Feturizer/New_Systems/rnas/3SLQ

>  <Rbt.Executable>
rbdock ($Id: //depot/dev/client3/rdock/2013.1/src/exe/rbdock.cxx#4 $)

>  <Rbt.Library>
libRbt.so (2013.1, Build901 2013/11/27)

>  <Rbt.Parameter_File>
/export/apps/rDock/src/rDock_2013.1_src/data/scripts/dock_solv.prm

>  <Rbt.Receptor>
prm/pocket_docking_4.prm

>  <SCORE>
-20.5298

>  <SCORE.INTER>
-17.1425

>  <SCORE.INTER.CONST>
1

>  <SCORE.INTER.POLAR>
0

>  <SCORE.INTER.ROT>
4

>  <SCORE.INTER.SOLV>
22.9565

>  <SCORE.INTER.VDW>
-25.3472

>  <SCORE.INTER.norm>
-0.714272

>  <SCORE.INTRA>
-3.38732

>  <SCORE.INTRA.DIHEDRAL>
-7.38104

>  <SCORE.INTRA.DIHEDRAL.0>
13.2525

>  <SCORE.INTRA.POLAR>
0

>  <SCORE.INTRA.POLAR.0>
0

>  <SCORE.INTRA.REPUL>
0

>  <SCORE.INTRA.REPUL.0>
0

>  <SCORE.INTRA.SOLV>
1.53454

>  <SCORE.INTRA.SOLV.lig_0>
-70.7221

>  <SCORE.INTRA.VDW>
-0.464075

>  <SCORE.INTRA.VDW.0>
-1.46337

>  <SCORE.INTRA.norm>
-0.141139

>  <SCORE.RESTR>
0

>  <SCORE.RESTR.CAVITY>
0

>  <SCORE.RESTR.norm>
0

>  <SCORE.SYSTEM>
0

>  <SCORE.SYSTEM.CONST>
0

>  <SCORE.SYSTEM.DIHEDRAL>
0

>  <SCORE.SYSTEM.SOLV>
0

>  <SCORE.SYSTEM.norm>
0

>  <SCORE.heavy>
24

>  <SCORE.norm>
-0.85541

>  <RMSD>
1.695

$$$$
ligand
 OpenBabel11021811483D
libRbt.so/2013.1/901 2013/11/27
 24 26  0  0  0  0  0  0  0  0999 V2000
   -8.7337   -6.5436   13.8887 P   0  0  1  0  0  0  0  0  0  0  0  0
   -9.1362   -7.0942   12.5373 O   0  0  0  0  0  0  0  0  0  0  0  0
   -9.8355   -5.9225   14.7146 O   0  5  0  0  0  0  0  0  0  0  0  0
   -7.8471   -7.4777   14.6986 O   0  0  0  0  0  0  0  0  0  0  0  0
   -6.6873   -5.2568   12.6763 C   0  0  0  0  0  0  0  0  0  0  0  0
   -7.8485   -5.2318   13.5243 O   0  0  0  0  0  0  0  0  0  0  0  0
   -7.0921   -5.6411   11.2500 C   0  0  1  0  0  0  0  0  0  0  0  0
   -7.0185   -4.5246   10.3544 O   0  0  0  0  0  0  0  0  0  0  0  0
   -6.2434   -6.7309   10.6178 C   0  0  1  0  0  0  0  0  0  0  0  0
   -6.8350   -8.0021   10.9022 O   0  0  0  0  0  0  0  0  0  0  0  0
   -6.3057   -6.4068    9.1341 C   0  0  1  0  0  0  0  0  0  0  0  0
   -7.5109   -6.9279    8.5559 O   0  0  0  0  0  0  0  0  0  0  0  0
   -6.4443   -4.8978    9.0956 C   0  0  2  0  0  0  0  0  0  0  0  0
   -4.2367   -0.3342    9.6929 N   0  0  0  0  0  0  0  0  0  0  0  0
   -5.5400   -0.6792    9.8020 C   0  0  1  0  0  0  0  0  0  0  0  0
   -6.4493    0.2700   10.1194 N   0  0  0  0  0  0  0  0  0  0  0  0
   -5.9419   -1.9555    9.5979 N   0  0  0  0  0  0  0  0  0  0  0  0
   -5.0264   -2.9016    9.2796 C   0  0  1  0  0  0  0  0  0  0  0  0
   -3.6893   -2.5772    9.1599 C   0  0  2  0  0  0  0  0  0  0  0  0
   -3.3024   -1.2597    9.3754 C   0  0  0  0  0  0  0  0  0  0  0  0
   -2.1056   -0.9240    9.2774 O   0  0  0  0  0  0  0  0  0  0  0  0
   -3.0314   -3.7085    8.8336 N   0  0  0  0  0  0  0  0  0  0  0  0
   -3.9408   -4.7083    8.7613 C   0  0  0  0  0  0  0  0  0  0  0  0
   -5.1463   -4.2002    9.0365 N   0  0  1  0  0  0  0  0  0  0  0  0
  1  2  1  6  0  0  0
  1  3  1  0  0  0  0
  1  4  2  0  0  0  0
  1  6  1  0  0  0  0
  5  6  1  0  0  0  0
  7  5  1  1  0  0  0
  7  8  1  0  0  0  0
  7  9  1  0  0  0  0
  9 10  1  6  0  0  0
  9 11  1  0  0  0  0
 11 12  1  1  0  0  0
 11 13  1  0  0  0  0
 13  8  1  1  0  0  0
 13 24  1  0  0  0  0
 14 15  1  0  0  0  0
 14 20  1  0  0  0  0
 15 16  1  6  0  0  0
 15 17  1  0  0  0  0
 18 17  1  1  0  0  0
 18 19  1  0  0  0  0
 18 24  1  0  0  0  0
 19 20  1  6  0  0  0
 19 22  1  0  0  0  0
 20 21  2  0  0  0  0
 22 23  1  0  0  0  0
 24 23  1  1  0  0  0
M  CHG  1   3  -1
M  END
>  <CHROM.1>
-55.93969734,107.99819736,65.16617461,-50.20783478,-6.30633363,-4.52478643
10.87479984,2.73159919,-0.91515408,-2.74409491

>  <Name>
ligand

>  <RI>
0

>  <Rbt.Current_Directory>
/home/itssahil/PROJECTS/Mol_Feturizer/New_Systems/rnas/3SLQ

>  <Rbt.Executable>
rbdock ($Id: //depot/dev/client3/rdock/2013.1/src/exe/rbdock.cxx#4 $)

>  <Rbt.Library>
libRbt.so (2013.1, Build901 2013/11/27)

>  <Rbt.Parameter_File>
/export/apps/rDock/src/rDock_2013.1_src/data/scripts/dock_solv.prm

>  <Rbt.Receptor>
prm/pocket_docking_3.prm

>  <SCORE>
-20.5164

>  <SCORE.INTER>
-17.284

>  <SCORE.INTER.CONST>
1

>  <SCORE.INTER.POLAR>
0

>  <SCORE.INTER.ROT>
4

>  <SCORE.INTER.SOLV>
23.0793

>  <SCORE.INTER.VDW>
-25.4825

>  <SCORE.INTER.norm>
-0.720168

>  <SCORE.INTRA>
-3.23235

>  <SCORE.INTRA.DIHEDRAL>
-7.10937

>  <SCORE.INTRA.DIHEDRAL.0>
13.2525

>  <SCORE.INTRA.POLAR>
0

>  <SCORE.INTRA.POLAR.0>
0

>  <SCORE.INTRA.REPUL>
0

>  <SCORE.INTRA.REPUL.0>
0

>  <SCORE.INTRA.SOLV>
1.60219

>  <SCORE.INTRA.SOLV.lig_0>
-70.7221

>  <SCORE.INTRA.VDW>
-0.478761

>  <SCORE.INTRA.VDW.0>
-1.46337

>  <SCORE.INTRA.norm>
-0.134681

>  <SCORE.RESTR>
0

>  <SCORE.RESTR.CAVITY>
0

>  <SCORE.RESTR.norm>
0

>  <SCORE.SYSTEM>
0

>  <SCORE.SYSTEM.CONST>
0

>  <SCORE.SYSTEM.DIHEDRAL>
0

>  <SCORE.SYSTEM.SOLV>
0

>  <SCORE.SYSTEM.norm>
0

>  <SCORE.heavy>
24

>  <SCORE.norm>
-0.85485

>  <RMSD>
1.706

$$$$
ligand
 OpenBabel11021811483D
libRbt.so/2013.1/901 2013/11/27
 24 26  0  0  0  0  0  0  0  0999 V2000
   -6.7043   -8.3743   12.5535 P   0  0  1  0  0  0  0  0  0  0  0  0
   -5.5546   -7.4765   12.9579 O   0  0  0  0  0  0  0  0  0  0  0  0
   -6.7551   -8.7852   11.1008 O   0  5  0  0  0  0  0  0  0  0  0  0
   -6.9436   -9.5391   13.5026 O   0  0  0  0  0  0  0  0  0  0  0  0
   -7.9798   -6.0002   12.3291 C   0  0  0  0  0  0  0  0  0  0  0  0
   -8.0032   -7.4036   12.6421 O   0  0  0  0  0  0  0  0  0  0  0  0
   -8.5899   -5.7653   10.9440 C   0  0  1  0  0  0  0  0  0  0  0  0
   -8.4640   -4.3992   10.5293 O   0  0  0  0  0  0  0  0  0  0  0  0
   -7.9744   -6.5913    9.8275 C   0  0  1  0  0  0  0  0  0  0  0  0
   -8.6993   -7.8188    9.7059 O   0  0  0  0  0  0  0  0  0  0  0  0
   -8.1565   -5.7128    8.6006 C   0  0  1  0  0  0  0  0  0  0  0  0
   -9.4786   -5.8655    8.0649 O   0  0  0  0  0  0  0  0  0  0  0  0
   -8.0903   -4.3013    9.1494 C   0  0  2  0  0  0  0  0  0  0  0  0
   -5.4228   -0.0349   10.0089 N   0  0  0  0  0  0  0  0  0  0  0  0
   -6.7583   -0.2405   10.0708 C   0  0  1  0  0  0  0  0  0  0  0  0
   -7.5690    0.7873   10.4099 N   0  0  0  0  0  0  0  0  0  0  0  0
   -7.2891   -1.4555    9.7986 N   0  0  0  0  0  0  0  0  0  0  0  0
   -6.4718   -2.4809    9.4589 C   0  0  1  0  0  0  0  0  0  0  0  0
   -5.1047   -2.2990    9.3863 C   0  0  2  0  0  0  0  0  0  0  0  0
   -4.5847   -1.0419    9.6715 C   0  0  0  0  0  0  0  0  0  0  0  0
   -3.3564   -0.8343    9.6176 O   0  0  0  0  0  0  0  0  0  0  0  0
   -4.5632   -3.4798    9.0240 N   0  0  0  0  0  0  0  0  0  0  0  0
   -5.5724   -4.3708    8.8840 C   0  0  0  0  0  0  0  0  0  0  0  0
   -6.7236   -3.7470    9.1535 N   0  0  1  0  0  0  0  0  0  0  0  0
  1  2  1  1  0  0  0
  1  3  1  0  0  0  0
  1  4  2  0  0  0  0
  1  6  1  0  0  0  0
  5  6  1  0  0  0  0
  7  5  1  1  0  0  0
  7  8  1  0  0  0  0
  7  9  1  0  0  0  0
  9 10  1  6  0  0  0
  9 11  1  0  0  0  0
 11 12  1  1  0  0  0
 11 13  1  0  0  0  0
 13  8  1  1  0  0  0
 13 24  1  0  0  0  0
 14 15  1  0  0  0  0
 14 20  1  0  0  0  0
 15 16  1  6  0  0  0
 15 17  1  0  0  0  0
 18 17  1  1  0  0  0
 18 19  1  0  0  0  0
 18 24  1  0  0  0  0
 19 20  1  6  0  0  0
 19 22  1  0  0  0  0
 20 21  2  0  0  0  0
 22 23  1  0  0  0  0
 24 23  1  1  0  0  0
M  CHG  1   3  -1
M  END
>  <CHROM.1>
34.22710462,-174.01030623,102.66476743,-72.22460772,-6.89034673,-4.80093698
10.47752847,-1.82012272,-0.58070899,-0.45149118

>  <Name>
ligand

>  <RI>
0

>  <Rbt.Current_Directory>
/home/itssahil/PROJECTS/Mol_Feturizer/New_Systems/rnas/3SLQ

>  <Rbt.Executable>
rbdock ($Id: //depot/dev/client3/rdock/2013.1/src/exe/rbdock.cxx#4 $)

>  <Rbt.Library>
libRbt.so (2013.1, Build901 2013/11/27)

>  <Rbt.Parameter_File>
/export/apps/rDock/src/rDock_2013.1_src/data/scripts/dock_solv.prm

>  <Rbt.Receptor>
prm/pocket_docking_2.prm

>  <SCORE>
-11.1956

>  <SCORE.INTER>
-10.2195

>  <SCORE.INTER.CONST>
1

>  <SCORE.INTER.POLAR>
0

>  <SCORE.INTER.ROT>
4

>  <SCORE.INTER.SOLV>
20.859

>  <SCORE.INTER.VDW>
-20.0327

>  <SCORE.INTER.norm>
-0.425812

>  <SCORE.INTRA>
-1.00391

>  <SCORE.INTRA.DIHEDRAL>
-5.18795

>  <SCORE.INTRA.DIHEDRAL.0>
13.2525

>  <SCORE.INTRA.POLAR>
0

>  <SCORE.INTRA.POLAR.0>
0

>  <SCORE.INTRA.REPUL>
0

>  <SCORE.INTRA.REPUL.0>
0

>  <SCORE.INTRA.SOLV>
3.46457

>  <SCORE.INTRA.SOLV.lig_0>
-70.7221

>  <SCORE.INTRA.VDW>
-0.142221

>  <SCORE.INTRA.VDW.0>
-1.46337

>  <SCORE.INTRA.norm>
-0.0418296

>  <SCORE.RESTR>
0.0278208

>  <SCORE.RESTR.CAVITY>
0.0278208

>  <SCORE.RESTR.norm>
0.0011592

>  <SCORE.SYSTEM>
0

>  <SCORE.SYSTEM.CONST>
0

>  <SCORE.SYSTEM.DIHEDRAL>
0

>  <SCORE.SYSTEM.SOLV>
0

>  <SCORE.SYSTEM.norm>
0

>  <SCORE.heavy>
24

>  <SCORE.norm>
-0.466483

>  <RMSD>
1.731

$$$$
ligand
 OpenBabel11021811483D
libRbt.so/2013.1/901 2013/11/27
 24 26  0  0  0  0  0  0  0  0999 V2000
   -6.3128   -6.8139   13.4587 P   0  0  1  0  0  0  0  0  0  0  0  0
   -6.8304   -6.0264   14.6434 O   0  0  0  0  0  0  0  0  0  0  0  0
   -4.9052   -6.5008   13.0090 O   0  5  0  0  0  0  0  0  0  0  0  0
   -6.5844   -8.3085   13.5427 O   0  0  0  0  0  0  0  0  0  0  0  0
   -8.5972   -6.0638   12.2207 C   0  0  0  0  0  0  0  0  0  0  0  0
   -7.1695   -6.2364   12.2058 O   0  0  0  0  0  0  0  0  0  0  0  0
   -9.0939   -5.7121   10.8153 C   0  0  1  0  0  0  0  0  0  0  0  0
   -8.6654   -4.4064   10.4082 O   0  0  0  0  0  0  0  0  0  0  0  0
   -8.6294   -6.6564    9.7197 C   0  0  1  0  0  0  0  0  0  0  0  0
   -9.5943   -7.7020    9.5697 O   0  0  0  0  0  0  0  0  0  0  0  0
   -8.5768   -5.7660    8.4890 C   0  0  1  0  0  0  0  0  0  0  0  0
   -9.8813   -5.6366    7.9060 O   0  0  0  0  0  0  0  0  0  0  0  0
   -8.2309   -4.3980    9.0427 C   0  0  2  0  0  0  0  0  0  0  0  0
   -4.7489   -0.7411    9.7910 N   0  0  0  0  0  0  0  0  0  0  0  0
   -6.0986   -0.6536    9.7821 C   0  0  1  0  0  0  0  0  0  0  0  0
   -6.6834    0.5455   10.0027 N   0  0  0  0  0  0  0  0  0  0  0  0
   -6.8658   -1.7456    9.5561 N   0  0  0  0  0  0  0  0  0  0  0  0
   -6.2740   -2.9439    9.3352 C   0  0  1  0  0  0  0  0  0  0  0  0
   -4.8981   -3.0620    9.3369 C   0  0  2  0  0  0  0  0  0  0  0  0
   -4.1330   -1.9257    9.5724 C   0  0  0  0  0  0  0  0  0  0  0  0
   -2.8877   -1.9880    9.5824 O   0  0  0  0  0  0  0  0  0  0  0  0
   -4.6078   -4.3550    9.0861 N   0  0  0  0  0  0  0  0  0  0  0  0
   -5.7778   -5.0198    8.9409 C   0  0  0  0  0  0  0  0  0  0  0  0
   -6.7786   -4.1474    9.0968 N   0  0  1  0  0  0  0  0  0  0  0  0
  1  2  1  1  0  0  0
  1  3  1  0  0  0  0
  1  4  2  0  0  0  0
  1  6  1  0  0  0  0
  5  6  1  0  0  0  0
  7  5  1  1  0  0  0
  7  8  1  0  0  0  0
  7  9  1  0  0  0  0
  9 10  1  6  0  0  0
  9 11  1  0  0  0  0
 11 12  1  1  0  0  0
 11 13  1  0  0  0  0
 13  8  1  1  0  0  0
 13 24  1  0  0  0  0
 14 15  1  0  0  0  0
 14 20  1  0  0  0  0
 15 16  1  6  0  0  0
 15 17  1  0  0  0  0
 18 17  1  1  0  0  0
 18 19  1  0  0  0  0
 18 24  1  0  0  0  0
 19 20  1  6  0  0  0
 19 22  1  0  0  0  0
 20 21  2  0  0  0  0
 22 23  1  0  0  0  0
 24 23  1  1  0  0  0
M  CHG  1   3  -1
M  END
>  <CHROM.1>
-47.62015737,-68.68312077,-171.15500554,-76.35151450,-6.79185976,-4.64017788
10.60816549,-2.01921475,-0.64238383,-0.76357012

>  <Name>
ligand

>  <RI>
0

>  <Rbt.Current_Directory>
/home/itssahil/PROJECTS/Mol_Feturizer/New_Systems/rnas/3SLQ

>  <Rbt.Executable>
rbdock ($Id: //depot/dev/client3/rdock/2013.1/src/exe/rbdock.cxx#4 $)

>  <Rbt.Library>
libRbt.so (2013.1, Build901 2013/11/27)

>  <Rbt.Parameter_File>
/export/apps/rDock/src/rDock_2013.1_src/data/scripts/dock_solv.prm

>  <Rbt.Receptor>
prm/pocket_docking_2.prm

>  <SCORE>
-16.5141

>  <SCORE.INTER>
-10.7516

>  <SCORE.INTER.CONST>
1

>  <SCORE.INTER.POLAR>
0

>  <SCORE.INTER.ROT>
4

>  <SCORE.INTER.SOLV>
23.5819

>  <SCORE.INTER.VDW>
-21.295

>  <SCORE.INTER.norm>
-0.447982

>  <SCORE.INTRA>
-6.11859

>  <SCORE.INTRA.DIHEDRAL>
-11.1724

>  <SCORE.INTRA.DIHEDRAL.0>
13.2525

>  <SCORE.INTRA.POLAR>
0

>  <SCORE.INTRA.POLAR.0>
0

>  <SCORE.INTRA.REPUL>
0

>  <SCORE.INTRA.REPUL.0>
0

>  <SCORE.INTRA.SOLV>
-0.0109337

>  <SCORE.INTRA.SOLV.lig_0>
-70.7221

>  <SCORE.INTRA.VDW>
-0.526924

>  <SCORE.INTRA.VDW.0>
-1.46337

>  <SCORE.INTRA.norm>
-0.254941

>  <SCORE.RESTR>
0.356094

>  <SCORE.RESTR.CAVITY>
0.356094

>  <SCORE.RESTR.norm>
0.0148372

>  <SCORE.SYSTEM>
0

>  <SCORE.SYSTEM.CONST>
0

>  <SCORE.SYSTEM.DIHEDRAL>
0

>  <SCORE.SYSTEM.SOLV>
0

>  <SCORE.SYSTEM.norm>
0

>  <SCORE.heavy>
24

>  <SCORE.norm>
-0.688086

>  <RMSD>
1.738

$$$$
ligand
 OpenBabel11021811483D
libRbt.so/2013.1/901 2013/11/27
 24 26  0  0  0  0  0  0  0  0999 V2000
   -5.7908   -7.9156   12.7184 P   0  0  1  0  0  0  0  0  0  0  0  0
   -4.5645   -7.1993   13.2423 O   0  0  0  0  0  0  0  0  0  0  0  0
   -5.8828   -9.3934   13.0175 O   0  5  0  0  0  0  0  0  0  0  0  0
   -7.0965   -7.1802   12.9808 O   0  0  0  0  0  0  0  0  0  0  0  0
   -6.5957   -8.2678   10.1607 C   0  0  0  0  0  0  0  0  0  0  0  0
   -5.5658   -7.9428   11.1103 O   0  0  0  0  0  0  0  0  0  0  0  0
   -7.5919   -7.1092   10.0559 C   0  0  1  0  0  0  0  0  0  0  0  0
   -7.1107   -5.9297   10.7126 O   0  0  0  0  0  0  0  0  0  0  0  0
   -7.9259   -6.6815    8.6370 C   0  0  1  0  0  0  0  0  0  0  0  0
   -9.0636   -7.4222    8.1857 O   0  0  0  0  0  0  0  0  0  0  0  0
   -8.2460   -5.2028    8.7832 C   0  0  1  0  0  0  0  0  0  0  0  0
   -9.6008   -5.0225    9.2194 O   0  0  0  0  0  0  0  0  0  0  0  0
   -7.3735   -4.7529    9.9382 C   0  0  2  0  0  0  0  0  0  0  0  0
   -4.5478   -0.5324    9.4293 N   0  0  0  0  0  0  0  0  0  0  0  0
   -5.8217   -0.6663    9.8635 C   0  0  1  0  0  0  0  0  0  0  0  0
   -6.5091    0.4351   10.2415 N   0  0  0  0  0  0  0  0  0  0  0  0
   -6.4127   -1.8826    9.9233 N   0  0  0  0  0  0  0  0  0  0  0  0
   -5.7191   -2.9820    9.5426 C   0  0  1  0  0  0  0  0  0  0  0  0
   -4.4176   -2.8744    9.0936 C   0  0  2  0  0  0  0  0  0  0  0  0
   -3.8334   -1.6142    9.0426 C   0  0  0  0  0  0  0  0  0  0  0  0
   -2.6607   -1.4723    8.6434 O   0  0  0  0  0  0  0  0  0  0  0  0
   -3.9970   -4.1183    8.7858 N   0  0  0  0  0  0  0  0  0  0  0  0
   -5.0132   -4.9736    9.0463 C   0  0  0  0  0  0  0  0  0  0  0  0
   -6.0499   -4.2662    9.5064 N   0  0  1  0  0  0  0  0  0  0  0  0
  1  2  1  1  0  0  0
  1  3  1  0  0  0  0
  1  4  2  0  0  0  0
  1  6  1  0  0  0  0
  5  6  1  0  0  0  0
  7  5  1  6  0  0  0
  7  8  1  0  0  0  0
  7  9  1  0  0  0  0
  9 10  1  1  0  0  0
  9 11  1  0  0  0  0
 11 12  1  1  0  0  0
 11 13  1  0  0  0  0
 13  8  1  1  0  0  0
 13 24  1  0  0  0  0
 14 15  1  0  0  0  0
 14 20  1  0  0  0  0
 15 16  1  6  0  0  0
 15 17  1  0  0  0  0
 18 17  1  1  0  0  0
 18 19  1  0  0  0  0
 18 24  1  0  0  0  0
 19 20  1  6  0  0  0
 19 22  1  0  0  0  0
 20 21  2  0  0  0  0
 22 23  1  0  0  0  0
 24 23  1  1  0  0  0
M  CHG  1   3  -1
M  END
>  <CHROM.1>
-166.24512160,11.26423584,73.24633368,-136.69814786,-6.15299200,-5.06226111
10.27029610,-1.84037467,-0.53451648,-0.48235248

>  <Name>
ligand

>  <RI>
0

>  <Rbt.Current_Directory>
/home/itssahil/PROJECTS/Mol_Feturizer/New_Systems/rnas/3SLQ

>  <Rbt.Executable>
rbdock ($Id: //depot/dev/client3/rdock/2013.1/src/exe/rbdock.cxx#4 $)

>  <Rbt.Library>
libRbt.so (2013.1, Build901 2013/11/27)

>  <Rbt.Parameter_File>
/export/apps/rDock/src/rDock_2013.1_src/data/scripts/dock_solv.prm

>  <Rbt.Receptor>
prm/pocket_docking_3.prm

>  <SCORE>
-15.8298

>  <SCORE.INTER>
-14.078

>  <SCORE.INTER.CONST>
1

>  <SCORE.INTER.POLAR>
0

>  <SCORE.INTER.ROT>
4

>  <SCORE.INTER.SOLV>
17.8147

>  <SCORE.INTER.VDW>
-21.5902

>  <SCORE.INTER.norm>
-0.586582

>  <SCORE.INTRA>
-1.75184

>  <SCORE.INTRA.DIHEDRAL>
-6.06819

>  <SCORE.INTRA.DIHEDRAL.0>
13.2525

>  <SCORE.INTRA.POLAR>
0

>  <SCORE.INTRA.POLAR.0>
0

>  <SCORE.INTRA.REPUL>
0

>  <SCORE.INTRA.REPUL.0>
0

>  <SCORE.INTRA.SOLV>
3.63359

>  <SCORE.INTRA.SOLV.lig_0>
-70.7221

>  <SCORE.INTRA.VDW>
-0.53454

>  <SCORE.INTRA.VDW.0>
-1.46337

>  <SCORE.INTRA.norm>
-0.0729934

>  <SCORE.RESTR>
0

>  <SCORE.RESTR.CAVITY>
0

>  <SCORE.RESTR.norm>
0

>  <SCORE.SYSTEM>
0

>  <SCORE.SYSTEM.CONST>
0

>  <SCORE.SYSTEM.DIHEDRAL>
0

>  <SCORE.SYSTEM.SOLV>
0

>  <SCORE.SYSTEM.norm>
0

>  <SCORE.heavy>
24

>  <SCORE.norm>
-0.659576

>  <RMSD>
1.763

$$$$
ligand
 OpenBabel11021811483D
libRbt.so/2013.1/901 2013/11/27
 24 26  0  0  0  0  0  0  0  0999 V2000
   -5.9686   -7.3493   13.2614 P   0  0  1  0  0  0  0  0  0  0  0  0
   -4.5859   -6.9192   12.8203 O   0  0  0  0  0  0  0  0  0  0  0  0
   -6.2911   -8.8181   13.1185 O   0  5  0  0  0  0  0  0  0  0  0  0
   -6.3931   -6.7825   14.6079 O   0  0  0  0  0  0  0  0  0  0  0  0
   -8.3816   -6.6505   12.2601 C   0  0  0  0  0  0  0  0  0  0  0  0
   -6.9501   -6.7101   12.1365 O   0  0  0  0  0  0  0  0  0  0  0  0
   -8.9902   -6.0576   10.9858 C   0  0  1  0  0  0  0  0  0  0  0  0
   -8.4548   -4.7612   10.6911 O   0  0  0  0  0  0  0  0  0  0  0  0
   -8.7741   -6.8857    9.7307 C   0  0  1  0  0  0  0  0  0  0  0  0
   -9.8705   -7.7922    9.5795 O   0  0  0  0  0  0  0  0  0  0  0  0
   -8.7550   -5.8447    8.6233 C   0  0  1  0  0  0  0  0  0  0  0  0
  -10.0922   -5.4985    8.2358 O   0  0  0  0  0  0  0  0  0  0  0  0
   -8.1828   -4.6106    9.2922 C   0  0  2  0  0  0  0  0  0  0  0  0
   -4.2650   -1.3429    9.4631 N   0  0  0  0  0  0  0  0  0  0  0  0
   -5.5906   -1.1020    9.5818 C   0  0  1  0  0  0  0  0  0  0  0  0
   -6.0153    0.1659    9.7833 N   0  0  0  0  0  0  0  0  0  0  0  0
   -6.4913   -2.1092    9.5013 N   0  0  0  0  0  0  0  0  0  0  0  0
   -6.0597   -3.3771    9.2987 C   0  0  1  0  0  0  0  0  0  0  0  0
   -4.7122   -3.6516    9.1723 C   0  0  2  0  0  0  0  0  0  0  0  0
   -3.8077   -2.5998    9.2596 C   0  0  0  0  0  0  0  0  0  0  0  0
   -2.5824   -2.8037    9.1508 O   0  0  0  0  0  0  0  0  0  0  0  0
   -4.5920   -4.9805    8.9757 N   0  0  0  0  0  0  0  0  0  0  0  0
   -5.8360   -5.5136    8.9884 C   0  0  0  0  0  0  0  0  0  0  0  0
   -6.7142   -4.5255    9.1871 N   0  0  1  0  0  0  0  0  0  0  0  0
  1  2  1  6  0  0  0
  1  3  1  0  0  0  0
  1  4  2  0  0  0  0
  1  6  1  0  0  0  0
  5  6  1  0  0  0  0
  7  5  1  1  0  0  0
  7  8  1  0  0  0  0
  7  9  1  0  0  0  0
  9 10  1  6  0  0  0
  9 11  1  0  0  0  0
 11 12  1  1  0  0  0
 11 13  1  0  0  0  0
 13  8  1  1  0  0  0
 13 24  1  0  0  0  0
 14 15  1  0  0  0  0
 14 20  1  0  0  0  0
 15 16  1  6  0  0  0
 15 17  1  0  0  0  0
 18 17  1  1  0  0  0
 18 19  1  0  0  0  0
 18 24  1  0  0  0  0
 19 20  1  6  0  0  0
 19 22  1  0  0  0  0
 20 21  2  0  0  0  0
 22 23  1  0  0  0  0
 24 23  1  1  0  0  0
M  CHG  1   3  -1
M  END
>  <CHROM.1>
-168.47426438,-56.72475355,-176.84186598,-87.24305597,-6.59800488,-5.07142691
10.54242843,-2.00594650,-0.47358343,-0.71840808

>  <Name>
ligand

>  <RI>
0

>  <Rbt.Current_Directory>
/home/itssahil/PROJECTS/Mol_Feturizer/New_Systems/rnas/3SLQ

>  <Rbt.Executable>
rbdock ($Id: //depot/dev/client3/rdock/2013.1/src/exe/rbdock.cxx#4 $)

>  <Rbt.Library>
libRbt.so (2013.1, Build901 2013/11/27)

>  <Rbt.Parameter_File>
/export/apps/rDock/src/rDock_2013.1_src/data/scripts/dock_solv.prm

>  <Rbt.Receptor>
prm/pocket_docking_4.prm

>  <SCORE>
-19.2637

>  <SCORE.INTER>
-12.9129

>  <SCORE.INTER.CONST>
1

>  <SCORE.INTER.POLAR>
0

>  <SCORE.INTER.ROT>
4

>  <SCORE.INTER.SOLV>
19.2868

>  <SCORE.INTER.VDW>
-21.3042

>  <SCORE.INTER.norm>
-0.538036

>  <SCORE.INTRA>
-6.35084

>  <SCORE.INTRA.DIHEDRAL>
-11.7698

>  <SCORE.INTRA.DIHEDRAL.0>
13.2525

>  <SCORE.INTRA.POLAR>
0

>  <SCORE.INTRA.POLAR.0>
0

>  <SCORE.INTRA.REPUL>
0

>  <SCORE.INTRA.REPUL.0>
0

>  <SCORE.INTRA.SOLV>
0.592997

>  <SCORE.INTRA.SOLV.lig_0>
-70.7221

>  <SCORE.INTRA.VDW>
-0.762455

>  <SCORE.INTRA.VDW.0>
-1.46337

>  <SCORE.INTRA.norm>
-0.264618

>  <SCORE.RESTR>
0

>  <SCORE.RESTR.CAVITY>
0

>  <SCORE.RESTR.norm>
0

>  <SCORE.SYSTEM>
0

>  <SCORE.SYSTEM.CONST>
0

>  <SCORE.SYSTEM.DIHEDRAL>
0

>  <SCORE.SYSTEM.SOLV>
0

>  <SCORE.SYSTEM.norm>
0

>  <SCORE.heavy>
24

>  <SCORE.norm>
-0.802654

>  <RMSD>
1.860

$$$$
ligand
 OpenBabel11021811483D
libRbt.so/2013.1/901 2013/11/27
 24 26  0  0  0  0  0  0  0  0999 V2000
   -5.9674   -7.3381   13.2447 P   0  0  1  0  0  0  0  0  0  0  0  0
   -4.5838   -6.8993   12.8152 O   0  0  0  0  0  0  0  0  0  0  0  0
   -6.2871   -8.8051   13.0790 O   0  5  0  0  0  0  0  0  0  0  0  0
   -6.3977   -6.7918   14.5979 O   0  0  0  0  0  0  0  0  0  0  0  0
   -8.3799   -6.6575   12.2297 C   0  0  0  0  0  0  0  0  0  0  0  0
   -6.9458   -6.6839   12.1258 O   0  0  0  0  0  0  0  0  0  0  0  0
   -8.9824   -6.0378   10.9653 C   0  0  1  0  0  0  0  0  0  0  0  0
   -8.4337   -4.7424   10.6915 O   0  0  0  0  0  0  0  0  0  0  0  0
   -8.7749   -6.8476    9.6969 C   0  0  1  0  0  0  0  0  0  0  0  0
   -9.8807   -7.7402    9.5313 O   0  0  0  0  0  0  0  0  0  0  0  0
   -8.7451   -5.7891    8.6065 C   0  0  1  0  0  0  0  0  0  0  0  0
  -10.0788   -5.4228    8.2250 O   0  0  0  0  0  0  0  0  0  0  0  0
   -8.1602   -4.5720    9.2952 C   0  0  2  0  0  0  0  0  0  0  0  0
   -4.2138   -1.3381    9.4528 N   0  0  0  0  0  0  0  0  0  0  0  0
   -5.5374   -1.0849    9.5689 C   0  0  1  0  0  0  0  0  0  0  0  0
   -5.9510    0.1877    9.7632 N   0  0  0  0  0  0  0  0  0  0  0  0
   -6.4468   -2.0845    9.4928 N   0  0  0  0  0  0  0  0  0  0  0  0
   -6.0263   -3.3572    9.2973 C   0  0  1  0  0  0  0  0  0  0  0  0
   -4.6811   -3.6443    9.1737 C   0  0  2  0  0  0  0  0  0  0  0  0
   -3.7675   -2.6001    9.2564 C   0  0  0  0  0  0  0  0  0  0  0  0
   -2.5439   -2.8153    9.1499 O   0  0  0  0  0  0  0  0  0  0  0  0
   -4.5724   -4.9752    8.9843 N   0  0  0  0  0  0  0  0  0  0  0  0
   -5.8211   -5.4972    8.9985 C   0  0  0  0  0  0  0  0  0  0  0  0
   -6.6908   -4.5004    9.1912 N   0  0  1  0  0  0  0  0  0  0  0  0
  1  2  1  6  0  0  0
  1  3  1  0  0  0  0
  1  4  2  0  0  0  0
  1  6  1  0  0  0  0
  5  6  1  0  0  0  0
  7  5  1  1  0  0  0
  7  8  1  0  0  0  0
  7  9  1  0  0  0  0
  9 10  1  6  0  0  0
  9 11  1  0  0  0  0
 11 12  1  1  0  0  0
 11 13  1  0  0  0  0
 13  8  1  1  0  0  0
 13 24  1  0  0  0  0
 14 15  1  0  0  0  0
 14 20  1  0  0  0  0
 15 16  1  6  0  0  0
 15 17  1  0  0  0  0
 18 17  1  1  0  0  0
 18 19  1  0  0  0  0
 18 24  1  0  0  0  0
 19 20  1  6  0  0  0
 19 22  1  0  0  0  0
 20 21  2  0  0  0  0
 22 23  1  0  0  0  0
 24 23  1  1  0  0  0
M  CHG  1   3  -1
M  END
>  <CHROM.1>
-170.06284015,-54.57363556,-176.81688103,-88.47946816,-6.57945075,-5.05157373
10.53041862,-2.01296900,-0.46811530,-0.71823001

>  <Name>
ligand

>  <RI>
0

>  <Rbt.Current_Directory>
/home/itssahil/PROJECTS/Mol_Feturizer/New_Systems/rnas/3SLQ

>  <Rbt.Executable>
rbdock ($Id: //depot/dev/client3/rdock/2013.1/src/exe/rbdock.cxx#4 $)

>  <Rbt.Library>
libRbt.so (2013.1, Build901 2013/11/27)

>  <Rbt.Parameter_File>
/export/apps/rDock/src/rDock_2013.1_src/data/scripts/dock_solv.prm

>  <Rbt.Receptor>
prm/pocket_docking_5.prm

>  <SCORE>
-19.2386

>  <SCORE.INTER>
-12.875

>  <SCORE.INTER.CONST>
1

>  <SCORE.INTER.POLAR>
0

>  <SCORE.INTER.ROT>
4

>  <SCORE.INTER.SOLV>
19.4327

>  <SCORE.INTER.VDW>
-21.3275

>  <SCORE.INTER.norm>
-0.536457

>  <SCORE.INTRA>
-6.3636

>  <SCORE.INTRA.DIHEDRAL>
-11.7557

>  <SCORE.INTRA.DIHEDRAL.0>
13.2525

>  <SCORE.INTRA.POLAR>
0

>  <SCORE.INTRA.POLAR.0>
0

>  <SCORE.INTRA.REPUL>
0

>  <SCORE.INTRA.REPUL.0>
0

>  <SCORE.INTRA.SOLV>
0.587846

>  <SCORE.INTRA.SOLV.lig_0>
-70.7221

>  <SCORE.INTRA.VDW>
-0.779662

>  <SCORE.INTRA.VDW.0>
-1.46337

>  <SCORE.INTRA.norm>
-0.26515

>  <SCORE.RESTR>
0

>  <SCORE.RESTR.CAVITY>
0

>  <SCORE.RESTR.norm>
0

>  <SCORE.SYSTEM>
0

>  <SCORE.SYSTEM.CONST>
0

>  <SCORE.SYSTEM.DIHEDRAL>
0

>  <SCORE.SYSTEM.SOLV>
0

>  <SCORE.SYSTEM.norm>
0

>  <SCORE.heavy>
24

>  <SCORE.norm>
-0.801607

>  <RMSD>
1.871

$$$$
ligand
 OpenBabel11021811483D
libRbt.so/2013.1/901 2013/11/27
 24 26  0  0  0  0  0  0  0  0999 V2000
   -6.0481   -7.3651   13.2179 P   0  0  1  0  0  0  0  0  0  0  0  0
   -4.6563   -6.9671   12.7751 O   0  0  0  0  0  0  0  0  0  0  0  0
   -6.3994   -8.8287   13.0899 O   0  5  0  0  0  0  0  0  0  0  0  0
   -6.4636   -6.7757   14.5575 O   0  0  0  0  0  0  0  0  0  0  0  0
   -8.4449   -6.6280   12.2051 C   0  0  0  0  0  0  0  0  0  0  0  0
   -7.0147   -6.7185   12.0844 O   0  0  0  0  0  0  0  0  0  0  0  0
   -9.0376   -6.0195   10.9307 C   0  0  1  0  0  0  0  0  0  0  0  0
   -8.4934   -4.7227   10.6546 O   0  0  0  0  0  0  0  0  0  0  0  0
   -8.8124   -6.8359    9.6696 C   0  0  1  0  0  0  0  0  0  0  0  0
   -9.9113   -7.7358    9.4981 O   0  0  0  0  0  0  0  0  0  0  0  0
   -8.7772   -5.7840    8.5730 C   0  0  1  0  0  0  0  0  0  0  0  0
  -10.1089   -5.4277    8.1755 O   0  0  0  0  0  0  0  0  0  0  0  0
   -8.2064   -4.5594    9.2602 C   0  0  2  0  0  0  0  0  0  0  0  0
   -4.2778   -1.3070    9.4733 N   0  0  0  0  0  0  0  0  0  0  0  0
   -5.6037   -1.0609    9.5777 C   0  0  1  0  0  0  0  0  0  0  0  0
   -6.0256    0.2086    9.7747 N   0  0  0  0  0  0  0  0  0  0  0  0
   -6.5074   -2.0646    9.4875 N   0  0  0  0  0  0  0  0  0  0  0  0
   -6.0786   -3.3341    9.2896 C   0  0  1  0  0  0  0  0  0  0  0  0
   -4.7309   -3.6140    9.1777 C   0  0  2  0  0  0  0  0  0  0  0  0
   -3.8233   -2.5657    9.2748 C   0  0  0  0  0  0  0  0  0  0  0  0
   -2.5977   -2.7744    9.1792 O   0  0  0  0  0  0  0  0  0  0  0  0
   -4.6138   -4.9433    8.9825 N   0  0  0  0  0  0  0  0  0  0  0  0
   -5.8600   -5.4715    8.9817 C   0  0  0  0  0  0  0  0  0  0  0  0
   -6.7364   -4.4800    9.1710 N   0  0  1  0  0  0  0  0  0  0  0  0
  1  2  1  6  0  0  0
  1  3  1  0  0  0  0
  1  4  2  0  0  0  0
  1  6  1  0  0  0  0
  5  6  1  0  0  0  0
  7  5  1  1  0  0  0
  7  8  1  0  0  0  0
  7  9  1  0  0  0  0
  9 10  1  6  0  0  0
  9 11  1  0  0  0  0
 11 12  1  1  0  0  0
 11 13  1  0  0  0  0
 13  8  1  1  0  0  0
 13 24  1  0  0  0  0
 14 15  1  0  0  0  0
 14 20  1  0  0  0  0
 15 16  1  6  0  0  0
 15 17  1  0  0  0  0
 18 17  1  1  0  0  0
 18 19  1  0  0  0  0
 18 24  1  0  0  0  0
 19 20  1  6  0  0  0
 19 22  1  0  0  0  0
 20 21  2  0  0  0  0
 22 23  1  0  0  0  0
 24 23  1  1  0  0  0
M  CHG  1   3  -1
M  END
>  <CHROM.1>
-168.40978017,-57.90615256,-177.60599594,-87.82396562,-6.63775529,-5.04371248
10.51367284,-2.01116847,-0.47376151,-0.71168923

>  <Name>
ligand

>  <RI>
0

>  <Rbt.Current_Directory>
/home/itssahil/PROJECTS/Mol_Feturizer/New_Systems/rnas/3SLQ

>  <Rbt.Executable>
rbdock ($Id: //depot/dev/client3/rdock/2013.1/src/exe/rbdock.cxx#4 $)

>  <Rbt.Library>
libRbt.so (2013.1, Build901 2013/11/27)

>  <Rbt.Parameter_File>
/export/apps/rDock/src/rDock_2013.1_src/data/scripts/dock_solv.prm

>  <Rbt.Receptor>
prm/pocket_docking_3.prm

>  <SCORE>
-19.152

>  <SCORE.INTER>
-12.7763

>  <SCORE.INTER.CONST>
1

>  <SCORE.INTER.POLAR>
0

>  <SCORE.INTER.ROT>
4

>  <SCORE.INTER.SOLV>
19.3036

>  <SCORE.INTER.VDW>
-21.2187

>  <SCORE.INTER.norm>
-0.532346

>  <SCORE.INTRA>
-6.3757

>  <SCORE.INTRA.DIHEDRAL>
-11.8111

>  <SCORE.INTRA.DIHEDRAL.0>
13.2525

>  <SCORE.INTRA.POLAR>
0

>  <SCORE.INTRA.POLAR.0>
0

>  <SCORE.INTRA.REPUL>
0

>  <SCORE.INTRA.REPUL.0>
0

>  <SCORE.INTRA.SOLV>
0.58601

>  <SCORE.INTRA.SOLV.lig_0>
-70.7221

>  <SCORE.INTRA.VDW>
-0.763163

>  <SCORE.INTRA.VDW.0>
-1.46337

>  <SCORE.INTRA.norm>
-0.265654

>  <SCORE.RESTR>
0

>  <SCORE.RESTR.CAVITY>
0

>  <SCORE.RESTR.norm>
0

>  <SCORE.SYSTEM>
0

>  <SCORE.SYSTEM.CONST>
0

>  <SCORE.SYSTEM.DIHEDRAL>
0

>  <SCORE.SYSTEM.SOLV>
0

>  <SCORE.SYSTEM.norm>
0

>  <SCORE.heavy>
24

>  <SCORE.norm>
-0.798

>  <RMSD>
1.878

$$$$
ligand
 OpenBabel11021811483D
libRbt.so/2013.1/901 2013/11/27
 24 26  0  0  0  0  0  0  0  0999 V2000
   -6.0666   -7.2180   13.3309 P   0  0  1  0  0  0  0  0  0  0  0  0
   -6.4865   -6.4417   14.5607 O   0  0  0  0  0  0  0  0  0  0  0  0
   -4.6999   -6.9000   12.7717 O   0  5  0  0  0  0  0  0  0  0  0  0
   -6.3308   -8.7135   13.4229 O   0  0  0  0  0  0  0  0  0  0  0  0
   -8.4556   -6.5637   12.2455 C   0  0  0  0  0  0  0  0  0  0  0  0
   -7.0217   -6.6296   12.1568 O   0  0  0  0  0  0  0  0  0  0  0  0
   -9.0341   -6.0221   10.9348 C   0  0  1  0  0  0  0  0  0  0  0  0
   -8.4925   -4.7375   10.6021 O   0  0  0  0  0  0  0  0  0  0  0  0
   -8.7881   -6.8985    9.7187 C   0  0  1  0  0  0  0  0  0  0  0  0
   -9.8803   -7.8117    9.5775 O   0  0  0  0  0  0  0  0  0  0  0  0
   -8.7433   -5.9018    8.5720 C   0  0  1  0  0  0  0  0  0  0  0  0
  -10.0712   -5.5729    8.1399 O   0  0  0  0  0  0  0  0  0  0  0  0
   -8.1876   -4.6417    9.2052 C   0  0  2  0  0  0  0  0  0  0  0  0
   -4.2673   -1.3852    9.4937 N   0  0  0  0  0  0  0  0  0  0  0  0
   -5.5946   -1.1426    9.5877 C   0  0  1  0  0  0  0  0  0  0  0  0
   -6.0207    0.1240    9.7946 N   0  0  0  0  0  0  0  0  0  0  0  0
   -6.4955   -2.1467    9.4773 N   0  0  0  0  0  0  0  0  0  0  0  0
   -6.0625   -3.4132    9.2695 C   0  0  1  0  0  0  0  0  0  0  0  0
   -4.7132   -3.6895    9.1678 C   0  0  2  0  0  0  0  0  0  0  0  0
   -3.8085   -2.6409    9.2856 C   0  0  0  0  0  0  0  0  0  0  0  0
   -2.5817   -2.8464    9.1999 O   0  0  0  0  0  0  0  0  0  0  0  0
   -4.5917   -5.0164    8.9589 N   0  0  0  0  0  0  0  0  0  0  0  0
   -5.8369   -5.5467    8.9399 C   0  0  0  0  0  0  0  0  0  0  0  0
   -6.7169   -4.5588    9.1315 N   0  0  1  0  0  0  0  0  0  0  0  0
  1  2  1  1  0  0  0
  1  3  1  0  0  0  0
  1  4  2  0  0  0  0
  1  6  1  0  0  0  0
  5  6  1  0  0  0  0
  7  5  1  1  0  0  0
  7  8  1  0  0  0  0
  7  9  1  0  0  0  0
  9 10  1  6  0  0  0
  9 11  1  0  0  0  0
 11 12  1  1  0  0  0
 11 13  1  0  0  0  0
 13  8  1  1  0  0  0
 13 24  1  0  0  0  0
 14 15  1  0  0  0  0
 14 20  1  0  0  0  0
 15 16  1  6  0  0  0
 15 17  1  0  0  0  0
 18 17  1  1  0  0  0
 18 19  1  0  0  0  0
 18 24  1  0  0  0  0
 19 20  1  6  0  0  0
 19 22  1  0  0  0  0
 20 21  2  0  0  0  0
 22 23  1  0  0  0  0
 24 23  1  1  0  0  0
M  CHG  1   3  -1
M  END
>  <CHROM.1>
-53.13672831,-56.87683185,-177.10977230,-84.33953507,-6.62775557,-5.05340742
10.54078802,-2.04131925,-0.50185362,-0.75918026

>  <Name>
ligand

>  <RI>
0

>  <Rbt.Current_Directory>
/home/itssahil/PROJECTS/Mol_Feturizer/New_Systems/rnas/3SLQ

>  <Rbt.Executable>
rbdock ($Id: //depot/dev/client3/rdock/2013.1/src/exe/rbdock.cxx#4 $)

>  <Rbt.Library>
libRbt.so (2013.1, Build901 2013/11/27)

>  <Rbt.Parameter_File>
/export/apps/rDock/src/rDock_2013.1_src/data/scripts/dock_solv.prm

>  <Rbt.Receptor>
prm/pocket_docking_4.prm

>  <SCORE>
-18.4481

>  <SCORE.INTER>
-11.6914

>  <SCORE.INTER.CONST>
1

>  <SCORE.INTER.POLAR>
0

>  <SCORE.INTER.ROT>
4

>  <SCORE.INTER.SOLV>
21.7418

>  <SCORE.INTER.VDW>
-21.3082

>  <SCORE.INTER.norm>
-0.487142

>  <SCORE.INTRA>
-6.75665

>  <SCORE.INTRA.DIHEDRAL>
-11.9167

>  <SCORE.INTRA.DIHEDRAL.0>
13.2525

>  <SCORE.INTRA.POLAR>
0

>  <SCORE.INTRA.POLAR.0>
0

>  <SCORE.INTRA.REPUL>
0

>  <SCORE.INTRA.REPUL.0>
0

>  <SCORE.INTRA.SOLV>
-0.0652589

>  <SCORE.INTRA.SOLV.lig_0>
-70.7221

>  <SCORE.INTRA.VDW>
-0.765665

>  <SCORE.INTRA.VDW.0>
-1.46337

>  <SCORE.INTRA.norm>
-0.281527

>  <SCORE.RESTR>
0

>  <SCORE.RESTR.CAVITY>
0

>  <SCORE.RESTR.norm>
0

>  <SCORE.SYSTEM>
0

>  <SCORE.SYSTEM.CONST>
0

>  <SCORE.SYSTEM.DIHEDRAL>
0

>  <SCORE.SYSTEM.SOLV>
0

>  <SCORE.SYSTEM.norm>
0

>  <SCORE.heavy>
24

>  <SCORE.norm>
-0.768669

>  <RMSD>
1.882

$$$$
ligand
 OpenBabel11021811483D
libRbt.so/2013.1/901 2013/11/27
 24 26  0  0  0  0  0  0  0  0999 V2000
   -6.0482   -7.5543   13.0899 P   0  0  1  0  0  0  0  0  0  0  0  0
   -4.6751   -7.0305   12.7267 O   0  0  0  0  0  0  0  0  0  0  0  0
   -6.3054   -9.0152   12.8046 O   0  5  0  0  0  0  0  0  0  0  0  0
   -6.5262   -7.1319   14.4711 O   0  0  0  0  0  0  0  0  0  0  0  0
   -8.4656   -6.8730   12.0871 C   0  0  0  0  0  0  0  0  0  0  0  0
   -7.0300   -6.8531   12.0030 O   0  0  0  0  0  0  0  0  0  0  0  0
   -9.0685   -6.1689   10.8679 C   0  0  1  0  0  0  0  0  0  0  0  0
   -8.5116   -4.8624   10.6758 O   0  0  0  0  0  0  0  0  0  0  0  0
   -8.8719   -6.8967    9.5490 C   0  0  1  0  0  0  0  0  0  0  0  0
   -9.9847   -7.7690    9.3311 O   0  0  0  0  0  0  0  0  0  0  0  0
   -8.8388   -5.7703    8.5291 C   0  0  1  0  0  0  0  0  0  0  0  0
  -10.1713   -5.3709    8.1779 O   0  0  0  0  0  0  0  0  0  0  0  0
   -8.2424   -4.6042    9.2922 C   0  0  2  0  0  0  0  0  0  0  0  0
   -4.2874   -1.3811    9.4531 N   0  0  0  0  0  0  0  0  0  0  0  0
   -5.6102   -1.1247    9.5715 C   0  0  1  0  0  0  0  0  0  0  0  0
   -6.0203    0.1485    9.7696 N   0  0  0  0  0  0  0  0  0  0  0  0
   -6.5223   -2.1217    9.4940 N   0  0  0  0  0  0  0  0  0  0  0  0
   -6.1053   -3.3950    9.2948 C   0  0  1  0  0  0  0  0  0  0  0  0
   -4.7611   -3.6854    9.1688 C   0  0  2  0  0  0  0  0  0  0  0  0
   -3.8446   -2.6437    9.2530 C   0  0  0  0  0  0  0  0  0  0  0  0
   -2.6218   -2.8619    9.1445 O   0  0  0  0  0  0  0  0  0  0  0  0
   -4.6561   -5.0160    8.9759 N   0  0  0  0  0  0  0  0  0  0  0  0
   -5.9062   -5.5348    8.9903 C   0  0  0  0  0  0  0  0  0  0  0  0
   -6.7730   -4.5362    9.1865 N   0  0  1  0  0  0  0  0  0  0  0  0
  1  2  1  6  0  0  0
  1  3  1  0  0  0  0
  1  4  2  0  0  0  0
  1  6  1  0  0  0  0
  5  6  1  0  0  0  0
  7  5  1  1  0  0  0
  7  8  1  0  0  0  0
  7  9  1  0  0  0  0
  9 10  1  6  0  0  0
  9 11  1  0  0  0  0
 11 12  1  1  0  0  0
 11 13  1  0  0  0  0
 13  8  1  1  0  0  0
 13 24  1  0  0  0  0
 14 15  1  0  0  0  0
 14 20  1  0  0  0  0
 15 16  1  6  0  0  0
 15 17  1  0  0  0  0
 18 17  1  1  0  0  0
 18 19  1  0  0  0  0
 18 24  1  0  0  0  0
 19 20  1  6  0  0  0
 19 22  1  0  0  0  0
 20 21  2  0  0  0  0
 22 23  1  0  0  0  0
 24 23  1  1  0  0  0
M  CHG  1   3  -1
M  END
>  <CHROM.1>
-169.09040050,-52.17554344,-177.60543234,-92.04341051,-6.66191663,-5.14530909
10.45890877,-2.00070211,-0.45468177,-0.67604453

>  <Name>
ligand

>  <RI>
0

>  <Rbt.Current_Directory>
/home/itssahil/PROJECTS/Mol_Feturizer/New_Systems/rnas/3SLQ

>  <Rbt.Executable>
rbdock ($Id: //depot/dev/client3/rdock/2013.1/src/exe/rbdock.cxx#4 $)

>  <Rbt.Library>
libRbt.so (2013.1, Build901 2013/11/27)

>  <Rbt.Parameter_File>
/export/apps/rDock/src/rDock_2013.1_src/data/scripts/dock_solv.prm

>  <Rbt.Receptor>
prm/pocket_docking_3.prm

>  <SCORE>
-18.9578

>  <SCORE.INTER>
-12.6467

>  <SCORE.INTER.CONST>
1

>  <SCORE.INTER.POLAR>
0

>  <SCORE.INTER.ROT>
4

>  <SCORE.INTER.SOLV>
18.0208

>  <SCORE.INTER.VDW>
-20.7048

>  <SCORE.INTER.norm>
-0.526948

>  <SCORE.INTRA>
-6.31106

>  <SCORE.INTRA.DIHEDRAL>
-11.6331

>  <SCORE.INTRA.DIHEDRAL.0>
13.2525

>  <SCORE.INTRA.POLAR>
0

>  <SCORE.INTRA.POLAR.0>
0

>  <SCORE.INTRA.REPUL>
0

>  <SCORE.INTRA.REPUL.0>
0

>  <SCORE.INTRA.SOLV>
0.568001

>  <SCORE.INTRA.SOLV.lig_0>
-70.7221

>  <SCORE.INTRA.VDW>
-0.778524

>  <SCORE.INTRA.VDW.0>
-1.46337

>  <SCORE.INTRA.norm>
-0.262961

>  <SCORE.RESTR>
0

>  <SCORE.RESTR.CAVITY>
0

>  <SCORE.RESTR.norm>
0

>  <SCORE.SYSTEM>
0

>  <SCORE.SYSTEM.CONST>
0

>  <SCORE.SYSTEM.DIHEDRAL>
0

>  <SCORE.SYSTEM.SOLV>
0

>  <SCORE.SYSTEM.norm>
0

>  <SCORE.heavy>
24

>  <SCORE.norm>
-0.789909

>  <RMSD>
1.933

$$$$
ligand
 OpenBabel11021811483D
libRbt.so/2013.1/901 2013/11/27
 24 26  0  0  0  0  0  0  0  0999 V2000
   -6.6217   -6.7415   13.5305 P   0  0  1  0  0  0  0  0  0  0  0  0
   -7.1086   -5.7606   14.5756 O   0  0  0  0  0  0  0  0  0  0  0  0
   -5.2349   -6.5024   12.9813 O   0  5  0  0  0  0  0  0  0  0  0  0
   -6.8695   -8.1996   13.8871 O   0  0  0  0  0  0  0  0  0  0  0  0
   -8.9646   -6.4865   12.2042 C   0  0  0  0  0  0  0  0  0  0  0  0
   -7.5292   -6.4013   12.2275 O   0  0  0  0  0  0  0  0  0  0  0  0
   -9.4946   -5.9810   10.8591 C   0  0  1  0  0  0  0  0  0  0  0  0
   -8.8857   -4.7411   10.4767 O   0  0  0  0  0  0  0  0  0  0  0  0
   -9.2717   -6.9252    9.6901 C   0  0  1  0  0  0  0  0  0  0  0  0
  -10.4046   -7.7908    9.5715 O   0  0  0  0  0  0  0  0  0  0  0  0
   -9.1597   -5.9876    8.4991 C   0  0  1  0  0  0  0  0  0  0  0  0
  -10.4628   -5.6164    8.0273 O   0  0  0  0  0  0  0  0  0  0  0  0
   -8.5537   -4.7267    9.0828 C   0  0  2  0  0  0  0  0  0  0  0  0
   -4.4788   -1.6762    9.4649 N   0  0  0  0  0  0  0  0  0  0  0  0
   -5.7935   -1.3674    9.5407 C   0  0  1  0  0  0  0  0  0  0  0  0
   -6.1582   -0.0828    9.7538 N   0  0  0  0  0  0  0  0  0  0  0  0
   -6.7422   -2.3234    9.4062 N   0  0  0  0  0  0  0  0  0  0  0  0
   -6.3705   -3.6083    9.1924 C   0  0  1  0  0  0  0  0  0  0  0  0
   -5.0355   -3.9518    9.1089 C   0  0  2  0  0  0  0  0  0  0  0  0
   -4.0809   -2.9515    9.2513 C   0  0  0  0  0  0  0  0  0  0  0  0
   -2.8648   -3.2182    9.1825 O   0  0  0  0  0  0  0  0  0  0  0  0
   -4.9780   -5.2811    8.8885 N   0  0  0  0  0  0  0  0  0  0  0  0
   -6.2479   -5.7473    8.8448 C   0  0  0  0  0  0  0  0  0  0  0  0
   -7.0798   -4.7179    9.0327 N   0  0  1  0  0  0  0  0  0  0  0  0
  1  2  1  1  0  0  0
  1  3  1  0  0  0  0
  1  4  2  0  0  0  0
  1  6  1  0  0  0  0
  5  6  1  0  0  0  0
  7  5  1  1  0  0  0
  7  8  1  0  0  0  0
  7  9  1  0  0  0  0
  9 10  1  6  0  0  0
  9 11  1  0  0  0  0
 11 12  1  1  0  0  0
 11 13  1  0  0  0  0
 13  8  1  1  0  0  0
 13 24  1  0  0  0  0
 14 15  1  0  0  0  0
 14 20  1  0  0  0  0
 15 16  1  6  0  0  0
 15 17  1  0  0  0  0
 18 17  1  1  0  0  0
 18 19  1  0  0  0  0
 18 24  1  0  0  0  0
 19 20  1  6  0  0  0
 19 22  1  0  0  0  0
 20 21  2  0  0  0  0
 22 23  1  0  0  0  0
 24 23  1  1  0  0  0
M  CHG  1   3  -1
M  END
>  <CHROM.1>
-59.85222312,-46.76289076,175.12850372,-81.07024081,-7.03472562,-5.03409069
10.54522666,-2.19850412,-0.54239635,-0.92596811

>  <Name>
ligand

>  <RI>
0

>  <Rbt.Current_Directory>
/home/itssahil/PROJECTS/Mol_Feturizer/New_Systems/rnas/3SLQ

>  <Rbt.Executable>
rbdock ($Id: //depot/dev/client3/rdock/2013.1/src/exe/rbdock.cxx#4 $)

>  <Rbt.Library>
libRbt.so (2013.1, Build901 2013/11/27)

>  <Rbt.Parameter_File>
/export/apps/rDock/src/rDock_2013.1_src/data/scripts/dock_solv.prm

>  <Rbt.Receptor>
prm/pocket_docking_3.prm

>  <SCORE>
-18.9351

>  <SCORE.INTER>
-12.4905

>  <SCORE.INTER.CONST>
1

>  <SCORE.INTER.POLAR>
0

>  <SCORE.INTER.ROT>
4

>  <SCORE.INTER.SOLV>
20.4587

>  <SCORE.INTER.VDW>
-21.4133

>  <SCORE.INTER.norm>
-0.520439

>  <SCORE.INTRA>
-6.44453

>  <SCORE.INTRA.DIHEDRAL>
-11.3457

>  <SCORE.INTRA.DIHEDRAL.0>
13.2525

>  <SCORE.INTRA.POLAR>
0

>  <SCORE.INTRA.POLAR.0>
0

>  <SCORE.INTRA.REPUL>
0

>  <SCORE.INTRA.REPUL.0>
0

>  <SCORE.INTRA.SOLV>
-0.0558878

>  <SCORE.INTRA.SOLV.lig_0>
-70.7221

>  <SCORE.INTRA.VDW>
-0.743737

>  <SCORE.INTRA.VDW.0>
-1.46337

>  <SCORE.INTRA.norm>
-0.268522

>  <SCORE.RESTR>
0

>  <SCORE.RESTR.CAVITY>
0

>  <SCORE.RESTR.norm>
0

>  <SCORE.SYSTEM>
0

>  <SCORE.SYSTEM.CONST>
0

>  <SCORE.SYSTEM.DIHEDRAL>
0

>  <SCORE.SYSTEM.SOLV>
0

>  <SCORE.SYSTEM.norm>
0

>  <SCORE.heavy>
24

>  <SCORE.norm>
-0.788961

>  <RMSD>
2.102

$$$$
ligand
 OpenBabel11021811483D
libRbt.so/2013.1/901 2013/11/27
 24 26  0  0  0  0  0  0  0  0999 V2000
   -6.6624   -7.1515   13.2720 P   0  0  1  0  0  0  0  0  0  0  0  0
   -6.9090   -6.0437   14.2737 O   0  0  0  0  0  0  0  0  0  0  0  0
   -5.2868   -7.1985   12.6496 O   0  5  0  0  0  0  0  0  0  0  0  0
   -7.1478   -8.5189   13.7294 O   0  0  0  0  0  0  0  0  0  0  0  0
   -8.9906   -6.5533   12.0328 C   0  0  0  0  0  0  0  0  0  0  0  0
   -7.5630   -6.7223   11.9906 O   0  0  0  0  0  0  0  0  0  0  0  0
   -9.4685   -5.8417   10.7636 C   0  0  1  0  0  0  0  0  0  0  0  0
   -8.7348   -4.6352   10.5190 O   0  0  0  0  0  0  0  0  0  0  0  0
   -9.3484   -6.6604    9.4896 C   0  0  1  0  0  0  0  0  0  0  0  0
  -10.5657   -7.3846    9.2880 O   0  0  0  0  0  0  0  0  0  0  0  0
   -9.1424   -5.6064    8.4141 C   0  0  1  0  0  0  0  0  0  0  0  0
  -10.4010   -5.0500    8.0081 O   0  0  0  0  0  0  0  0  0  0  0  0
   -8.4068   -4.4919    9.1314 C   0  0  2  0  0  0  0  0  0  0  0  0
   -4.0483   -1.8423    9.3310 N   0  0  0  0  0  0  0  0  0  0  0  0
   -5.3251   -1.4035    9.4120 C   0  0  1  0  0  0  0  0  0  0  0  0
   -5.5593   -0.0819    9.5767 N   0  0  0  0  0  0  0  0  0  0  0  0
   -6.3645   -2.2666    9.3302 N   0  0  0  0  0  0  0  0  0  0  0  0
   -6.1235   -3.5892    9.1647 C   0  0  1  0  0  0  0  0  0  0  0  0
   -4.8299   -4.0648    9.0772 C   0  0  2  0  0  0  0  0  0  0  0  0
   -3.7802   -3.1579    9.1649 C   0  0  0  0  0  0  0  0  0  0  0  0
   -2.5972   -3.5450    9.0906 O   0  0  0  0  0  0  0  0  0  0  0  0
   -4.9059   -5.4011    8.9112 N   0  0  0  0  0  0  0  0  0  0  0  0
   -6.2157   -5.7420    8.9042 C   0  0  0  0  0  0  0  0  0  0  0  0
   -6.9401   -4.6295    9.0608 N   0  0  1  0  0  0  0  0  0  0  0  0
  1  2  1  1  0  0  0
  1  3  1  0  0  0  0
  1  4  2  0  0  0  0
  1  6  1  0  0  0  0
  5  6  1  0  0  0  0
  7  5  1  1  0  0  0
  7  8  1  0  0  0  0
  7  9  1  0  0  0  0
  9 10  1  6  0  0  0
  9 11  1  0  0  0  0
 11 12  1  1  0  0  0
 11 13  1  0  0  0  0
 13  8  1  1  0  0  0
 13 24  1  0  0  0  0
 14 15  1  0  0  0  0
 14 20  1  0  0  0  0
 15 16  1  6  0  0  0
 15 17  1  0  0  0  0
 18 17  1  1  0  0  0
 18 19  1  0  0  0  0
 18 24  1  0  0  0  0
 19 20  1  6  0  0  0
 19 22  1  0  0  0  0
 20 21  2  0  0  0  0
 22 23  1  0  0  0  0
 24 23  1  1  0  0  0
M  CHG  1   3  -1
M  END
>  <CHROM.1>
-60.20992819,-51.67812809,166.90558047,-90.12763860,-6.92192736,-5.09091251
10.42100832,-2.18440859,-0.41907980,-0.84019869

>  <Name>
ligand

>  <RI>
0

>  <Rbt.Current_Directory>
/home/itssahil/PROJECTS/Mol_Feturizer/New_Systems/rnas/3SLQ

>  <Rbt.Executable>
rbdock ($Id: //depot/dev/client3/rdock/2013.1/src/exe/rbdock.cxx#4 $)

>  <Rbt.Library>
libRbt.so (2013.1, Build901 2013/11/27)

>  <Rbt.Parameter_File>
/export/apps/rDock/src/rDock_2013.1_src/data/scripts/dock_solv.prm

>  <Rbt.Receptor>
prm/pocket_docking_3.prm

>  <SCORE>
-18.5097

>  <SCORE.INTER>
-12.0718

>  <SCORE.INTER.CONST>
1

>  <SCORE.INTER.POLAR>
0

>  <SCORE.INTER.ROT>
4

>  <SCORE.INTER.SOLV>
20.2178

>  <SCORE.INTER.VDW>
-21.0538

>  <SCORE.INTER.norm>
-0.50299

>  <SCORE.INTRA>
-6.4379

>  <SCORE.INTRA.DIHEDRAL>
-11.0125

>  <SCORE.INTRA.DIHEDRAL.0>
13.2525

>  <SCORE.INTRA.POLAR>
0

>  <SCORE.INTRA.POLAR.0>
0

>  <SCORE.INTRA.REPUL>
0

>  <SCORE.INTRA.REPUL.0>
0

>  <SCORE.INTRA.SOLV>
-0.0628246

>  <SCORE.INTRA.SOLV.lig_0>
-70.7221

>  <SCORE.INTRA.VDW>
-0.900233

>  <SCORE.INTRA.VDW.0>
-1.46337

>  <SCORE.INTRA.norm>
-0.268246

>  <SCORE.RESTR>
0

>  <SCORE.RESTR.CAVITY>
0

>  <SCORE.RESTR.norm>
0

>  <SCORE.SYSTEM>
0

>  <SCORE.SYSTEM.CONST>
0

>  <SCORE.SYSTEM.DIHEDRAL>
0

>  <SCORE.SYSTEM.SOLV>
0

>  <SCORE.SYSTEM.norm>
0

>  <SCORE.heavy>
24

>  <SCORE.norm>
-0.771236

>  <RMSD>
2.202

$$$$
ligand
 OpenBabel11021811483D
libRbt.so/2013.1/901 2013/11/27
 24 26  0  0  0  0  0  0  0  0999 V2000
   -6.3417   -7.8491   12.9732 P   0  0  1  0  0  0  0  0  0  0  0  0
   -4.9911   -7.9690   12.3000 O   0  0  0  0  0  0  0  0  0  0  0  0
   -7.1507   -9.1199   13.0840 O   0  5  0  0  0  0  0  0  0  0  0  0
   -6.3188   -7.0519   14.2689 O   0  0  0  0  0  0  0  0  0  0  0  0
   -8.6200   -6.6828   12.0999 C   0  0  0  0  0  0  0  0  0  0  0  0
   -7.2334   -7.0111   11.9056 O   0  0  0  0  0  0  0  0  0  0  0  0
   -9.1327   -5.8637   10.9117 C   0  0  1  0  0  0  0  0  0  0  0  0
   -8.3789   -4.6586   10.7283 O   0  0  0  0  0  0  0  0  0  0  0  0
   -9.0881   -6.5830    9.5744 C   0  0  1  0  0  0  0  0  0  0  0  0
  -10.3313   -7.2615    9.3718 O   0  0  0  0  0  0  0  0  0  0  0  0
   -8.9006   -5.4532    8.5751 C   0  0  1  0  0  0  0  0  0  0  0  0
  -10.1604   -4.8385    8.2693 O   0  0  0  0  0  0  0  0  0  0  0  0
   -8.1065   -4.4150    9.3427 C   0  0  2  0  0  0  0  0  0  0  0  0
   -3.6980   -1.8424    9.2803 N   0  0  0  0  0  0  0  0  0  0  0  0
   -4.9610   -1.3797    9.4230 C   0  0  1  0  0  0  0  0  0  0  0  0
   -5.1631   -0.0523    9.5835 N   0  0  0  0  0  0  0  0  0  0  0  0
   -6.0181   -2.2248    9.4066 N   0  0  0  0  0  0  0  0  0  0  0  0
   -5.8092   -3.5533    9.2448 C   0  0  1  0  0  0  0  0  0  0  0  0
   -4.5306   -4.0531    9.0953 C   0  0  2  0  0  0  0  0  0  0  0  0
   -3.4620   -3.1644    9.1166 C   0  0  0  0  0  0  0  0  0  0  0  0
   -2.2916   -3.5735    8.9849 O   0  0  0  0  0  0  0  0  0  0  0  0
   -4.6385   -5.3896    8.9499 N   0  0  0  0  0  0  0  0  0  0  0  0
   -5.9526   -5.7070    9.0161 C   0  0  0  0  0  0  0  0  0  0  0  0
   -6.6482   -4.5798    9.1968 N   0  0  1  0  0  0  0  0  0  0  0  0
  1  2  1  6  0  0  0
  1  3  1  0  0  0  0
  1  4  2  0  0  0  0
  1  6  1  0  0  0  0
  5  6  1  0  0  0  0
  7  5  1  1  0  0  0
  7  8  1  0  0  0  0
  7  9  1  0  0  0  0
  9 10  1  6  0  0  0
  9 11  1  0  0  0  0
 11 12  1  1  0  0  0
 11 13  1  0  0  0  0
 13  8  1  1  0  0  0
 13 24  1  0  0  0  0
 14 15  1  0  0  0  0
 14 20  1  0  0  0  0
 15 16  1  6  0  0  0
 15 17  1  0  0  0  0
 18 17  1  1  0  0  0
 18 19  1  0  0  0  0
 18 24  1  0  0  0  0
 19 20  1  6  0  0  0
 19 22  1  0  0  0  0
 20 21  2  0  0  0  0
 22 23  1  0  0  0  0
 24 23  1  1  0  0  0
M  CHG  1   3  -1
M  END
>  <CHROM.1>
178.18608179,-58.24252814,178.79502510,-95.29254805,-6.61387905,-5.24526881
10.40513823,-2.08711094,-0.30702244,-0.68823363

>  <Name>
ligand

>  <RI>
0

>  <Rbt.Current_Directory>
/home/itssahil/PROJECTS/Mol_Feturizer/New_Systems/rnas/3SLQ

>  <Rbt.Executable>
rbdock ($Id: //depot/dev/client3/rdock/2013.1/src/exe/rbdock.cxx#4 $)

>  <Rbt.Library>
libRbt.so (2013.1, Build901 2013/11/27)

>  <Rbt.Parameter_File>
/export/apps/rDock/src/rDock_2013.1_src/data/scripts/dock_solv.prm

>  <Rbt.Receptor>
prm/pocket_docking_8.prm

>  <SCORE>
-18.612

>  <SCORE.INTER>
-12.097

>  <SCORE.INTER.CONST>
1

>  <SCORE.INTER.POLAR>
0

>  <SCORE.INTER.ROT>
4

>  <SCORE.INTER.SOLV>
17.8331

>  <SCORE.INTER.VDW>
-20.2757

>  <SCORE.INTER.norm>
-0.504042

>  <SCORE.INTRA>
-6.51496

>  <SCORE.INTRA.DIHEDRAL>
-12.0476

>  <SCORE.INTRA.DIHEDRAL.0>
13.2525

>  <SCORE.INTRA.POLAR>
0

>  <SCORE.INTRA.POLAR.0>
0

>  <SCORE.INTRA.REPUL>
0

>  <SCORE.INTRA.REPUL.0>
0

>  <SCORE.INTRA.SOLV>
0.557996

>  <SCORE.INTRA.SOLV.lig_0>
-70.7221

>  <SCORE.INTRA.VDW>
-0.770174

>  <SCORE.INTRA.VDW.0>
-1.46337

>  <SCORE.INTRA.norm>
-0.271457

>  <SCORE.RESTR>
0

>  <SCORE.RESTR.CAVITY>
0

>  <SCORE.RESTR.norm>
0

>  <SCORE.SYSTEM>
0

>  <SCORE.SYSTEM.CONST>
0

>  <SCORE.SYSTEM.DIHEDRAL>
0

>  <SCORE.SYSTEM.SOLV>
0

>  <SCORE.SYSTEM.norm>
0

>  <SCORE.heavy>
24

>  <SCORE.norm>
-0.775499

>  <RMSD>
2.223

$$$$
ligand
 OpenBabel11021811483D
libRbt.so/2013.1/901 2013/11/27
 24 26  0  0  0  0  0  0  0  0999 V2000
   -6.7009   -7.5711   13.0916 P   0  0  1  0  0  0  0  0  0  0  0  0
   -6.6145   -6.5414   14.1979 O   0  0  0  0  0  0  0  0  0  0  0  0
   -5.4175   -7.8717   12.3539 O   0  5  0  0  0  0  0  0  0  0  0  0
   -7.4672   -8.8283   13.4748 O   0  0  0  0  0  0  0  0  0  0  0  0
   -8.9355   -6.4488   12.0616 C   0  0  0  0  0  0  0  0  0  0  0  0
   -7.5525   -6.8208   11.9301 O   0  0  0  0  0  0  0  0  0  0  0  0
   -9.4006   -5.7181   10.7984 C   0  0  1  0  0  0  0  0  0  0  0  0
   -8.6120   -4.5506   10.5355 O   0  0  0  0  0  0  0  0  0  0  0  0
   -9.3452   -6.5458    9.5258 C   0  0  1  0  0  0  0  0  0  0  0  0
  -10.6007   -7.2087    9.3495 O   0  0  0  0  0  0  0  0  0  0  0  0
   -9.1066   -5.5068    8.4424 C   0  0  1  0  0  0  0  0  0  0  0  0
  -10.3430   -4.8894    8.0572 O   0  0  0  0  0  0  0  0  0  0  0  0
   -8.3029   -4.4284    9.1415 C   0  0  2  0  0  0  0  0  0  0  0  0
   -3.8142   -2.0002    9.2517 N   0  0  0  0  0  0  0  0  0  0  0  0
   -5.0658   -1.4976    9.3544 C   0  0  1  0  0  0  0  0  0  0  0  0
   -5.2304   -0.1655    9.5184 N   0  0  0  0  0  0  0  0  0  0  0  0
   -6.1485   -2.3078    9.2948 N   0  0  0  0  0  0  0  0  0  0  0  0
   -5.9770   -3.6412    9.1298 C   0  0  1  0  0  0  0  0  0  0  0  0
   -4.7107   -4.1814    9.0204 C   0  0  2  0  0  0  0  0  0  0  0  0
   -3.6155   -3.3280    9.0856 C   0  0  0  0  0  0  0  0  0  0  0  0
   -2.4549   -3.7741    8.9912 O   0  0  0  0  0  0  0  0  0  0  0  0
   -4.8566   -5.5126    8.8608 N   0  0  0  0  0  0  0  0  0  0  0  0
   -6.1818   -5.7875    8.8791 C   0  0  0  0  0  0  0  0  0  0  0  0
   -6.8465   -4.6395    9.0447 N   0  0  1  0  0  0  0  0  0  0  0  0
  1  2  1  1  0  0  0
  1  3  1  0  0  0  0
  1  4  2  0  0  0  0
  1  6  1  0  0  0  0
  5  6  1  0  0  0  0
  7  5  1  1  0  0  0
  7  8  1  0  0  0  0
  7  9  1  0  0  0  0
  9 10  1  6  0  0  0
  9 11  1  0  0  0  0
 11 12  1  1  0  0  0
 11 13  1  0  0  0  0
 13  8  1  1  0  0  0
 13 24  1  0  0  0  0
 14 15  1  0  0  0  0
 14 20  1  0  0  0  0
 15 16  1  6  0  0  0
 15 17  1  0  0  0  0
 18 17  1  1  0  0  0
 18 19  1  0  0  0  0
 18 24  1  0  0  0  0
 19 20  1  6  0  0  0
 19 22  1  0  0  0  0
 20 21  2  0  0  0  0
 22 23  1  0  0  0  0
 24 23  1  1  0  0  0
M  CHG  1   3  -1
M  END
>  <CHROM.1>
-66.52092280,-58.03474871,177.98265645,-90.10533939,-6.84809378,-5.20325669
10.36271827,-2.15637174,-0.33212951,-0.77485014

>  <Name>
ligand

>  <RI>
0

>  <Rbt.Current_Directory>
/home/itssahil/PROJECTS/Mol_Feturizer/New_Systems/rnas/3SLQ

>  <Rbt.Executable>
rbdock ($Id: //depot/dev/client3/rdock/2013.1/src/exe/rbdock.cxx#4 $)

>  <Rbt.Library>
libRbt.so (2013.1, Build901 2013/11/27)

>  <Rbt.Parameter_File>
/export/apps/rDock/src/rDock_2013.1_src/data/scripts/dock_solv.prm

>  <Rbt.Receptor>
prm/pocket_docking_5.prm

>  <SCORE>
-18.3262

>  <SCORE.INTER>
-11.5329

>  <SCORE.INTER.CONST>
1

>  <SCORE.INTER.POLAR>
0

>  <SCORE.INTER.ROT>
4

>  <SCORE.INTER.SOLV>
18.8205

>  <SCORE.INTER.VDW>
-20.2288

>  <SCORE.INTER.norm>
-0.48054

>  <SCORE.INTRA>
-6.79323

>  <SCORE.INTRA.DIHEDRAL>
-11.97

>  <SCORE.INTRA.DIHEDRAL.0>
13.2525

>  <SCORE.INTRA.POLAR>
0

>  <SCORE.INTRA.POLAR.0>
0

>  <SCORE.INTRA.REPUL>
0

>  <SCORE.INTRA.REPUL.0>
0

>  <SCORE.INTRA.SOLV>
0.00262097

>  <SCORE.INTRA.SOLV.lig_0>
-70.7221

>  <SCORE.INTRA.VDW>
-0.809537

>  <SCORE.INTRA.VDW.0>
-1.46337

>  <SCORE.INTRA.norm>
-0.283051

>  <SCORE.RESTR>
0

>  <SCORE.RESTR.CAVITY>
0

>  <SCORE.RESTR.norm>
0

>  <SCORE.SYSTEM>
0

>  <SCORE.SYSTEM.CONST>
0

>  <SCORE.SYSTEM.DIHEDRAL>
0

>  <SCORE.SYSTEM.SOLV>
0

>  <SCORE.SYSTEM.norm>
0

>  <SCORE.heavy>
24

>  <SCORE.norm>
-0.763591

>  <RMSD>
2.267

$$$$
ligand
 OpenBabel11021811483D
libRbt.so/2013.1/901 2013/11/27
 24 26  0  0  0  0  0  0  0  0999 V2000
   -7.4731   -6.2682   14.2807 P   0  0  1  0  0  0  0  0  0  0  0  0
   -8.2107   -4.9587   14.0997 O   0  0  0  0  0  0  0  0  0  0  0  0
   -6.2919   -6.5038   13.3691 O   0  5  0  0  0  0  0  0  0  0  0  0
   -7.1743   -6.6147   15.7317 O   0  0  0  0  0  0  0  0  0  0  0  0
   -8.6448   -7.7365   12.3353 C   0  0  0  0  0  0  0  0  0  0  0  0
   -8.5164   -7.3806   13.7228 O   0  0  0  0  0  0  0  0  0  0  0  0
   -9.3362   -6.6048   11.5692 C   0  0  1  0  0  0  0  0  0  0  0  0
   -8.5499   -5.4066   11.5613 O   0  0  0  0  0  0  0  0  0  0  0  0
   -9.6333   -6.9102   10.1110 C   0  0  1  0  0  0  0  0  0  0  0  0
  -10.9387   -7.4876   10.0155 O   0  0  0  0  0  0  0  0  0  0  0  0
   -9.5787   -5.5432    9.4488 C   0  0  1  0  0  0  0  0  0  0  0  0
  -10.8244   -4.8521    9.6191 O   0  0  0  0  0  0  0  0  0  0  0  0
   -8.5624   -4.7784   10.2733 C   0  0  2  0  0  0  0  0  0  0  0  0
   -4.3346   -2.1240    9.2073 N   0  0  0  0  0  0  0  0  0  0  0  0
   -5.5256   -1.6900    9.6790 C   0  0  1  0  0  0  0  0  0  0  0  0
   -5.6933   -0.3729    9.9352 N   0  0  0  0  0  0  0  0  0  0  0  0
   -6.5452   -2.5534    9.8956 N   0  0  0  0  0  0  0  0  0  0  0  0
   -6.3712   -3.8715    9.6364 C   0  0  1  0  0  0  0  0  0  0  0  0
   -5.1663   -4.3422    9.1527 C   0  0  2  0  0  0  0  0  0  0  0  0
   -4.1349   -3.4351    8.9396 C   0  0  0  0  0  0  0  0  0  0  0  0
   -3.0311   -3.8177    8.5038 O   0  0  0  0  0  0  0  0  0  0  0  0
   -5.2948   -5.6746    8.9884 N   0  0  0  0  0  0  0  0  0  0  0  0
   -6.5474   -6.0183    9.3692 C   0  0  0  0  0  0  0  0  0  0  0  0
   -7.1858   -4.9111    9.7609 N   0  0  1  0  0  0  0  0  0  0  0  0
  1  2  1  6  0  0  0
  1  3  1  0  0  0  0
  1  4  2  0  0  0  0
  1  6  1  0  0  0  0
  5  6  1  0  0  0  0
  7  5  1  6  0  0  0
  7  8  1  0  0  0  0
  7  9  1  0  0  0  0
  9 10  1  1  0  0  0
  9 11  1  0  0  0  0
 11 12  1  1  0  0  0
 11 13  1  0  0  0  0
 13  8  1  1  0  0  0
 13 24  1  0  0  0  0
 14 15  1  0  0  0  0
 14 20  1  0  0  0  0
 15 16  1  6  0  0  0
 15 17  1  0  0  0  0
 18 17  1  1  0  0  0
 18 19  1  0  0  0  0
 18 24  1  0  0  0  0
 19 20  1  6  0  0  0
 19 22  1  0  0  0  0
 20 21  2  0  0  0  0
 22 23  1  0  0  0  0
 24 23  1  1  0  0  0
M  CHG  1   3  -1
M  END
>  <CHROM.1>
84.44952479,64.37531635,-72.53520577,-110.17140952,-7.29988205,-5.11550497
11.06955348,-2.27994482,-0.51782587,-1.19011406

>  <Name>
ligand

>  <RI>
0

>  <Rbt.Current_Directory>
/home/itssahil/PROJECTS/Mol_Feturizer/New_Systems/rnas/3SLQ

>  <Rbt.Executable>
rbdock ($Id: //depot/dev/client3/rdock/2013.1/src/exe/rbdock.cxx#4 $)

>  <Rbt.Library>
libRbt.so (2013.1, Build901 2013/11/27)

>  <Rbt.Parameter_File>
/export/apps/rDock/src/rDock_2013.1_src/data/scripts/dock_solv.prm

>  <Rbt.Receptor>
prm/pocket_docking_5.prm

>  <SCORE>
-17.7585

>  <SCORE.INTER>
-13.0183

>  <SCORE.INTER.CONST>
1

>  <SCORE.INTER.POLAR>
0

>  <SCORE.INTER.ROT>
4

>  <SCORE.INTER.SOLV>
23.3221

>  <SCORE.INTER.VDW>
-22.7196

>  <SCORE.INTER.norm>
-0.542431

>  <SCORE.INTRA>
-4.74017

>  <SCORE.INTRA.DIHEDRAL>
-10.3849

>  <SCORE.INTRA.DIHEDRAL.0>
13.2525

>  <SCORE.INTRA.POLAR>
0

>  <SCORE.INTRA.POLAR.0>
0

>  <SCORE.INTRA.REPUL>
0

>  <SCORE.INTRA.REPUL.0>
0

>  <SCORE.INTRA.SOLV>
2.36451

>  <SCORE.INTRA.SOLV.lig_0>
-70.7221

>  <SCORE.INTRA.VDW>
-0.729963

>  <SCORE.INTRA.VDW.0>
-1.46337

>  <SCORE.INTRA.norm>
-0.197507

>  <SCORE.RESTR>
0

>  <SCORE.RESTR.CAVITY>
0

>  <SCORE.RESTR.norm>
0

>  <SCORE.SYSTEM>
0

>  <SCORE.SYSTEM.CONST>
0

>  <SCORE.SYSTEM.DIHEDRAL>
0

>  <SCORE.SYSTEM.SOLV>
0

>  <SCORE.SYSTEM.norm>
0

>  <SCORE.heavy>
24

>  <SCORE.norm>
-0.739938

>  <RMSD>
2.312

$$$$
ligand
 OpenBabel11021811483D
libRbt.so/2013.1/901 2013/11/27
 24 26  0  0  0  0  0  0  0  0999 V2000
   -7.3608   -7.1992   14.9671 P   0  0  1  0  0  0  0  0  0  0  0  0
   -6.7845   -6.1969   15.9442 O   0  0  0  0  0  0  0  0  0  0  0  0
   -6.7003   -8.5573   14.9321 O   0  5  0  0  0  0  0  0  0  0  0  0
   -8.8796   -7.2845   14.9916 O   0  0  0  0  0  0  0  0  0  0  0  0
   -7.4311   -5.3808   12.9666 C   0  0  0  0  0  0  0  0  0  0  0  0
   -6.9326   -6.6137   13.5142 O   0  0  0  0  0  0  0  0  0  0  0  0
   -7.8174   -5.5818   11.4982 C   0  0  1  0  0  0  0  0  0  0  0  0
   -8.3804   -4.3942   10.9264 O   0  0  0  0  0  0  0  0  0  0  0  0
   -6.6687   -5.9724   10.5841 C   0  0  1  0  0  0  0  0  0  0  0  0
   -6.5796   -7.3995   10.5364 O   0  0  0  0  0  0  0  0  0  0  0  0
   -7.0790   -5.3945    9.2395 C   0  0  1  0  0  0  0  0  0  0  0  0
   -7.9900   -6.2775    8.5698 O   0  0  0  0  0  0  0  0  0  0  0  0
   -7.8843   -4.1625    9.6021 C   0  0  2  0  0  0  0  0  0  0  0  0
   -3.1320   -2.3927    9.0190 N   0  0  0  0  0  0  0  0  0  0  0  0
   -3.6058   -3.6500    8.8636 C   0  0  1  0  0  0  0  0  0  0  0  0
   -2.7555   -4.6345    8.4945 N   0  0  0  0  0  0  0  0  0  0  0  0
   -4.9131   -3.9322    9.0723 N   0  0  0  0  0  0  0  0  0  0  0  0
   -5.7598   -2.9418    9.4424 C   0  0  1  0  0  0  0  0  0  0  0  0
   -5.3030   -1.6493    9.6100 C   0  0  2  0  0  0  0  0  0  0  0  0
   -3.9564   -1.3856    9.3887 C   0  0  0  0  0  0  0  0  0  0  0  0
   -3.5025   -0.2327    9.5289 O   0  0  0  0  0  0  0  0  0  0  0  0
   -6.3593   -0.8973    9.9808 N   0  0  0  0  0  0  0  0  0  0  0  0
   -7.4434   -1.7059   10.0331 C   0  0  0  0  0  0  0  0  0  0  0  0
   -7.0607   -2.9431    9.7017 N   0  0  1  0  0  0  0  0  0  0  0  0
  1  2  1  1  0  0  0
  1  3  1  0  0  0  0
  1  4  2  0  0  0  0
  1  6  1  0  0  0  0
  5  6  1  0  0  0  0
  7  5  1  1  0  0  0
  7  8  1  0  0  0  0
  7  9  1  0  0  0  0
  9 10  1  6  0  0  0
  9 11  1  0  0  0  0
 11 12  1  1  0  0  0
 11 13  1  0  0  0  0
 13  8  1  1  0  0  0
 13 24  1  0  0  0  0
 14 15  1  0  0  0  0
 14 20  1  0  0  0  0
 15 16  1  1  0  0  0
 15 17  1  0  0  0  0
 18 17  1  6  0  0  0
 18 19  1  0  0  0  0
 18 24  1  0  0  0  0
 19 20  1  1  0  0  0
 19 22  1  0  0  0  0
 20 21  2  0  0  0  0
 22 23  1  0  0  0  0
 24 23  1  6  0  0  0
M  CHG  1   3  -1
M  END
>  <CHROM.1>
-66.36631518,177.22333662,-135.25633705,117.70055101,-6.36316177,-4.69646538
11.20040344,-2.18693801,-0.89866362,-1.32537634

>  <Name>
ligand

>  <RI>
0

>  <Rbt.Current_Directory>
/home/itssahil/PROJECTS/Mol_Feturizer/New_Systems/rnas/3SLQ

>  <Rbt.Executable>
rbdock ($Id: //depot/dev/client3/rdock/2013.1/src/exe/rbdock.cxx#4 $)

>  <Rbt.Library>
libRbt.so (2013.1, Build901 2013/11/27)

>  <Rbt.Parameter_File>
/export/apps/rDock/src/rDock_2013.1_src/data/scripts/dock_solv.prm

>  <Rbt.Receptor>
prm/pocket_docking_2.prm

>  <SCORE>
-14.5004

>  <SCORE.INTER>
-13.048

>  <SCORE.INTER.CONST>
1

>  <SCORE.INTER.POLAR>
0

>  <SCORE.INTER.ROT>
4

>  <SCORE.INTER.SOLV>
25.9507

>  <SCORE.INTER.VDW>
-23.6155

>  <SCORE.INTER.norm>
-0.543665

>  <SCORE.INTRA>
-1.6963

>  <SCORE.INTRA.DIHEDRAL>
-5.84425

>  <SCORE.INTRA.DIHEDRAL.0>
13.2525

>  <SCORE.INTRA.POLAR>
0

>  <SCORE.INTRA.POLAR.0>
0

>  <SCORE.INTRA.REPUL>
0

>  <SCORE.INTRA.REPUL.0>
0

>  <SCORE.INTRA.SOLV>
0.535453

>  <SCORE.INTRA.SOLV.lig_0>
-70.7221

>  <SCORE.INTRA.VDW>
0.958095

>  <SCORE.INTRA.VDW.0>
-1.46337

>  <SCORE.INTRA.norm>
-0.0706793

>  <SCORE.RESTR>
0.243869

>  <SCORE.RESTR.CAVITY>
0.243869

>  <SCORE.RESTR.norm>
0.0101612

>  <SCORE.SYSTEM>
0

>  <SCORE.SYSTEM.CONST>
0

>  <SCORE.SYSTEM.DIHEDRAL>
0

>  <SCORE.SYSTEM.SOLV>
0

>  <SCORE.SYSTEM.norm>
0

>  <SCORE.heavy>
24

>  <SCORE.norm>
-0.604183

>  <RMSD>
2.394

$$$$
ligand
 OpenBabel11021811483D
libRbt.so/2013.1/901 2013/11/27
 24 26  0  0  0  0  0  0  0  0999 V2000
   -7.2052   -7.3481   14.8929 P   0  0  1  0  0  0  0  0  0  0  0  0
   -7.0700   -6.0469   15.6545 O   0  0  0  0  0  0  0  0  0  0  0  0
   -5.9169   -8.0353   14.5059 O   0  5  0  0  0  0  0  0  0  0  0  0
   -8.2287   -8.3069   15.4827 O   0  0  0  0  0  0  0  0  0  0  0  0
   -7.2919   -5.7233   12.7329 C   0  0  0  0  0  0  0  0  0  0  0  0
   -7.7562   -6.8887   13.4360 O   0  0  0  0  0  0  0  0  0  0  0  0
   -7.8071   -5.7455   11.2907 C   0  0  1  0  0  0  0  0  0  0  0  0
   -8.3767   -4.4875   10.9072 O   0  0  0  0  0  0  0  0  0  0  0  0
   -6.7531   -6.0555   10.2416 C   0  0  1  0  0  0  0  0  0  0  0  0
   -6.7155   -7.4694   10.0265 O   0  0  0  0  0  0  0  0  0  0  0  0
   -7.2559   -5.3179    9.0114 C   0  0  1  0  0  0  0  0  0  0  0  0
   -8.2488   -6.0969    8.3292 O   0  0  0  0  0  0  0  0  0  0  0  0
   -7.9866   -4.1172    9.5790 C   0  0  2  0  0  0  0  0  0  0  0  0
   -3.1719   -2.4973    9.0779 N   0  0  0  0  0  0  0  0  0  0  0  0
   -3.6927   -3.7256    8.8557 C   0  0  1  0  0  0  0  0  0  0  0  0
   -2.8804   -4.7197    8.4308 N   0  0  0  0  0  0  0  0  0  0  0  0
   -5.0094   -3.9697    9.0529 N   0  0  0  0  0  0  0  0  0  0  0  0
   -5.8179   -2.9700    9.4792 C   0  0  1  0  0  0  0  0  0  0  0  0
   -5.3127   -1.7066    9.7156 C   0  0  2  0  0  0  0  0  0  0  0  0
   -3.9573   -1.4818    9.5046 C   0  0  0  0  0  0  0  0  0  0  0  0
   -3.4603   -0.3561    9.7061 O   0  0  0  0  0  0  0  0  0  0  0  0
   -6.3395   -0.9369   10.1303 N   0  0  0  0  0  0  0  0  0  0  0  0
   -7.4532   -1.7060   10.1418 C   0  0  0  0  0  0  0  0  0  0  0  0
   -7.1177   -2.9368    9.7422 N   0  0  1  0  0  0  0  0  0  0  0  0
  1  2  1  1  0  0  0
  1  3  1  0  0  0  0
  1  4  2  0  0  0  0
  1  6  1  0  0  0  0
  5  6  1  0  0  0  0
  7  5  1  1  0  0  0
  7  8  1  0  0  0  0
  7  9  1  0  0  0  0
  9 10  1  6  0  0  0
  9 11  1  0  0  0  0
 11 12  1  1  0  0  0
 11 13  1  0  0  0  0
 13  8  1  1  0  0  0
 13 24  1  0  0  0  0
 14 15  1  0  0  0  0
 14 20  1  0  0  0  0
 15 16  1  1  0  0  0
 15 17  1  0  0  0  0
 18 17  1  6  0  0  0
 18 19  1  0  0  0  0
 18 24  1  0  0  0  0
 19 20  1  1  0  0  0
 19 22  1  0  0  0  0
 20 21  2  0  0  0  0
 22 23  1  0  0  0  0
 24 23  1  6  0  0  0
M  CHG  1   3  -1
M  END
>  <CHROM.1>
40.50077842,132.28251037,168.65298501,111.78891254,-6.37546677,-4.77949455
11.13367716,-2.11325452,-0.85243989,-1.22666417

>  <Name>
ligand

>  <RI>
0

>  <Rbt.Current_Directory>
/home/itssahil/PROJECTS/Mol_Feturizer/New_Systems/rnas/3SLQ

>  <Rbt.Executable>
rbdock ($Id: //depot/dev/client3/rdock/2013.1/src/exe/rbdock.cxx#4 $)

>  <Rbt.Library>
libRbt.so (2013.1, Build901 2013/11/27)

>  <Rbt.Parameter_File>
/export/apps/rDock/src/rDock_2013.1_src/data/scripts/dock_solv.prm

>  <Rbt.Receptor>
prm/pocket_docking_2.prm

>  <SCORE>
-12.1814

>  <SCORE.INTER>
-10.6114

>  <SCORE.INTER.CONST>
1

>  <SCORE.INTER.POLAR>
0

>  <SCORE.INTER.ROT>
4

>  <SCORE.INTER.SOLV>
25.9496

>  <SCORE.INTER.VDW>
-21.9908

>  <SCORE.INTER.norm>
-0.442142

>  <SCORE.INTRA>
-1.82381

>  <SCORE.INTRA.DIHEDRAL>
-6.10308

>  <SCORE.INTRA.DIHEDRAL.0>
13.2525

>  <SCORE.INTRA.POLAR>
0

>  <SCORE.INTRA.POLAR.0>
0

>  <SCORE.INTRA.REPUL>
0

>  <SCORE.INTRA.REPUL.0>
0

>  <SCORE.INTRA.SOLV>
0.196798

>  <SCORE.INTRA.SOLV.lig_0>
-70.7221

>  <SCORE.INTRA.VDW>
1.12934

>  <SCORE.INTRA.VDW.0>
-1.46337

>  <SCORE.INTRA.norm>
-0.0759919

>  <SCORE.RESTR>
0.25376

>  <SCORE.RESTR.CAVITY>
0.25376

>  <SCORE.RESTR.norm>
0.0105733

>  <SCORE.SYSTEM>
0

>  <SCORE.SYSTEM.CONST>
0

>  <SCORE.SYSTEM.DIHEDRAL>
0

>  <SCORE.SYSTEM.SOLV>
0

>  <SCORE.SYSTEM.norm>
0

>  <SCORE.heavy>
24

>  <SCORE.norm>
-0.50756

>  <RMSD>
2.400

$$$$
ligand
 OpenBabel11021811483D
libRbt.so/2013.1/901 2013/11/27
 24 26  0  0  0  0  0  0  0  0999 V2000
   -7.2557   -7.2637   14.4909 P   0  0  1  0  0  0  0  0  0  0  0  0
   -7.7590   -7.0377   15.9006 O   0  0  0  0  0  0  0  0  0  0  0  0
   -5.9208   -7.9583   14.3590 O   0  5  0  0  0  0  0  0  0  0  0  0
   -8.3051   -7.8215   13.5410 O   0  0  0  0  0  0  0  0  0  0  0  0
   -6.1545   -5.5045   12.7570 C   0  0  0  0  0  0  0  0  0  0  0  0
   -6.8769   -5.7724   13.9714 O   0  0  0  0  0  0  0  0  0  0  0  0
   -7.1111   -5.5480   11.5617 C   0  0  1  0  0  0  0  0  0  0  0  0
   -7.8333   -4.3194   11.4102 O   0  0  0  0  0  0  0  0  0  0  0  0
   -6.4445   -5.8002   10.2201 C   0  0  1  0  0  0  0  0  0  0  0  0
   -6.4128   -7.2095    9.9763 O   0  0  0  0  0  0  0  0  0  0  0  0
   -7.3559   -5.0849    9.2362 C   0  0  1  0  0  0  0  0  0  0  0  0
   -8.4794   -5.9112    8.8999 O   0  0  0  0  0  0  0  0  0  0  0  0
   -7.9166   -3.9250   10.0350 C   0  0  2  0  0  0  0  0  0  0  0  0
   -3.2367   -2.2356    8.8945 N   0  0  0  0  0  0  0  0  0  0  0  0
   -3.7096   -3.5025    8.9230 C   0  0  1  0  0  0  0  0  0  0  0  0
   -2.8805   -4.5234    8.6089 N   0  0  0  0  0  0  0  0  0  0  0  0
   -4.9952   -3.7583    9.2607 N   0  0  0  0  0  0  0  0  0  0  0  0
   -5.8207   -2.7314    9.5749 C   0  0  1  0  0  0  0  0  0  0  0  0
   -5.3641   -1.4282    9.5557 C   0  0  2  0  0  0  0  0  0  0  0  0
   -4.0400   -1.1922    9.2047 C   0  0  0  0  0  0  0  0  0  0  0  0
   -3.5871   -0.0308    9.1749 O   0  0  0  0  0  0  0  0  0  0  0  0
   -6.3964   -0.6378    9.9142 N   0  0  0  0  0  0  0  0  0  0  0  0
   -7.4665   -1.4348   10.1417 C   0  0  0  0  0  0  0  0  0  0  0  0
   -7.0987   -2.7023    9.9294 N   0  0  1  0  0  0  0  0  0  0  0  0
  1  2  1  1  0  0  0
  1  3  1  0  0  0  0
  1  4  2  0  0  0  0
  1  6  1  0  0  0  0
  5  6  1  0  0  0  0
  7  5  1  1  0  0  0
  7  8  1  0  0  0  0
  7  9  1  0  0  0  0
  9 10  1  6  0  0  0
  9 11  1  0  0  0  0
 11 12  1  1  0  0  0
 11 13  1  0  0  0  0
 13  8  1  1  0  0  0
 13 24  1  0  0  0  0
 14 15  1  0  0  0  0
 14 20  1  0  0  0  0
 15 16  1  1  0  0  0
 15 17  1  0  0  0  0
 18 17  1  6  0  0  0
 18 19  1  0  0  0  0
 18 24  1  0  0  0  0
 19 20  1  1  0  0  0
 19 22  1  0  0  0  0
 20 21  2  0  0  0  0
 22 23  1  0  0  0  0
 24 23  1  6  0  0  0
M  CHG  1   3  -1
M  END
>  <CHROM.1>
169.58519246,81.37146864,81.75057313,93.70878703,-6.28139201,-4.56657227
11.09376538,-2.03731512,-0.72671419,-1.06839552

>  <Name>
ligand

>  <RI>
0

>  <Rbt.Current_Directory>
/home/itssahil/PROJECTS/Mol_Feturizer/New_Systems/rnas/3SLQ

>  <Rbt.Executable>
rbdock ($Id: //depot/dev/client3/rdock/2013.1/src/exe/rbdock.cxx#4 $)

>  <Rbt.Library>
libRbt.so (2013.1, Build901 2013/11/27)

>  <Rbt.Parameter_File>
/export/apps/rDock/src/rDock_2013.1_src/data/scripts/dock_solv.prm

>  <Rbt.Receptor>
prm/pocket_docking_2.prm

>  <SCORE>
-15.0971

>  <SCORE.INTER>
-13.0761

>  <SCORE.INTER.CONST>
1

>  <SCORE.INTER.POLAR>
0

>  <SCORE.INTER.ROT>
4

>  <SCORE.INTER.SOLV>
24.3785

>  <SCORE.INTER.VDW>
-23.1102

>  <SCORE.INTER.norm>
-0.544838

>  <SCORE.INTRA>
-2.06067

>  <SCORE.INTRA.DIHEDRAL>
-8.28166

>  <SCORE.INTRA.DIHEDRAL.0>
13.2525

>  <SCORE.INTRA.POLAR>
0

>  <SCORE.INTRA.POLAR.0>
0

>  <SCORE.INTRA.REPUL>
0

>  <SCORE.INTRA.REPUL.0>
0

>  <SCORE.INTRA.SOLV>
2.91456

>  <SCORE.INTRA.SOLV.lig_0>
-70.7221

>  <SCORE.INTRA.VDW>
0.622883

>  <SCORE.INTRA.VDW.0>
-1.46337

>  <SCORE.INTRA.norm>
-0.0858611

>  <SCORE.RESTR>
0.0396781

>  <SCORE.RESTR.CAVITY>
0.0396781

>  <SCORE.RESTR.norm>
0.00165325

>  <SCORE.SYSTEM>
0

>  <SCORE.SYSTEM.CONST>
0

>  <SCORE.SYSTEM.DIHEDRAL>
0

>  <SCORE.SYSTEM.SOLV>
0

>  <SCORE.SYSTEM.norm>
0

>  <SCORE.heavy>
24

>  <SCORE.norm>
-0.629046

>  <RMSD>
2.438

$$$$
ligand
 OpenBabel11021811483D
libRbt.so/2013.1/901 2013/11/27
 24 26  0  0  0  0  0  0  0  0999 V2000
   -7.6691   -7.0214   14.5031 P   0  0  1  0  0  0  0  0  0  0  0  0
   -7.5620   -6.9632   16.0119 O   0  0  0  0  0  0  0  0  0  0  0  0
   -6.7861   -8.0301   13.8068 O   0  5  0  0  0  0  0  0  0  0  0  0
   -9.0991   -7.0345   13.9841 O   0  0  0  0  0  0  0  0  0  0  0  0
   -6.2141   -5.4960   12.8091 C   0  0  0  0  0  0  0  0  0  0  0  0
   -6.9894   -5.6304   14.0128 O   0  0  0  0  0  0  0  0  0  0  0  0
   -7.1366   -5.5436   11.5874 C   0  0  1  0  0  0  0  0  0  0  0  0
   -7.8496   -4.3134   11.4080 O   0  0  0  0  0  0  0  0  0  0  0  0
   -6.4332   -5.8064   10.2668 C   0  0  1  0  0  0  0  0  0  0  0  0
   -6.3998   -7.2174   10.0327 O   0  0  0  0  0  0  0  0  0  0  0  0
   -7.3138   -5.0941    9.2532 C   0  0  1  0  0  0  0  0  0  0  0  0
   -8.4304   -5.9185    8.8902 O   0  0  0  0  0  0  0  0  0  0  0  0
   -7.8926   -3.9273   10.0286 C   0  0  2  0  0  0  0  0  0  0  0  0
   -3.2125   -2.2469    8.8756 N   0  0  0  0  0  0  0  0  0  0  0  0
   -3.6937   -3.5109    8.8842 C   0  0  1  0  0  0  0  0  0  0  0  0
   -2.8745   -4.5310    8.5423 N   0  0  0  0  0  0  0  0  0  0  0  0
   -4.9776   -3.7648    9.2293 N   0  0  0  0  0  0  0  0  0  0  0  0
   -5.7931   -2.7388    9.5713 C   0  0  1  0  0  0  0  0  0  0  0  0
   -5.3280   -1.4385    9.5729 C   0  0  2  0  0  0  0  0  0  0  0  0
   -4.0058   -1.2044    9.2137 C   0  0  0  0  0  0  0  0  0  0  0  0
   -3.5453   -0.0457    9.2019 O   0  0  0  0  0  0  0  0  0  0  0  0
   -6.3515   -0.6484    9.9566 N   0  0  0  0  0  0  0  0  0  0  0  0
   -7.4247   -1.4426   10.1790 C   0  0  0  0  0  0  0  0  0  0  0  0
   -7.0675   -2.7082    9.9387 N   0  0  1  0  0  0  0  0  0  0  0  0
  1  2  1  1  0  0  0
  1  3  1  0  0  0  0
  1  4  2  0  0  0  0
  1  6  1  0  0  0  0
  5  6  1  0  0  0  0
  7  5  1  1  0  0  0
  7  8  1  0  0  0  0
  7  9  1  0  0  0  0
  9 10  1  6  0  0  0
  9 11  1  0  0  0  0
 11 12  1  1  0  0  0
 11 13  1  0  0  0  0
 13  8  1  1  0  0  0
 13 24  1  0  0  0  0
 14 15  1  0  0  0  0
 14 20  1  0  0  0  0
 15 16  1  1  0  0  0
 15 17  1  0  0  0  0
 18 17  1  6  0  0  0
 18 19  1  0  0  0  0
 18 24  1  0  0  0  0
 19 20  1  1  0  0  0
 19 22  1  0  0  0  0
 20 21  2  0  0  0  0
 22 23  1  0  0  0  0
 24 23  1  6  0  0  0
M  CHG  1   3  -1
M  END
>  <CHROM.1>
144.94172865,76.07498045,73.02396779,96.33542457,-6.37476200,-4.50791889
11.10325978,2.85346985,-1.14511164,-2.65898534

>  <Name>
ligand

>  <RI>
0

>  <Rbt.Current_Directory>
/home/itssahil/PROJECTS/Mol_Feturizer/New_Systems/rnas/3SLQ

>  <Rbt.Executable>
rbdock ($Id: //depot/dev/client3/rdock/2013.1/src/exe/rbdock.cxx#4 $)

>  <Rbt.Library>
libRbt.so (2013.1, Build901 2013/11/27)

>  <Rbt.Parameter_File>
/export/apps/rDock/src/rDock_2013.1_src/data/scripts/dock_solv.prm

>  <Rbt.Receptor>
prm/pocket_docking_2.prm

>  <SCORE>
-15.668

>  <SCORE.INTER>
-13.9864

>  <SCORE.INTER.CONST>
1

>  <SCORE.INTER.POLAR>
0

>  <SCORE.INTER.ROT>
4

>  <SCORE.INTER.SOLV>
24.897

>  <SCORE.INTER.VDW>
-23.8899

>  <SCORE.INTER.norm>
-0.582766

>  <SCORE.INTRA>
-1.74022

>  <SCORE.INTRA.DIHEDRAL>
-8.83875

>  <SCORE.INTRA.DIHEDRAL.0>
13.2525

>  <SCORE.INTRA.POLAR>
0

>  <SCORE.INTRA.POLAR.0>
0

>  <SCORE.INTRA.REPUL>
0

>  <SCORE.INTRA.REPUL.0>
0

>  <SCORE.INTRA.SOLV>
3.36172

>  <SCORE.INTRA.SOLV.lig_0>
-70.7221

>  <SCORE.INTRA.VDW>
0.998292

>  <SCORE.INTRA.VDW.0>
-1.46337

>  <SCORE.INTRA.norm>
-0.0725093

>  <SCORE.RESTR>
0.0585731

>  <SCORE.RESTR.CAVITY>
0.0585731

>  <SCORE.RESTR.norm>
0.00244055

>  <SCORE.SYSTEM>
0

>  <SCORE.SYSTEM.CONST>
0

>  <SCORE.SYSTEM.DIHEDRAL>
0

>  <SCORE.SYSTEM.SOLV>
0

>  <SCORE.SYSTEM.norm>
0

>  <SCORE.heavy>
24

>  <SCORE.norm>
-0.652834

>  <RMSD>
2.466

$$$$
ligand
 OpenBabel11021811483D
libRbt.so/2013.1/901 2013/11/27
 24 26  0  0  0  0  0  0  0  0999 V2000
   -7.8390  -10.3399   11.2321 P   0  0  1  0  0  0  0  0  0  0  0  0
   -7.7185  -11.7657   10.7379 O   0  0  0  0  0  0  0  0  0  0  0  0
   -9.0319   -9.5570   10.7361 O   0  5  0  0  0  0  0  0  0  0  0  0
   -7.6131  -10.1822   12.7283 O   0  0  0  0  0  0  0  0  0  0  0  0
   -6.1792   -8.2439   10.8251 C   0  0  0  0  0  0  0  0  0  0  0  0
   -6.6289   -9.5646   10.4760 O   0  0  0  0  0  0  0  0  0  0  0  0
   -7.2432   -7.2123   10.4383 C   0  0  1  0  0  0  0  0  0  0  0  0
   -6.9067   -5.8983   10.9010 O   0  0  0  0  0  0  0  0  0  0  0  0
   -7.4829   -7.0725    8.9447 C   0  0  1  0  0  0  0  0  0  0  0  0
   -8.5211   -7.9767    8.5557 O   0  0  0  0  0  0  0  0  0  0  0  0
   -7.9198   -5.6245    8.7943 C   0  0  1  0  0  0  0  0  0  0  0  0
   -9.3167   -5.4875    9.0911 O   0  0  0  0  0  0  0  0  0  0  0  0
   -7.1852   -4.9040    9.9074 C   0  0  2  0  0  0  0  0  0  0  0  0
   -4.4412   -0.6250    9.4414 N   0  0  0  0  0  0  0  0  0  0  0  0
   -5.7164   -0.7864    9.8625 C   0  0  1  0  0  0  0  0  0  0  0  0
   -6.4299    0.2994   10.2374 N   0  0  0  0  0  0  0  0  0  0  0  0
   -6.2831   -2.0147    9.9121 N   0  0  0  0  0  0  0  0  0  0  0  0
   -5.5635   -3.0984    9.5346 C   0  0  1  0  0  0  0  0  0  0  0  0
   -4.2600   -2.9627    9.0989 C   0  0  2  0  0  0  0  0  0  0  0  0
   -3.7011   -1.6907    9.0582 C   0  0  0  0  0  0  0  0  0  0  0  0
   -2.5276   -1.5235    8.6712 O   0  0  0  0  0  0  0  0  0  0  0  0
   -3.8111   -4.1966    8.7911 N   0  0  0  0  0  0  0  0  0  0  0  0
   -4.8122   -5.0734    9.0385 C   0  0  0  0  0  0  0  0  0  0  0  0
   -5.8677   -4.3889    9.4906 N   0  0  1  0  0  0  0  0  0  0  0  0
  1  2  1  6  0  0  0
  1  3  1  0  0  0  0
  1  4  2  0  0  0  0
  1  6  1  0  0  0  0
  5  6  1  0  0  0  0
  7  5  1  6  0  0  0
  7  8  1  0  0  0  0
  7  9  1  0  0  0  0
  9 10  1  1  0  0  0
  9 11  1  0  0  0  0
 11 12  1  1  0  0  0
 11 13  1  0  0  0  0
 13  8  1  1  0  0  0
 13 24  1  0  0  0  0
 14 15  1  0  0  0  0
 14 20  1  0  0  0  0
 15 16  1  6  0  0  0
 15 17  1  0  0  0  0
 18 17  1  1  0  0  0
 18 19  1  0  0  0  0
 18 24  1  0  0  0  0
 19 20  1  6  0  0  0
 19 22  1  0  0  0  0
 20 21  2  0  0  0  0
 22 23  1  0  0  0  0
 24 23  1  1  0  0  0
M  CHG  1   3  -1
M  END
>  <CHROM.1>
-167.37794916,173.49349198,-69.87513076,-124.87638364,-6.51761016,-5.81912694
9.95617163,-1.92396422,-0.00324267,-0.18216565

>  <Name>
ligand

>  <RI>
0

>  <Rbt.Current_Directory>
/home/itssahil/PROJECTS/Mol_Feturizer/New_Systems/rnas/3SLQ

>  <Rbt.Executable>
rbdock ($Id: //depot/dev/client3/rdock/2013.1/src/exe/rbdock.cxx#4 $)

>  <Rbt.Library>
libRbt.so (2013.1, Build901 2013/11/27)

>  <Rbt.Parameter_File>
/export/apps/rDock/src/rDock_2013.1_src/data/scripts/dock_solv.prm

>  <Rbt.Receptor>
prm/pocket_docking_8.prm

>  <SCORE>
-18.4204

>  <SCORE.INTER>
-14.0001

>  <SCORE.INTER.CONST>
1

>  <SCORE.INTER.POLAR>
0

>  <SCORE.INTER.ROT>
4

>  <SCORE.INTER.SOLV>
17.1247

>  <SCORE.INTER.VDW>
-21.3083

>  <SCORE.INTER.norm>
-0.583337

>  <SCORE.INTRA>
-4.42035

>  <SCORE.INTRA.DIHEDRAL>
-11.1672

>  <SCORE.INTRA.DIHEDRAL.0>
13.2525

>  <SCORE.INTRA.POLAR>
0

>  <SCORE.INTRA.POLAR.0>
0

>  <SCORE.INTRA.REPUL>
0

>  <SCORE.INTRA.REPUL.0>
0

>  <SCORE.INTRA.SOLV>
4.16728

>  <SCORE.INTRA.SOLV.lig_0>
-70.7221

>  <SCORE.INTRA.VDW>
-0.920366

>  <SCORE.INTRA.VDW.0>
-1.46337

>  <SCORE.INTRA.norm>
-0.184181

>  <SCORE.RESTR>
0

>  <SCORE.RESTR.CAVITY>
0

>  <SCORE.RESTR.norm>
0

>  <SCORE.SYSTEM>
0

>  <SCORE.SYSTEM.CONST>
0

>  <SCORE.SYSTEM.DIHEDRAL>
0

>  <SCORE.SYSTEM.SOLV>
0

>  <SCORE.SYSTEM.norm>
0

>  <SCORE.heavy>
24

>  <SCORE.norm>
-0.767518

>  <RMSD>
2.471

$$$$
ligand
 OpenBabel11021811483D
libRbt.so/2013.1/901 2013/11/27
 24 26  0  0  0  0  0  0  0  0999 V2000
   -9.4050   -7.0230   14.3370 P   0  0  1  0  0  0  0  0  0  0  0  0
  -10.3635   -6.2869   15.2486 O   0  0  0  0  0  0  0  0  0  0  0  0
   -7.9426   -6.6719   14.4781 O   0  5  0  0  0  0  0  0  0  0  0  0
   -9.6454   -8.5237   14.2683 O   0  0  0  0  0  0  0  0  0  0  0  0
   -9.2407   -6.9848   11.6379 C   0  0  0  0  0  0  0  0  0  0  0  0
   -9.7249   -6.4140   12.8660 O   0  0  0  0  0  0  0  0  0  0  0  0
   -9.6950   -6.1295   10.4514 C   0  0  1  0  0  0  0  0  0  0  0  0
   -8.9845   -4.8865   10.3855 O   0  0  0  0  0  0  0  0  0  0  0  0
   -9.5129   -6.7789    9.0902 C   0  0  1  0  0  0  0  0  0  0  0  0
  -10.7042   -7.4974    8.7568 O   0  0  0  0  0  0  0  0  0  0  0  0
   -9.2989   -5.5939    8.1627 C   0  0  1  0  0  0  0  0  0  0  0  0
  -10.5573   -5.0175    7.7851 O   0  0  0  0  0  0  0  0  0  0  0  0
   -8.6154   -4.5631    9.0391 C   0  0  2  0  0  0  0  0  0  0  0  0
   -4.3371   -1.8071    9.4359 N   0  0  0  0  0  0  0  0  0  0  0  0
   -5.6270   -1.4048    9.4958 C   0  0  1  0  0  0  0  0  0  0  0  0
   -5.9012   -0.0956    9.6939 N   0  0  0  0  0  0  0  0  0  0  0  0
   -6.6402   -2.2921    9.3600 N   0  0  0  0  0  0  0  0  0  0  0  0
   -6.3591   -3.6021    9.1611 C   0  0  1  0  0  0  0  0  0  0  0  0
   -5.0512   -4.0405    9.0940 C   0  0  2  0  0  0  0  0  0  0  0  0
   -4.0291   -3.1095    9.2374 C   0  0  0  0  0  0  0  0  0  0  0  0
   -2.8346   -3.4628    9.1832 O   0  0  0  0  0  0  0  0  0  0  0  0
   -5.0866   -5.3726    8.8858 N   0  0  0  0  0  0  0  0  0  0  0  0
   -6.3860   -5.7475    8.8333 C   0  0  0  0  0  0  0  0  0  0  0  0
   -7.1442   -4.6598    9.0039 N   0  0  1  0  0  0  0  0  0  0  0  0
  1  2  1  1  0  0  0
  1  3  1  0  0  0  0
  1  4  2  0  0  0  0
  1  6  1  0  0  0  0
  5  6  1  0  0  0  0
  7  5  1  1  0  0  0
  7  8  1  0  0  0  0
  7  9  1  0  0  0  0
  9 10  1  6  0  0  0
  9 11  1  0  0  0  0
 11 12  1  1  0  0  0
 11 13  1  0  0  0  0
 13  8  1  1  0  0  0
 13 24  1  0  0  0  0
 14 15  1  0  0  0  0
 14 20  1  0  0  0  0
 15 16  1  6  0  0  0
 15 17  1  0  0  0  0
 18 17  1  1  0  0  0
 18 19  1  0  0  0  0
 18 24  1  0  0  0  0
 19 20  1  6  0  0  0
 19 22  1  0  0  0  0
 20 21  2  0  0  0  0
 22 23  1  0  0  0  0
 24 23  1  1  0  0  0
M  CHG  1   3  -1
M  END
>  <CHROM.1>
-167.72205632,72.33894418,-178.13666552,-95.59420990,-7.80984195,-5.09702386
10.62381160,-2.40332140,-0.61635935,-1.34441828

>  <Name>
ligand

>  <RI>
0

>  <Rbt.Current_Directory>
/home/itssahil/PROJECTS/Mol_Feturizer/New_Systems/rnas/3SLQ

>  <Rbt.Executable>
rbdock ($Id: //depot/dev/client3/rdock/2013.1/src/exe/rbdock.cxx#4 $)

>  <Rbt.Library>
libRbt.so (2013.1, Build901 2013/11/27)

>  <Rbt.Parameter_File>
/export/apps/rDock/src/rDock_2013.1_src/data/scripts/dock_solv.prm

>  <Rbt.Receptor>
prm/pocket_docking_4.prm

>  <SCORE>
-17.8047

>  <SCORE.INTER>
-12.1229

>  <SCORE.INTER.CONST>
1

>  <SCORE.INTER.POLAR>
0

>  <SCORE.INTER.ROT>
4

>  <SCORE.INTER.SOLV>
20.2824

>  <SCORE.INTER.VDW>
-21.1094

>  <SCORE.INTER.norm>
-0.505122

>  <SCORE.INTRA>
-5.68181

>  <SCORE.INTRA.DIHEDRAL>
-11.2812

>  <SCORE.INTRA.DIHEDRAL.0>
13.2525

>  <SCORE.INTRA.POLAR>
0

>  <SCORE.INTRA.POLAR.0>
0

>  <SCORE.INTRA.REPUL>
0

>  <SCORE.INTRA.REPUL.0>
0

>  <SCORE.INTRA.SOLV>
0.414927

>  <SCORE.INTRA.SOLV.lig_0>
-70.7221

>  <SCORE.INTRA.VDW>
-0.248691

>  <SCORE.INTRA.VDW.0>
-1.46337

>  <SCORE.INTRA.norm>
-0.236742

>  <SCORE.RESTR>
0

>  <SCORE.RESTR.CAVITY>
0

>  <SCORE.RESTR.norm>
0

>  <SCORE.SYSTEM>
0

>  <SCORE.SYSTEM.CONST>
0

>  <SCORE.SYSTEM.DIHEDRAL>
0

>  <SCORE.SYSTEM.SOLV>
0

>  <SCORE.SYSTEM.norm>
0

>  <SCORE.heavy>
24

>  <SCORE.norm>
-0.741864

>  <RMSD>
2.476

$$$$
ligand
 OpenBabel11021811483D
libRbt.so/2013.1/901 2013/11/27
 24 26  0  0  0  0  0  0  0  0999 V2000
   -9.3501   -7.3986   14.3363 P   0  0  1  0  0  0  0  0  0  0  0  0
   -9.7194   -8.8465   14.0939 O   0  0  0  0  0  0  0  0  0  0  0  0
  -10.2547   -6.6223   15.2642 O   0  5  0  0  0  0  0  0  0  0  0  0
   -7.8744   -7.1776   14.6331 O   0  0  0  0  0  0  0  0  0  0  0  0
   -9.1795   -7.1382   11.6499 C   0  0  0  0  0  0  0  0  0  0  0  0
   -9.6721   -6.6743   12.9190 O   0  0  0  0  0  0  0  0  0  0  0  0
   -9.6714   -6.2149   10.5313 C   0  0  1  0  0  0  0  0  0  0  0  0
   -8.9561   -4.9731   10.5101 O   0  0  0  0  0  0  0  0  0  0  0  0
   -9.5428   -6.7864    9.1297 C   0  0  1  0  0  0  0  0  0  0  0  0
  -10.7498   -7.4800    8.7998 O   0  0  0  0  0  0  0  0  0  0  0  0
   -9.3553   -5.5514    8.2638 C   0  0  1  0  0  0  0  0  0  0  0  0
  -10.6229   -4.9494    7.9657 O   0  0  0  0  0  0  0  0  0  0  0  0
   -8.6341   -4.5751    9.1717 C   0  0  2  0  0  0  0  0  0  0  0  0
   -4.3350   -1.8339    9.4169 N   0  0  0  0  0  0  0  0  0  0  0  0
   -5.6203   -1.4284    9.5309 C   0  0  1  0  0  0  0  0  0  0  0  0
   -5.8823   -0.1198    9.7489 N   0  0  0  0  0  0  0  0  0  0  0  0
   -6.6407   -2.3118    9.4294 N   0  0  0  0  0  0  0  0  0  0  0  0
   -6.3718   -3.6212    9.2103 C   0  0  1  0  0  0  0  0  0  0  0  0
   -5.0690   -4.0628    9.0883 C   0  0  2  0  0  0  0  0  0  0  0  0
   -4.0391   -3.1356    9.1972 C   0  0  0  0  0  0  0  0  0  0  0  0
   -2.8488   -3.4918    9.0931 O   0  0  0  0  0  0  0  0  0  0  0  0
   -5.1167   -5.3932    8.8723 N   0  0  0  0  0  0  0  0  0  0  0  0
   -6.4183   -5.7642    8.8690 C   0  0  0  0  0  0  0  0  0  0  0  0
   -7.1657   -4.6756    9.0772 N   0  0  1  0  0  0  0  0  0  0  0  0
  1  2  1  6  0  0  0
  1  3  1  0  0  0  0
  1  4  2  0  0  0  0
  1  6  1  0  0  0  0
  5  6  1  0  0  0  0
  7  5  1  1  0  0  0
  7  8  1  0  0  0  0
  7  9  1  0  0  0  0
  9 10  1  6  0  0  0
  9 11  1  0  0  0  0
 11 12  1  1  0  0  0
 11 13  1  0  0  0  0
 13  8  1  1  0  0  0
 13 24  1  0  0  0  0
 14 15  1  0  0  0  0
 14 20  1  0  0  0  0
 15 16  1  6  0  0  0
 15 17  1  0  0  0  0
 18 17  1  1  0  0  0
 18 19  1  0  0  0  0
 18 24  1  0  0  0  0
 19 20  1  6  0  0  0
 19 22  1  0  0  0  0
 20 21  2  0  0  0  0
 22 23  1  0  0  0  0
 24 23  1  1  0  0  0
M  CHG  1   3  -1
M  END
>  <CHROM.1>
-51.69516818,75.24462063,-179.70119205,-98.46321999,-7.80642887,-5.21151404
10.66003544,-2.35040223,-0.59171589,-1.25201545

>  <Name>
ligand

>  <RI>
0

>  <Rbt.Current_Directory>
/home/itssahil/PROJECTS/Mol_Feturizer/New_Systems/rnas/3SLQ

>  <Rbt.Executable>
rbdock ($Id: //depot/dev/client3/rdock/2013.1/src/exe/rbdock.cxx#4 $)

>  <Rbt.Library>
libRbt.so (2013.1, Build901 2013/11/27)

>  <Rbt.Parameter_File>
/export/apps/rDock/src/rDock_2013.1_src/data/scripts/dock_solv.prm

>  <Rbt.Receptor>
prm/pocket_docking_4.prm

>  <SCORE>
-17.8487

>  <SCORE.INTER>
-11.8976

>  <SCORE.INTER.CONST>
1

>  <SCORE.INTER.POLAR>
0

>  <SCORE.INTER.ROT>
4

>  <SCORE.INTER.SOLV>
20.1623

>  <SCORE.INTER.VDW>
-20.9192

>  <SCORE.INTER.norm>
-0.495733

>  <SCORE.INTRA>
-5.95109

>  <SCORE.INTRA.DIHEDRAL>
-11.1604

>  <SCORE.INTRA.DIHEDRAL.0>
13.2525

>  <SCORE.INTRA.POLAR>
0

>  <SCORE.INTRA.POLAR.0>
0

>  <SCORE.INTRA.REPUL>
0

>  <SCORE.INTRA.REPUL.0>
0

>  <SCORE.INTRA.SOLV>
-0.23774

>  <SCORE.INTRA.SOLV.lig_0>
-70.7221

>  <SCORE.INTRA.VDW>
-0.252038

>  <SCORE.INTRA.VDW.0>
-1.46337

>  <SCORE.INTRA.norm>
-0.247962

>  <SCORE.RESTR>
0

>  <SCORE.RESTR.CAVITY>
0

>  <SCORE.RESTR.norm>
0

>  <SCORE.SYSTEM>
0

>  <SCORE.SYSTEM.CONST>
0

>  <SCORE.SYSTEM.DIHEDRAL>
0

>  <SCORE.SYSTEM.SOLV>
0

>  <SCORE.SYSTEM.norm>
0

>  <SCORE.heavy>
24

>  <SCORE.norm>
-0.743695

>  <RMSD>
2.486

$$$$
ligand
 OpenBabel11021811483D
libRbt.so/2013.1/901 2013/11/27
 24 26  0  0  0  0  0  0  0  0999 V2000
   -5.9338  -10.4656   11.0751 P   0  0  1  0  0  0  0  0  0  0  0  0
   -5.0976  -10.0123    9.8975 O   0  0  0  0  0  0  0  0  0  0  0  0
   -7.4178  -10.6041   10.8297 O   0  5  0  0  0  0  0  0  0  0  0  0
   -5.3495  -11.6505   11.8295 O   0  0  0  0  0  0  0  0  0  0  0  0
   -5.4992   -7.8686   11.6922 C   0  0  0  0  0  0  0  0  0  0  0  0
   -5.9081   -9.1913   12.0815 O   0  0  0  0  0  0  0  0  0  0  0  0
   -6.6500   -7.1583   10.9733 C   0  0  1  0  0  0  0  0  0  0  0  0
   -6.5768   -5.7349   11.1240 O   0  0  0  0  0  0  0  0  0  0  0  0
   -6.7189   -7.4093    9.4766 C   0  0  1  0  0  0  0  0  0  0  0  0
   -7.5513   -8.5477    9.2358 O   0  0  0  0  0  0  0  0  0  0  0  0
   -7.3474   -6.1352    8.9364 C   0  0  1  0  0  0  0  0  0  0  0  0
   -8.7751   -6.1833    9.0699 O   0  0  0  0  0  0  0  0  0  0  0  0
   -6.8757   -5.0604    9.8955 C   0  0  2  0  0  0  0  0  0  0  0  0
   -4.5130   -0.5566    9.4596 N   0  0  0  0  0  0  0  0  0  0  0  0
   -5.7675   -0.8312    9.8842 C   0  0  1  0  0  0  0  0  0  0  0  0
   -6.5700    0.1855   10.2723 N   0  0  0  0  0  0  0  0  0  0  0  0
   -6.2260   -2.1042    9.9243 N   0  0  0  0  0  0  0  0  0  0  0  0
   -5.4174   -3.1183    9.5335 C   0  0  1  0  0  0  0  0  0  0  0  0
   -4.1326   -2.8667    9.0940 C   0  0  2  0  0  0  0  0  0  0  0  0
   -3.6856   -1.5509    9.0632 C   0  0  0  0  0  0  0  0  0  0  0  0
   -2.5328   -1.2796    8.6731 O   0  0  0  0  0  0  0  0  0  0  0  0
   -3.5806   -4.0544    8.7725 N   0  0  0  0  0  0  0  0  0  0  0  0
   -4.5011   -5.0165    9.0155 C   0  0  0  0  0  0  0  0  0  0  0  0
   -5.6095   -4.4297    9.4784 N   0  0  1  0  0  0  0  0  0  0  0  0
  1  2  1  6  0  0  0
  1  3  1  0  0  0  0
  1  4  2  0  0  0  0
  1  6  1  0  0  0  0
  5  6  1  0  0  0  0
  7  5  1  6  0  0  0
  7  8  1  0  0  0  0
  7  9  1  0  0  0  0
  9 10  1  1  0  0  0
  9 11  1  0  0  0  0
 11 12  1  1  0  0  0
 11 13  1  0  0  0  0
 13  8  1  1  0  0  0
 13 24  1  0  0  0  0
 14 15  1  0  0  0  0
 14 20  1  0  0  0  0
 15 16  1  6  0  0  0
 15 17  1  0  0  0  0
 18 17  1  1  0  0  0
 18 19  1  0  0  0  0
 18 24  1  0  0  0  0
 19 20  1  6  0  0  0
 19 22  1  0  0  0  0
 20 21  2  0  0  0  0
 22 23  1  0  0  0  0
 24 23  1  1  0  0  0
M  CHG  1   3  -1
M  END
>  <CHROM.1>
15.54419261,152.31060066,80.50463474,-108.45764316,-5.80285064,-5.89993535
10.05990533,-1.73812028,-0.00337136,-0.18032480

>  <Name>
ligand

>  <RI>
0

>  <Rbt.Current_Directory>
/home/itssahil/PROJECTS/Mol_Feturizer/New_Systems/rnas/3SLQ

>  <Rbt.Executable>
rbdock ($Id: //depot/dev/client3/rdock/2013.1/src/exe/rbdock.cxx#4 $)

>  <Rbt.Library>
libRbt.so (2013.1, Build901 2013/11/27)

>  <Rbt.Parameter_File>
/export/apps/rDock/src/rDock_2013.1_src/data/scripts/dock_solv.prm

>  <Rbt.Receptor>
prm/pocket_docking_8.prm

>  <SCORE>
-16.562

>  <SCORE.INTER>
-14.5422

>  <SCORE.INTER.CONST>
1

>  <SCORE.INTER.POLAR>
0

>  <SCORE.INTER.ROT>
4

>  <SCORE.INTER.SOLV>
18.4843

>  <SCORE.INTER.VDW>
-22.1229

>  <SCORE.INTER.norm>
-0.605925

>  <SCORE.INTRA>
-2.01977

>  <SCORE.INTRA.DIHEDRAL>
-5.83642

>  <SCORE.INTRA.DIHEDRAL.0>
13.2525

>  <SCORE.INTRA.POLAR>
0

>  <SCORE.INTRA.POLAR.0>
0

>  <SCORE.INTRA.REPUL>
0

>  <SCORE.INTRA.REPUL.0>
0

>  <SCORE.INTRA.SOLV>
3.111

>  <SCORE.INTRA.SOLV.lig_0>
-70.7221

>  <SCORE.INTRA.VDW>
-0.65706

>  <SCORE.INTRA.VDW.0>
-1.46337

>  <SCORE.INTRA.norm>
-0.0841571

>  <SCORE.RESTR>
0

>  <SCORE.RESTR.CAVITY>
0

>  <SCORE.RESTR.norm>
0

>  <SCORE.SYSTEM>
0

>  <SCORE.SYSTEM.CONST>
0

>  <SCORE.SYSTEM.DIHEDRAL>
0

>  <SCORE.SYSTEM.SOLV>
0

>  <SCORE.SYSTEM.norm>
0

>  <SCORE.heavy>
24

>  <SCORE.norm>
-0.690082

>  <RMSD>
2.507

$$$$
ligand
 OpenBabel11021811483D
libRbt.so/2013.1/901 2013/11/27
 24 26  0  0  0  0  0  0  0  0999 V2000
   -8.0563   -7.0829   14.7985 P   0  0  1  0  0  0  0  0  0  0  0  0
   -7.1553   -6.0003   15.3532 O   0  0  0  0  0  0  0  0  0  0  0  0
   -7.6688   -8.5072   15.1196 O   0  5  0  0  0  0  0  0  0  0  0  0
   -9.5404   -6.8174   15.0017 O   0  0  0  0  0  0  0  0  0  0  0  0
   -8.0798   -5.9171   12.3585 C   0  0  0  0  0  0  0  0  0  0  0  0
   -7.7720   -7.0418   13.2001 O   0  0  0  0  0  0  0  0  0  0  0  0
   -7.8376   -6.2830   10.8911 C   0  0  1  0  0  0  0  0  0  0  0  0
   -8.2996   -5.2586   10.0016 O   0  0  0  0  0  0  0  0  0  0  0  0
   -6.3824   -6.5190   10.5244 C   0  0  1  0  0  0  0  0  0  0  0  0
   -6.0795   -7.9061   10.7006 O   0  0  0  0  0  0  0  0  0  0  0  0
   -6.3206   -6.1169    9.0599 C   0  0  1  0  0  0  0  0  0  0  0  0
   -6.7673   -7.1936    8.2237 O   0  0  0  0  0  0  0  0  0  0  0  0
   -7.3699   -5.0301    8.9352 C   0  0  2  0  0  0  0  0  0  0  0  0
   -3.0231   -2.3791    9.3003 N   0  0  0  0  0  0  0  0  0  0  0  0
   -3.2075   -3.7014    9.0839 C   0  0  1  0  0  0  0  0  0  0  0  0
   -2.1284   -4.5007    8.9251 N   0  0  0  0  0  0  0  0  0  0  0  0
   -4.4520   -4.2305    9.0253 N   0  0  0  0  0  0  0  0  0  0  0  0
   -5.5289   -3.4248    9.1857 C   0  0  1  0  0  0  0  0  0  0  0  0
   -5.3700   -2.0713    9.4096 C   0  0  2  0  0  0  0  0  0  0  0  0
   -4.0816   -1.5527    9.4645 C   0  0  0  0  0  0  0  0  0  0  0  0
   -3.8933   -0.3365    9.6648 O   0  0  0  0  0  0  0  0  0  0  0  0
   -6.6032   -1.5394    9.5337 N   0  0  0  0  0  0  0  0  0  0  0  0
   -7.5014   -2.5405    9.3822 C   0  0  0  0  0  0  0  0  0  0  0  0
   -6.8311   -3.6776    9.1703 N   0  0  1  0  0  0  0  0  0  0  0  0
  1  2  1  1  0  0  0
  1  3  1  0  0  0  0
  1  4  2  0  0  0  0
  1  6  1  0  0  0  0
  5  6  1  0  0  0  0
  7  5  1  1  0  0  0
  7  8  1  0  0  0  0
  7  9  1  0  0  0  0
  9 10  1  6  0  0  0
  9 11  1  0  0  0  0
 11 12  1  6  0  0  0
 11 13  1  0  0  0  0
 13  8  1  1  0  0  0
 13 24  1  0  0  0  0
 14 15  1  0  0  0  0
 14 20  1  0  0  0  0
 15 16  1  1  0  0  0
 15 17  1  0  0  0  0
 18 17  1  6  0  0  0
 18 19  1  0  0  0  0
 18 24  1  0  0  0  0
 19 20  1  1  0  0  0
 19 22  1  0  0  0  0
 20 21  2  0  0  0  0
 22 23  1  0  0  0  0
 24 23  1  6  0  0  0
M  CHG  1   3  -1
M  END
>  <CHROM.1>
-64.20340281,172.16588584,-173.24881743,129.38703594,-6.39783359,-5.03283005
10.99079065,-2.97512058,-1.08010185,-2.22726079

>  <Name>
ligand

>  <RI>
0

>  <Rbt.Current_Directory>
/home/itssahil/PROJECTS/Mol_Feturizer/New_Systems/rnas/3SLQ

>  <Rbt.Executable>
rbdock ($Id: //depot/dev/client3/rdock/2013.1/src/exe/rbdock.cxx#4 $)

>  <Rbt.Library>
libRbt.so (2013.1, Build901 2013/11/27)

>  <Rbt.Parameter_File>
/export/apps/rDock/src/rDock_2013.1_src/data/scripts/dock_solv.prm

>  <Rbt.Receptor>
prm/pocket_docking_4.prm

>  <SCORE>
-15.4272

>  <SCORE.INTER>
-10.7988

>  <SCORE.INTER.CONST>
1

>  <SCORE.INTER.POLAR>
0

>  <SCORE.INTER.ROT>
4

>  <SCORE.INTER.SOLV>
26.3011

>  <SCORE.INTER.VDW>
-22.2329

>  <SCORE.INTER.norm>
-0.449948

>  <SCORE.INTRA>
-4.94267

>  <SCORE.INTRA.DIHEDRAL>
-11.5898

>  <SCORE.INTRA.DIHEDRAL.0>
13.2525

>  <SCORE.INTRA.POLAR>
0

>  <SCORE.INTRA.POLAR.0>
0

>  <SCORE.INTRA.REPUL>
0

>  <SCORE.INTRA.REPUL.0>
0

>  <SCORE.INTRA.SOLV>
0.169527

>  <SCORE.INTRA.SOLV.lig_0>
-70.7221

>  <SCORE.INTRA.VDW>
0.76746

>  <SCORE.INTRA.VDW.0>
-1.46337

>  <SCORE.INTRA.norm>
-0.205945

>  <SCORE.RESTR>
0.314281

>  <SCORE.RESTR.CAVITY>
0.314281

>  <SCORE.RESTR.norm>
0.0130951

>  <SCORE.SYSTEM>
0

>  <SCORE.SYSTEM.CONST>
0

>  <SCORE.SYSTEM.DIHEDRAL>
0

>  <SCORE.SYSTEM.SOLV>
0

>  <SCORE.SYSTEM.norm>
0

>  <SCORE.heavy>
24

>  <SCORE.norm>
-0.642798

>  <RMSD>
2.517

$$$$
ligand
 OpenBabel11021811483D
libRbt.so/2013.1/901 2013/11/27
 24 26  0  0  0  0  0  0  0  0999 V2000
   -7.3558   -7.3997   14.5007 P   0  0  1  0  0  0  0  0  0  0  0  0
   -7.4522   -8.2180   13.2308 O   0  0  0  0  0  0  0  0  0  0  0  0
   -8.5683   -7.4147   15.4016 O   0  5  0  0  0  0  0  0  0  0  0  0
   -6.0539   -7.5925   15.2639 O   0  0  0  0  0  0  0  0  0  0  0  0
   -6.5699   -5.3677   12.8986 C   0  0  0  0  0  0  0  0  0  0  0  0
   -7.3850   -5.8636   13.9746 O   0  0  0  0  0  0  0  0  0  0  0  0
   -7.3356   -5.4688   11.5760 C   0  0  1  0  0  0  0  0  0  0  0  0
   -8.0190   -4.2494   11.2595 O   0  0  0  0  0  0  0  0  0  0  0  0
   -6.4759   -5.7838   10.3637 C   0  0  1  0  0  0  0  0  0  0  0  0
   -6.4167   -7.2032   10.1943 O   0  0  0  0  0  0  0  0  0  0  0  0
   -7.2241   -5.1170    9.2210 C   0  0  1  0  0  0  0  0  0  0  0  0
   -8.2893   -5.9593    8.7583 O   0  0  0  0  0  0  0  0  0  0  0  0
   -7.8915   -3.9209    9.8705 C   0  0  2  0  0  0  0  0  0  0  0  0
   -3.1715   -2.2377    8.8988 N   0  0  0  0  0  0  0  0  0  0  0  0
   -3.6575   -3.4994    8.8657 C   0  0  1  0  0  0  0  0  0  0  0  0
   -2.8321   -4.5158    8.5279 N   0  0  0  0  0  0  0  0  0  0  0  0
   -4.9526   -3.7548    9.1654 N   0  0  0  0  0  0  0  0  0  0  0  0
   -5.7744   -2.7325    9.5037 C   0  0  1  0  0  0  0  0  0  0  0  0
   -5.3045   -1.4346    9.5471 C   0  0  2  0  0  0  0  0  0  0  0  0
   -3.9708   -1.1990    9.2341 C   0  0  0  0  0  0  0  0  0  0  0  0
   -3.5058   -0.0424    9.2611 O   0  0  0  0  0  0  0  0  0  0  0  0
   -6.3364   -0.6483    9.9156 N   0  0  0  0  0  0  0  0  0  0  0  0
   -7.4190   -1.4421   10.0878 C   0  0  0  0  0  0  0  0  0  0  0  0
   -7.0593   -2.7040    9.8319 N   0  0  1  0  0  0  0  0  0  0  0  0
  1  2  1  6  0  0  0
  1  3  1  0  0  0  0
  1  4  2  0  0  0  0
  1  6  1  0  0  0  0
  5  6  1  0  0  0  0
  7  5  1  1  0  0  0
  7  8  1  0  0  0  0
  7  9  1  0  0  0  0
  9 10  1  6  0  0  0
  9 11  1  0  0  0  0
 11 12  1  1  0  0  0
 11 13  1  0  0  0  0
 13  8  1  1  0  0  0
 13 24  1  0  0  0  0
 14 15  1  0  0  0  0
 14 20  1  0  0  0  0
 15 16  1  1  0  0  0
 15 17  1  0  0  0  0
 18 17  1  6  0  0  0
 18 19  1  0  0  0  0
 18 24  1  0  0  0  0
 19 20  1  1  0  0  0
 19 22  1  0  0  0  0
 20 21  2  0  0  0  0
 22 23  1  0  0  0  0
 24 23  1  6  0  0  0
M  CHG  1   3  -1
M  END
>  <CHROM.1>
-48.07600827,94.04814093,92.67601135,102.72191000,-6.31403050,-4.59302626
11.08837282,-2.07912943,-0.75983992,-1.11149767

>  <Name>
ligand

>  <RI>
0

>  <Rbt.Current_Directory>
/home/itssahil/PROJECTS/Mol_Feturizer/New_Systems/rnas/3SLQ

>  <Rbt.Executable>
rbdock ($Id: //depot/dev/client3/rdock/2013.1/src/exe/rbdock.cxx#4 $)

>  <Rbt.Library>
libRbt.so (2013.1, Build901 2013/11/27)

>  <Rbt.Parameter_File>
/export/apps/rDock/src/rDock_2013.1_src/data/scripts/dock_solv.prm

>  <Rbt.Receptor>
prm/pocket_docking_2.prm

>  <SCORE>
-13.678

>  <SCORE.INTER>
-12.4962

>  <SCORE.INTER.CONST>
1

>  <SCORE.INTER.POLAR>
0

>  <SCORE.INTER.ROT>
4

>  <SCORE.INTER.SOLV>
26.7209

>  <SCORE.INTER.VDW>
-23.5044

>  <SCORE.INTER.norm>
-0.520675

>  <SCORE.INTRA>
-1.26248

>  <SCORE.INTRA.DIHEDRAL>
-4.51117

>  <SCORE.INTRA.DIHEDRAL.0>
13.2525

>  <SCORE.INTRA.POLAR>
0

>  <SCORE.INTRA.POLAR.0>
0

>  <SCORE.INTRA.REPUL>
0

>  <SCORE.INTRA.REPUL.0>
0

>  <SCORE.INTRA.SOLV>
0.839593

>  <SCORE.INTRA.SOLV.lig_0>
-70.7221

>  <SCORE.INTRA.VDW>
0.573306

>  <SCORE.INTRA.VDW.0>
-1.46337

>  <SCORE.INTRA.norm>
-0.0526033

>  <SCORE.RESTR>
0.0806275

>  <SCORE.RESTR.CAVITY>
0.0806275

>  <SCORE.RESTR.norm>
0.00335948

>  <SCORE.SYSTEM>
0

>  <SCORE.SYSTEM.CONST>
0

>  <SCORE.SYSTEM.DIHEDRAL>
0

>  <SCORE.SYSTEM.SOLV>
0

>  <SCORE.SYSTEM.norm>
0

>  <SCORE.heavy>
24

>  <SCORE.norm>
-0.569918

>  <RMSD>
2.550

$$$$
ligand
 OpenBabel11021811483D
libRbt.so/2013.1/901 2013/11/27
 24 26  0  0  0  0  0  0  0  0999 V2000
   -8.2419   -7.1841   14.2726 P   0  0  1  0  0  0  0  0  0  0  0  0
   -9.3934   -6.2950   14.6910 O   0  0  0  0  0  0  0  0  0  0  0  0
   -7.6038   -8.0122   15.3630 O   0  5  0  0  0  0  0  0  0  0  0  0
   -8.5060   -7.9837   13.0055 O   0  0  0  0  0  0  0  0  0  0  0  0
   -7.2130   -4.9470   13.1545 C   0  0  0  0  0  0  0  0  0  0  0  0
   -7.0446   -6.1376   13.9433 O   0  0  0  0  0  0  0  0  0  0  0  0
   -7.5622   -5.3233   11.7115 C   0  0  1  0  0  0  0  0  0  0  0  0
   -8.1632   -4.2308   11.0048 O   0  0  0  0  0  0  0  0  0  0  0  0
   -6.3807   -5.7606   10.8626 C   0  0  1  0  0  0  0  0  0  0  0  0
   -6.2310   -7.1791   10.9729 O   0  0  0  0  0  0  0  0  0  0  0  0
   -6.7887   -5.3510    9.4569 C   0  0  1  0  0  0  0  0  0  0  0  0
   -7.6489   -6.3407    8.8748 O   0  0  0  0  0  0  0  0  0  0  0  0
   -7.6518   -4.1232    9.6705 C   0  0  2  0  0  0  0  0  0  0  0  0
   -2.9620   -2.2242    8.9948 N   0  0  0  0  0  0  0  0  0  0  0  0
   -3.3793   -3.5106    8.9743 C   0  0  1  0  0  0  0  0  0  0  0  0
   -2.4795   -4.4924    8.7400 N   0  0  0  0  0  0  0  0  0  0  0  0
   -4.6791   -3.8244    9.1846 N   0  0  0  0  0  0  0  0  0  0  0  0
   -5.5756   -2.8365    9.4194 C   0  0  1  0  0  0  0  0  0  0  0  0
   -5.1770   -1.5145    9.4477 C   0  0  2  0  0  0  0  0  0  0  0  0
   -3.8368   -1.2188    9.2278 C   0  0  0  0  0  0  0  0  0  0  0  0
   -3.4346   -0.0386    9.2449 O   0  0  0  0  0  0  0  0  0  0  0  0
   -6.2731   -0.7723    9.7058 N   0  0  0  0  0  0  0  0  0  0  0  0
   -7.3241   -1.6165    9.8262 C   0  0  0  0  0  0  0  0  0  0  0  0
   -6.8820   -2.8654    9.6478 N   0  0  1  0  0  0  0  0  0  0  0  0
  1  2  1  1  0  0  0
  1  3  1  0  0  0  0
  1  4  2  0  0  0  0
  1  6  1  0  0  0  0
  5  6  1  0  0  0  0
  7  5  1  1  0  0  0
  7  8  1  0  0  0  0
  7  9  1  0  0  0  0
  9 10  1  6  0  0  0
  9 11  1  0  0  0  0
 11 12  1  1  0  0  0
 11 13  1  0  0  0  0
 13  8  1  1  0  0  0
 13 24  1  0  0  0  0
 14 15  1  0  0  0  0
 14 20  1  0  0  0  0
 15 16  1  1  0  0  0
 15 17  1  0  0  0  0
 18 17  1  6  0  0  0
 18 19  1  0  0  0  0
 18 24  1  0  0  0  0
 19 20  1  1  0  0  0
 19 22  1  0  0  0  0
 20 21  2  0  0  0  0
 22 23  1  0  0  0  0
 24 23  1  6  0  0  0
M  CHG  1   3  -1
M  END
>  <CHROM.1>
-46.27284245,160.75889726,-65.36232372,117.15713583,-6.43135407,-4.57846778
11.07793493,2.24646608,-0.70740107,2.86997068

>  <Name>
ligand

>  <RI>
0

>  <Rbt.Current_Directory>
/home/itssahil/PROJECTS/Mol_Feturizer/New_Systems/rnas/3SLQ

>  <Rbt.Executable>
rbdock ($Id: //depot/dev/client3/rdock/2013.1/src/exe/rbdock.cxx#4 $)

>  <Rbt.Library>
libRbt.so (2013.1, Build901 2013/11/27)

>  <Rbt.Parameter_File>
/export/apps/rDock/src/rDock_2013.1_src/data/scripts/dock_solv.prm

>  <Rbt.Receptor>
prm/pocket_docking_3.prm

>  <SCORE>
-17.3489

>  <SCORE.INTER>
-14.1199

>  <SCORE.INTER.CONST>
1

>  <SCORE.INTER.POLAR>
0

>  <SCORE.INTER.ROT>
4

>  <SCORE.INTER.SOLV>
25.0111

>  <SCORE.INTER.VDW>
-24.017

>  <SCORE.INTER.norm>
-0.588329

>  <SCORE.INTRA>
-3.22896

>  <SCORE.INTRA.DIHEDRAL>
-10.375

>  <SCORE.INTRA.DIHEDRAL.0>
13.2525

>  <SCORE.INTRA.POLAR>
0

>  <SCORE.INTRA.POLAR.0>
0

>  <SCORE.INTRA.REPUL>
0

>  <SCORE.INTRA.REPUL.0>
0

>  <SCORE.INTRA.SOLV>
2.90202

>  <SCORE.INTRA.SOLV.lig_0>
-70.7221

>  <SCORE.INTRA.VDW>
0.507514

>  <SCORE.INTRA.VDW.0>
-1.46337

>  <SCORE.INTRA.norm>
-0.13454

>  <SCORE.RESTR>
0

>  <SCORE.RESTR.CAVITY>
0

>  <SCORE.RESTR.norm>
0

>  <SCORE.SYSTEM>
0

>  <SCORE.SYSTEM.CONST>
0

>  <SCORE.SYSTEM.DIHEDRAL>
0

>  <SCORE.SYSTEM.SOLV>
0

>  <SCORE.SYSTEM.norm>
0

>  <SCORE.heavy>
24

>  <SCORE.norm>
-0.722869

>  <RMSD>
2.590

$$$$
ligand
 OpenBabel11021811483D
libRbt.so/2013.1/901 2013/11/27
 24 26  0  0  0  0  0  0  0  0999 V2000
   -9.7433   -9.4771   11.5583 P   0  0  1  0  0  0  0  0  0  0  0  0
   -9.7783   -8.9873   12.9902 O   0  0  0  0  0  0  0  0  0  0  0  0
   -9.5973  -10.9679   11.3632 O   0  5  0  0  0  0  0  0  0  0  0  0
  -10.8194   -8.8705   10.6702 O   0  0  0  0  0  0  0  0  0  0  0  0
   -7.7923   -7.6323   11.2361 C   0  0  0  0  0  0  0  0  0  0  0  0
   -8.3086   -8.9546   11.0053 O   0  0  0  0  0  0  0  0  0  0  0  0
   -8.6294   -6.6050   10.4683 C   0  0  1  0  0  0  0  0  0  0  0  0
   -8.2062   -5.2624   10.7373 O   0  0  0  0  0  0  0  0  0  0  0  0
   -8.5908   -6.7522    8.9568 C   0  0  1  0  0  0  0  0  0  0  0  0
   -9.6577   -7.6133    8.5480 O   0  0  0  0  0  0  0  0  0  0  0  0
   -8.8009   -5.3308    8.4610 C   0  0  1  0  0  0  0  0  0  0  0  0
  -10.1975   -5.0028    8.4525 O   0  0  0  0  0  0  0  0  0  0  0  0
   -8.1780   -4.4711    9.5429 C   0  0  2  0  0  0  0  0  0  0  0  0
   -4.7215   -0.7149    9.5551 N   0  0  0  0  0  0  0  0  0  0  0  0
   -6.0470   -0.6637    9.8197 C   0  0  1  0  0  0  0  0  0  0  0  0
   -6.6087    0.5213   10.1493 N   0  0  0  0  0  0  0  0  0  0  0  0
   -6.8128   -1.7781    9.7582 N   0  0  0  0  0  0  0  0  0  0  0  0
   -6.2444   -2.9622    9.4268 C   0  0  1  0  0  0  0  0  0  0  0  0
   -4.8938   -3.0432    9.1501 C   0  0  2  0  0  0  0  0  0  0  0  0
   -4.1293   -1.8845    9.2211 C   0  0  0  0  0  0  0  0  0  0  0  0
   -2.9065   -1.9132    8.9788 O   0  0  0  0  0  0  0  0  0  0  0  0
   -4.6238   -4.3303    8.8510 N   0  0  0  0  0  0  0  0  0  0  0  0
   -5.7796   -5.0277    8.9486 C   0  0  0  0  0  0  0  0  0  0  0  0
   -6.7524   -4.1810    9.3005 N   0  0  1  0  0  0  0  0  0  0  0  0
  1  2  1  1  0  0  0
  1  3  1  0  0  0  0
  1  4  2  0  0  0  0
  1  6  1  0  0  0  0
  5  6  1  0  0  0  0
  7  5  1  1  0  0  0
  7  8  1  0  0  0  0
  7  9  1  0  0  0  0
  9 10  1  6  0  0  0
  9 11  1  0  0  0  0
 11 12  1  1  0  0  0
 11 13  1  0  0  0  0
 13  8  1  1  0  0  0
 13 24  1  0  0  0  0
 14 15  1  0  0  0  0
 14 20  1  0  0  0  0
 15 16  1  6  0  0  0
 15 17  1  0  0  0  0
 18 17  1  1  0  0  0
 18 19  1  0  0  0  0
 18 24  1  0  0  0  0
 19 20  1  6  0  0  0
 19 22  1  0  0  0  0
 20 21  2  0  0  0  0
 22 23  1  0  0  0  0
 24 23  1  1  0  0  0
M  CHG  1   3  -1
M  END
>  <CHROM.1>
-44.55142975,176.18057247,-68.47634368,-111.15177094,-7.62113514,-5.44314779
10.00394314,-2.10722869,-0.13768761,-0.31073799

>  <Name>
ligand

>  <RI>
0

>  <Rbt.Current_Directory>
/home/itssahil/PROJECTS/Mol_Feturizer/New_Systems/rnas/3SLQ

>  <Rbt.Executable>
rbdock ($Id: //depot/dev/client3/rdock/2013.1/src/exe/rbdock.cxx#4 $)

>  <Rbt.Library>
libRbt.so (2013.1, Build901 2013/11/27)

>  <Rbt.Parameter_File>
/export/apps/rDock/src/rDock_2013.1_src/data/scripts/dock_solv.prm

>  <Rbt.Receptor>
prm/pocket_docking_4.prm

>  <SCORE>
-16.9659

>  <SCORE.INTER>
-11.9649

>  <SCORE.INTER.CONST>
1

>  <SCORE.INTER.POLAR>
0

>  <SCORE.INTER.ROT>
4

>  <SCORE.INTER.SOLV>
23.1803

>  <SCORE.INTER.VDW>
-21.97

>  <SCORE.INTER.norm>
-0.498536

>  <SCORE.INTRA>
-5.00105

>  <SCORE.INTRA.DIHEDRAL>
-11.2835

>  <SCORE.INTRA.DIHEDRAL.0>
13.2525

>  <SCORE.INTRA.POLAR>
0

>  <SCORE.INTRA.POLAR.0>
0

>  <SCORE.INTRA.REPUL>
0

>  <SCORE.INTRA.REPUL.0>
0

>  <SCORE.INTRA.SOLV>
3.13586

>  <SCORE.INTRA.SOLV.lig_0>
-70.7221

>  <SCORE.INTRA.VDW>
-0.927222

>  <SCORE.INTRA.VDW.0>
-1.46337

>  <SCORE.INTRA.norm>
-0.208377

>  <SCORE.RESTR>
0

>  <SCORE.RESTR.CAVITY>
0

>  <SCORE.RESTR.norm>
0

>  <SCORE.SYSTEM>
0

>  <SCORE.SYSTEM.CONST>
0

>  <SCORE.SYSTEM.DIHEDRAL>
0

>  <SCORE.SYSTEM.SOLV>
0

>  <SCORE.SYSTEM.norm>
0

>  <SCORE.heavy>
24

>  <SCORE.norm>
-0.706913

>  <RMSD>
2.618

$$$$
ligand
 OpenBabel11021811483D
libRbt.so/2013.1/901 2013/11/27
 24 26  0  0  0  0  0  0  0  0999 V2000
   -8.0256   -6.9962   14.4112 P   0  0  1  0  0  0  0  0  0  0  0  0
   -7.5474   -7.5848   15.7213 O   0  0  0  0  0  0  0  0  0  0  0  0
   -7.9595   -7.9030   13.2050 O   0  5  0  0  0  0  0  0  0  0  0  0
   -9.3475   -6.2499   14.5139 O   0  0  0  0  0  0  0  0  0  0  0  0
   -7.1113   -4.7561   13.2029 C   0  0  0  0  0  0  0  0  0  0  0  0
   -6.8823   -5.9054   14.0365 O   0  0  0  0  0  0  0  0  0  0  0  0
   -7.4141   -5.2041   11.7699 C   0  0  1  0  0  0  0  0  0  0  0  0
   -8.0129   -4.1559   10.9976 O   0  0  0  0  0  0  0  0  0  0  0  0
   -6.2025   -5.6591   10.9744 C   0  0  1  0  0  0  0  0  0  0  0  0
   -6.0329   -7.0682   11.1542 O   0  0  0  0  0  0  0  0  0  0  0  0
   -6.5780   -5.3214    9.5408 C   0  0  1  0  0  0  0  0  0  0  0  0
   -7.4055   -6.3516    8.9820 O   0  0  0  0  0  0  0  0  0  0  0  0
   -7.4664   -4.1005    9.6740 C   0  0  2  0  0  0  0  0  0  0  0  0
   -2.7956   -2.1512    9.0105 N   0  0  0  0  0  0  0  0  0  0  0  0
   -3.1915   -3.4443    9.0352 C   0  0  1  0  0  0  0  0  0  0  0  0
   -2.2714   -4.4194    8.8591 N   0  0  0  0  0  0  0  0  0  0  0  0
   -4.4899   -3.7713    9.2333 N   0  0  0  0  0  0  0  0  0  0  0  0
   -5.4068   -2.7900    9.4097 C   0  0  1  0  0  0  0  0  0  0  0  0
   -5.0304   -1.4614    9.3908 C   0  0  2  0  0  0  0  0  0  0  0  0
   -3.6911   -1.1521    9.1847 C   0  0  0  0  0  0  0  0  0  0  0  0
   -3.3085    0.0344    9.1606 O   0  0  0  0  0  0  0  0  0  0  0  0
   -6.1433   -0.7279    9.5969 N   0  0  0  0  0  0  0  0  0  0  0  0
   -7.1827   -1.5843    9.7320 C   0  0  0  0  0  0  0  0  0  0  0  0
   -6.7169   -2.8318    9.6140 N   0  0  1  0  0  0  0  0  0  0  0  0
  1  2  1  1  0  0  0
  1  3  1  0  0  0  0
  1  4  2  0  0  0  0
  1  6  1  0  0  0  0
  5  6  1  0  0  0  0
  7  5  1  1  0  0  0
  7  8  1  0  0  0  0
  7  9  1  0  0  0  0
  9 10  1  6  0  0  0
  9 11  1  0  0  0  0
 11 12  1  1  0  0  0
 11 13  1  0  0  0  0
 13  8  1  1  0  0  0
 13 24  1  0  0  0  0
 14 15  1  0  0  0  0
 14 20  1  0  0  0  0
 15 16  1  1  0  0  0
 15 17  1  0  0  0  0
 18 17  1  6  0  0  0
 18 19  1  0  0  0  0
 18 24  1  0  0  0  0
 19 20  1  1  0  0  0
 19 22  1  0  0  0  0
 20 21  2  0  0  0  0
 22 23  1  0  0  0  0
 24 23  1  6  0  0  0
M  CHG  1   3  -1
M  END
>  <CHROM.1>
-154.90115320,163.49811868,-66.61534817,117.68226373,-6.25254046,-4.47810925
11.12838034,2.21003938,-0.66269671,2.79000368

>  <Name>
ligand

>  <RI>
0

>  <Rbt.Current_Directory>
/home/itssahil/PROJECTS/Mol_Feturizer/New_Systems/rnas/3SLQ

>  <Rbt.Executable>
rbdock ($Id: //depot/dev/client3/rdock/2013.1/src/exe/rbdock.cxx#4 $)

>  <Rbt.Library>
libRbt.so (2013.1, Build901 2013/11/27)

>  <Rbt.Parameter_File>
/export/apps/rDock/src/rDock_2013.1_src/data/scripts/dock_solv.prm

>  <Rbt.Receptor>
prm/pocket_docking_3.prm

>  <SCORE>
-16.1266

>  <SCORE.INTER>
-13.6512

>  <SCORE.INTER.CONST>
1

>  <SCORE.INTER.POLAR>
0

>  <SCORE.INTER.ROT>
4

>  <SCORE.INTER.SOLV>
27.2809

>  <SCORE.INTER.VDW>
-24.4611

>  <SCORE.INTER.norm>
-0.5688

>  <SCORE.INTRA>
-2.47541

>  <SCORE.INTRA.DIHEDRAL>
-10.008

>  <SCORE.INTRA.DIHEDRAL.0>
13.2525

>  <SCORE.INTRA.POLAR>
0

>  <SCORE.INTRA.POLAR.0>
0

>  <SCORE.INTRA.REPUL>
0

>  <SCORE.INTRA.REPUL.0>
0

>  <SCORE.INTRA.SOLV>
4.08315

>  <SCORE.INTRA.SOLV.lig_0>
-70.7221

>  <SCORE.INTRA.VDW>
0.487009

>  <SCORE.INTRA.VDW.0>
-1.46337

>  <SCORE.INTRA.norm>
-0.103142

>  <SCORE.RESTR>
0

>  <SCORE.RESTR.CAVITY>
0

>  <SCORE.RESTR.norm>
0

>  <SCORE.SYSTEM>
0

>  <SCORE.SYSTEM.CONST>
0

>  <SCORE.SYSTEM.DIHEDRAL>
0

>  <SCORE.SYSTEM.SOLV>
0

>  <SCORE.SYSTEM.norm>
0

>  <SCORE.heavy>
24

>  <SCORE.norm>
-0.671942

>  <RMSD>
2.625

$$$$
ligand
 OpenBabel11021811483D
libRbt.so/2013.1/901 2013/11/27
 24 26  0  0  0  0  0  0  0  0999 V2000
   -8.6998   -8.0862   12.5276 P   0  0  1  0  0  0  0  0  0  0  0  0
   -7.2670   -7.6904   12.2410 O   0  0  0  0  0  0  0  0  0  0  0  0
   -8.9022   -9.1688   13.5615 O   0  5  0  0  0  0  0  0  0  0  0  0
   -9.6411   -6.9065   12.7196 O   0  0  0  0  0  0  0  0  0  0  0  0
   -8.8072   -8.4445    9.8493 C   0  0  0  0  0  0  0  0  0  0  0  0
   -9.1646   -8.8613   11.1784 O   0  0  0  0  0  0  0  0  0  0  0  0
   -9.3919   -7.0581    9.5633 C   0  0  1  0  0  0  0  0  0  0  0  0
   -8.6986   -6.0278   10.2787 O   0  0  0  0  0  0  0  0  0  0  0  0
   -9.3558   -6.6393    8.1035 C   0  0  1  0  0  0  0  0  0  0  0  0
  -10.5730   -7.0501    7.4737 O   0  0  0  0  0  0  0  0  0  0  0  0
   -9.2495   -5.1249    8.1761 C   0  0  1  0  0  0  0  0  0  0  0  0
  -10.5442   -4.5390    8.3734 O   0  0  0  0  0  0  0  0  0  0  0  0
   -8.4796   -4.8740    9.4575 C   0  0  2  0  0  0  0  0  0  0  0  0
   -4.4964   -1.6818    9.4263 N   0  0  0  0  0  0  0  0  0  0  0  0
   -5.8056   -1.4201    9.6429 C   0  0  1  0  0  0  0  0  0  0  0  0
   -6.1904   -0.1500    9.9019 N   0  0  0  0  0  0  0  0  0  0  0  0
   -6.7292   -2.4089    9.6033 N   0  0  0  0  0  0  0  0  0  0  0  0
   -6.3375   -3.6791    9.3427 C   0  0  1  0  0  0  0  0  0  0  0  0
   -5.0077   -3.9747    9.1161 C   0  0  2  0  0  0  0  0  0  0  0  0
   -4.0790   -2.9416    9.1632 C   0  0  0  0  0  0  0  0  0  0  0  0
   -2.8685   -3.1647    8.9643 O   0  0  0  0  0  0  0  0  0  0  0  0
   -4.9274   -5.3005    8.8820 N   0  0  0  0  0  0  0  0  0  0  0  0
   -6.1777   -5.8114    8.9699 C   0  0  0  0  0  0  0  0  0  0  0  0
   -7.0205   -4.8127    9.2517 N   0  0  1  0  0  0  0  0  0  0  0  0
  1  2  1  6  0  0  0
  1  3  1  0  0  0  0
  1  4  2  0  0  0  0
  1  6  1  0  0  0  0
  5  6  1  0  0  0  0
  7  5  1  6  0  0  0
  7  8  1  0  0  0  0
  7  9  1  0  0  0  0
  9 10  1  6  0  0  0
  9 11  1  0  0  0  0
 11 12  1  1  0  0  0
 11 13  1  0  0  0  0
 13  8  1  1  0  0  0
 13 24  1  0  0  0  0
 14 15  1  0  0  0  0
 14 20  1  0  0  0  0
 15 16  1  6  0  0  0
 15 17  1  0  0  0  0
 18 17  1  1  0  0  0
 18 19  1  0  0  0  0
 18 24  1  0  0  0  0
 19 20  1  6  0  0  0
 19 22  1  0  0  0  0
 20 21  2  0  0  0  0
 22 23  1  0  0  0  0
 24 23  1  1  0  0  0
M  CHG  1   3  -1
M  END
>  <CHROM.1>
-39.78443258,72.69399155,-62.72403706,-135.97624631,-7.57653178,-5.48228370
10.01495048,-2.29093554,-0.52968290,-0.78351258

>  <Name>
ligand

>  <RI>
0

>  <Rbt.Current_Directory>
/home/itssahil/PROJECTS/Mol_Feturizer/New_Systems/rnas/3SLQ

>  <Rbt.Executable>
rbdock ($Id: //depot/dev/client3/rdock/2013.1/src/exe/rbdock.cxx#4 $)

>  <Rbt.Library>
libRbt.so (2013.1, Build901 2013/11/27)

>  <Rbt.Parameter_File>
/export/apps/rDock/src/rDock_2013.1_src/data/scripts/dock_solv.prm

>  <Rbt.Receptor>
prm/pocket_docking_5.prm

>  <SCORE>
-15.8522

>  <SCORE.INTER>
-10.7233

>  <SCORE.INTER.CONST>
1

>  <SCORE.INTER.POLAR>
0

>  <SCORE.INTER.ROT>
4

>  <SCORE.INTER.SOLV>
17.6696

>  <SCORE.INTER.VDW>
-19.3054

>  <SCORE.INTER.norm>
-0.446806

>  <SCORE.INTRA>
-5.12891

>  <SCORE.INTRA.DIHEDRAL>
-10.8239

>  <SCORE.INTRA.DIHEDRAL.0>
13.2525

>  <SCORE.INTRA.POLAR>
0

>  <SCORE.INTRA.POLAR.0>
0

>  <SCORE.INTRA.REPUL>
0

>  <SCORE.INTRA.REPUL.0>
0

>  <SCORE.INTRA.SOLV>
2.66939

>  <SCORE.INTRA.SOLV.lig_0>
-70.7221

>  <SCORE.INTRA.VDW>
-1.05166

>  <SCORE.INTRA.VDW.0>
-1.46337

>  <SCORE.INTRA.norm>
-0.213704

>  <SCORE.RESTR>
0

>  <SCORE.RESTR.CAVITY>
0

>  <SCORE.RESTR.norm>
0

>  <SCORE.SYSTEM>
0

>  <SCORE.SYSTEM.CONST>
0

>  <SCORE.SYSTEM.DIHEDRAL>
0

>  <SCORE.SYSTEM.SOLV>
0

>  <SCORE.SYSTEM.norm>
0

>  <SCORE.heavy>
24

>  <SCORE.norm>
-0.66051

>  <RMSD>
2.658

$$$$
ligand
 OpenBabel11021811483D
libRbt.so/2013.1/901 2013/11/27
 24 26  0  0  0  0  0  0  0  0999 V2000
   -8.6543  -10.2074   12.1060 P   0  0  1  0  0  0  0  0  0  0  0  0
   -9.5696  -11.2647   11.5262 O   0  0  0  0  0  0  0  0  0  0  0  0
   -8.8879   -9.8385   13.5521 O   0  5  0  0  0  0  0  0  0  0  0  0
   -7.1826  -10.4184   11.7834 O   0  0  0  0  0  0  0  0  0  0  0  0
   -8.4922   -7.5634   11.5618 C   0  0  0  0  0  0  0  0  0  0  0  0
   -9.1213   -8.8412   11.3628 O   0  0  0  0  0  0  0  0  0  0  0  0
   -9.1343   -6.5182   10.6447 C   0  0  1  0  0  0  0  0  0  0  0  0
   -8.5127   -5.2341   10.7804 O   0  0  0  0  0  0  0  0  0  0  0  0
   -9.0759   -6.8478    9.1629 C   0  0  1  0  0  0  0  0  0  0  0  0
  -10.2529   -7.5775    8.8040 O   0  0  0  0  0  0  0  0  0  0  0  0
   -9.0447   -5.4799    8.5009 C   0  0  1  0  0  0  0  0  0  0  0  0
  -10.3713   -4.9450    8.3899 O   0  0  0  0  0  0  0  0  0  0  0  0
   -8.3255   -4.6037    9.5072 C   0  0  2  0  0  0  0  0  0  0  0  0
   -4.3047   -1.4616    9.3763 N   0  0  0  0  0  0  0  0  0  0  0  0
   -5.6109   -1.1775    9.5831 C   0  0  1  0  0  0  0  0  0  0  0  0
   -5.9807    0.1049    9.8004 N   0  0  0  0  0  0  0  0  0  0  0  0
   -6.5461   -2.1560    9.5746 N   0  0  0  0  0  0  0  0  0  0  0  0
   -6.1694   -3.4386    9.3558 C   0  0  1  0  0  0  0  0  0  0  0  0
   -4.8430   -3.7571    9.1401 C   0  0  2  0  0  0  0  0  0  0  0  0
   -3.9022   -2.7340    9.1547 C   0  0  0  0  0  0  0  0  0  0  0  0
   -2.6943   -2.9778    8.9643 O   0  0  0  0  0  0  0  0  0  0  0  0
   -4.7783   -5.0906    8.9493 N   0  0  0  0  0  0  0  0  0  0  0  0
   -6.0346   -5.5835    9.0525 C   0  0  0  0  0  0  0  0  0  0  0  0
   -6.8657   -4.5664    9.3009 N   0  0  1  0  0  0  0  0  0  0  0  0
  1  2  1  6  0  0  0
  1  3  1  0  0  0  0
  1  4  2  0  0  0  0
  1  6  1  0  0  0  0
  5  6  1  0  0  0  0
  7  5  1  1  0  0  0
  7  8  1  0  0  0  0
  7  9  1  0  0  0  0
  9 10  1  6  0  0  0
  9 11  1  0  0  0  0
 11 12  1  1  0  0  0
 11 13  1  0  0  0  0
 13  8  1  1  0  0  0
 13 24  1  0  0  0  0
 14 15  1  0  0  0  0
 14 20  1  0  0  0  0
 15 16  1  6  0  0  0
 15 17  1  0  0  0  0
 18 17  1  1  0  0  0
 18 19  1  0  0  0  0
 18 24  1  0  0  0  0
 19 20  1  6  0  0  0
 19 22  1  0  0  0  0
 20 21  2  0  0  0  0
 22 23  1  0  0  0  0
 24 23  1  1  0  0  0
M  CHG  1   3  -1
M  END
>  <CHROM.1>
-177.53557606,-178.32874918,176.72356574,-108.91787265,-7.41553085,-5.88467582
10.15402135,-2.04499633,-0.22529255,-0.42752290

>  <Name>
ligand

>  <RI>
0

>  <Rbt.Current_Directory>
/home/itssahil/PROJECTS/Mol_Feturizer/New_Systems/rnas/3SLQ

>  <Rbt.Executable>
rbdock ($Id: //depot/dev/client3/rdock/2013.1/src/exe/rbdock.cxx#4 $)

>  <Rbt.Library>
libRbt.so (2013.1, Build901 2013/11/27)

>  <Rbt.Parameter_File>
/export/apps/rDock/src/rDock_2013.1_src/data/scripts/dock_solv.prm

>  <Rbt.Receptor>
prm/pocket_docking_4.prm

>  <SCORE>
-18.7089

>  <SCORE.INTER>
-12.6757

>  <SCORE.INTER.CONST>
1

>  <SCORE.INTER.POLAR>
0

>  <SCORE.INTER.ROT>
4

>  <SCORE.INTER.SOLV>
18.2298

>  <SCORE.INTER.VDW>
-20.7937

>  <SCORE.INTER.norm>
-0.528154

>  <SCORE.INTRA>
-6.03322

>  <SCORE.INTRA.DIHEDRAL>
-11.9888

>  <SCORE.INTRA.DIHEDRAL.0>
13.2525

>  <SCORE.INTRA.POLAR>
0

>  <SCORE.INTRA.POLAR.0>
0

>  <SCORE.INTRA.REPUL>
0

>  <SCORE.INTRA.REPUL.0>
0

>  <SCORE.INTRA.SOLV>
0.633965

>  <SCORE.INTRA.SOLV.lig_0>
-70.7221

>  <SCORE.INTRA.VDW>
-0.355816

>  <SCORE.INTRA.VDW.0>
-1.46337

>  <SCORE.INTRA.norm>
-0.251384

>  <SCORE.RESTR>
0

>  <SCORE.RESTR.CAVITY>
0

>  <SCORE.RESTR.norm>
0

>  <SCORE.SYSTEM>
0

>  <SCORE.SYSTEM.CONST>
0

>  <SCORE.SYSTEM.DIHEDRAL>
0

>  <SCORE.SYSTEM.SOLV>
0

>  <SCORE.SYSTEM.norm>
0

>  <SCORE.heavy>
24

>  <SCORE.norm>
-0.779538

>  <RMSD>
2.699

$$$$
ligand
 OpenBabel11021811483D
libRbt.so/2013.1/901 2013/11/27
 24 26  0  0  0  0  0  0  0  0999 V2000
   -8.1590  -10.1560   11.2679 P   0  0  1  0  0  0  0  0  0  0  0  0
   -8.6526  -10.9394   10.0704 O   0  0  0  0  0  0  0  0  0  0  0  0
   -9.0632   -9.0536   11.7668 O   0  5  0  0  0  0  0  0  0  0  0  0
   -7.6135  -11.0232   12.3927 O   0  0  0  0  0  0  0  0  0  0  0  0
   -6.9828   -8.5113    9.4721 C   0  0  0  0  0  0  0  0  0  0  0  0
   -6.9176   -9.2902   10.6793 O   0  0  0  0  0  0  0  0  0  0  0  0
   -7.8788   -7.2882    9.6893 C   0  0  1  0  0  0  0  0  0  0  0  0
   -7.2440   -6.2998   10.5104 O   0  0  0  0  0  0  0  0  0  0  0  0
   -8.2887   -6.5640    8.4184 C   0  0  1  0  0  0  0  0  0  0  0  0
   -9.5200   -7.1186    7.9460 O   0  0  0  0  0  0  0  0  0  0  0  0
   -8.4649   -5.1254    8.8763 C   0  0  1  0  0  0  0  0  0  0  0  0
   -9.7585   -4.9414    9.4688 O   0  0  0  0  0  0  0  0  0  0  0  0
   -7.4649   -4.9769   10.0059 C   0  0  2  0  0  0  0  0  0  0  0  0
   -4.5961   -0.7933    9.4370 N   0  0  0  0  0  0  0  0  0  0  0  0
   -5.8635   -0.9104    9.8947 C   0  0  1  0  0  0  0  0  0  0  0  0
   -6.5299    0.2003   10.2831 N   0  0  0  0  0  0  0  0  0  0  0  0
   -6.4685   -2.1189    9.9677 N   0  0  0  0  0  0  0  0  0  0  0  0
   -5.7959   -3.2278    9.5766 C   0  0  1  0  0  0  0  0  0  0  0  0
   -4.5016   -3.1374    9.1036 C   0  0  2  0  0  0  0  0  0  0  0  0
   -3.9025   -1.8847    9.0395 C   0  0  0  0  0  0  0  0  0  0  0  0
   -2.7357   -1.7584    8.6186 O   0  0  0  0  0  0  0  0  0  0  0  0
   -4.1024   -4.3870    8.7907 N   0  0  0  0  0  0  0  0  0  0  0  0
   -5.1243   -5.2290    9.0715 C   0  0  0  0  0  0  0  0  0  0  0  0
   -6.1435   -4.5077    9.5490 N   0  0  1  0  0  0  0  0  0  0  0  0
  1  2  1  6  0  0  0
  1  3  1  0  0  0  0
  1  4  2  0  0  0  0
  1  6  1  0  0  0  0
  5  6  1  0  0  0  0
  7  5  1  6  0  0  0
  7  8  1  0  0  0  0
  7  9  1  0  0  0  0
  9 10  1  1  0  0  0
  9 11  1  0  0  0  0
 11 12  1  1  0  0  0
 11 13  1  0  0  0  0
 13  8  1  6  0  0  0
 13 24  1  0  0  0  0
 14 15  1  0  0  0  0
 14 20  1  0  0  0  0
 15 16  1  6  0  0  0
 15 17  1  0  0  0  0
 18 17  1  1  0  0  0
 18 19  1  0  0  0  0
 18 24  1  0  0  0  0
 19 20  1  6  0  0  0
 19 22  1  0  0  0  0
 20 21  2  0  0  0  0
 22 23  1  0  0  0  0
 24 23  1  1  0  0  0
M  CHG  1   3  -1
M  END
>  <CHROM.1>
48.70757161,73.06182509,70.32290084,-149.43110252,-6.88440161,-5.76635808
9.85498051,-1.95762942,-0.07795914,-0.20961778

>  <Name>
ligand

>  <RI>
0

>  <Rbt.Current_Directory>
/home/itssahil/PROJECTS/Mol_Feturizer/New_Systems/rnas/3SLQ

>  <Rbt.Executable>
rbdock ($Id: //depot/dev/client3/rdock/2013.1/src/exe/rbdock.cxx#4 $)

>  <Rbt.Library>
libRbt.so (2013.1, Build901 2013/11/27)

>  <Rbt.Parameter_File>
/export/apps/rDock/src/rDock_2013.1_src/data/scripts/dock_solv.prm

>  <Rbt.Receptor>
prm/pocket_docking_6.prm

>  <SCORE>
-18.9006

>  <SCORE.INTER>
-13.8009

>  <SCORE.INTER.CONST>
1

>  <SCORE.INTER.POLAR>
0

>  <SCORE.INTER.ROT>
4

>  <SCORE.INTER.SOLV>
17.9903

>  <SCORE.INTER.VDW>
-21.464

>  <SCORE.INTER.norm>
-0.575036

>  <SCORE.INTRA>
-5.09978

>  <SCORE.INTRA.DIHEDRAL>
-10.7244

>  <SCORE.INTRA.DIHEDRAL.0>
13.2525

>  <SCORE.INTRA.POLAR>
0

>  <SCORE.INTRA.POLAR.0>
0

>  <SCORE.INTRA.REPUL>
0

>  <SCORE.INTRA.REPUL.0>
0

>  <SCORE.INTRA.SOLV>
1.82066

>  <SCORE.INTRA.SOLV.lig_0>
-70.7221

>  <SCORE.INTRA.VDW>
-0.647903

>  <SCORE.INTRA.VDW.0>
-1.46337

>  <SCORE.INTRA.norm>
-0.212491

>  <SCORE.RESTR>
0

>  <SCORE.RESTR.CAVITY>
0

>  <SCORE.RESTR.norm>
0

>  <SCORE.SYSTEM>
0

>  <SCORE.SYSTEM.CONST>
0

>  <SCORE.SYSTEM.DIHEDRAL>
0

>  <SCORE.SYSTEM.SOLV>
0

>  <SCORE.SYSTEM.norm>
0

>  <SCORE.heavy>
24

>  <SCORE.norm>
-0.787527

>  <RMSD>
2.701

$$$$
ligand
 OpenBabel11021811483D
libRbt.so/2013.1/901 2013/11/27
 24 26  0  0  0  0  0  0  0  0999 V2000
   -5.4856   -7.1094   13.3714 P   0  0  1  0  0  0  0  0  0  0  0  0
   -6.3157   -5.8515   13.5138 O   0  0  0  0  0  0  0  0  0  0  0  0
   -4.0025   -6.9655   13.6200 O   0  5  0  0  0  0  0  0  0  0  0  0
   -6.0822   -8.3262   14.0627 O   0  0  0  0  0  0  0  0  0  0  0  0
   -5.4606   -6.3783   10.7679 C   0  0  0  0  0  0  0  0  0  0  0  0
   -5.5006   -7.4045   11.7746 O   0  0  0  0  0  0  0  0  0  0  0  0
   -6.8821   -5.9054   10.4494 C   0  0  1  0  0  0  0  0  0  0  0  0
   -7.2269   -4.7203   11.1779 O   0  0  0  0  0  0  0  0  0  0  0  0
   -7.1323   -5.5758    8.9878 C   0  0  1  0  0  0  0  0  0  0  0  0
   -7.6010   -6.7519    8.3215 O   0  0  0  0  0  0  0  0  0  0  0  0
   -8.2084   -4.5042    9.0496 C   0  0  1  0  0  0  0  0  0  0  0  0
   -9.5044   -5.1013    9.1979 O   0  0  0  0  0  0  0  0  0  0  0  0
   -7.9308   -3.7830   10.3537 C   0  0  2  0  0  0  0  0  0  0  0  0
   -3.2386   -2.4943    8.8112 N   0  0  0  0  0  0  0  0  0  0  0  0
   -3.8231   -3.7131    8.8583 C   0  0  1  0  0  0  0  0  0  0  0  0
   -3.1254   -4.7958    8.4465 N   0  0  0  0  0  0  0  0  0  0  0  0
   -5.0904   -3.8606    9.3105 N   0  0  0  0  0  0  0  0  0  0  0  0
   -5.7839   -2.7723    9.7222 C   0  0  1  0  0  0  0  0  0  0  0  0
   -5.2113   -1.5161    9.6866 C   0  0  2  0  0  0  0  0  0  0  0  0
   -3.9090   -1.3915    9.2171 C   0  0  0  0  0  0  0  0  0  0  0  0
   -3.3543   -0.2759    9.1684 O   0  0  0  0  0  0  0  0  0  0  0  0
   -6.1279   -0.6458   10.1570 N   0  0  0  0  0  0  0  0  0  0  0  0
   -7.2422   -1.3483   10.4682 C   0  0  0  0  0  0  0  0  0  0  0  0
   -7.0155   -2.6373   10.1963 N   0  0  1  0  0  0  0  0  0  0  0  0
  1  2  1  1  0  0  0
  1  3  1  0  0  0  0
  1  4  2  0  0  0  0
  1  6  1  0  0  0  0
  5  6  1  0  0  0  0
  7  5  1  6  0  0  0
  7  8  1  0  0  0  0
  7  9  1  0  0  0  0
  9 10  1  6  0  0  0
  9 11  1  0  0  0  0
 11 12  1  1  0  0  0
 11 13  1  0  0  0  0
 13  8  1  1  0  0  0
 13 24  1  0  0  0  0
 14 15  1  0  0  0  0
 14 20  1  0  0  0  0
 15 16  1  1  0  0  0
 15 17  1  0  0  0  0
 18 17  1  6  0  0  0
 18 19  1  0  0  0  0
 18 24  1  0  0  0  0
 19 20  1  1  0  0  0
 19 22  1  0  0  0  0
 20 21  2  0  0  0  0
 22 23  1  0  0  0  0
 24 23  1  6  0  0  0
M  CHG  1   3  -1
M  END
>  <CHROM.1>
36.81719661,96.63083069,-87.58116161,55.72487415,-5.88155930,-4.57414093
10.57939152,-1.72226963,-0.37031286,-0.63411373

>  <Name>
ligand

>  <RI>
0

>  <Rbt.Current_Directory>
/home/itssahil/PROJECTS/Mol_Feturizer/New_Systems/rnas/3SLQ

>  <Rbt.Executable>
rbdock ($Id: //depot/dev/client3/rdock/2013.1/src/exe/rbdock.cxx#4 $)

>  <Rbt.Library>
libRbt.so (2013.1, Build901 2013/11/27)

>  <Rbt.Parameter_File>
/export/apps/rDock/src/rDock_2013.1_src/data/scripts/dock_solv.prm

>  <Rbt.Receptor>
prm/pocket_docking_4.prm

>  <SCORE>
-12.7337

>  <SCORE.INTER>
-11.4396

>  <SCORE.INTER.CONST>
1

>  <SCORE.INTER.POLAR>
0

>  <SCORE.INTER.ROT>
4

>  <SCORE.INTER.SOLV>
29.6415

>  <SCORE.INTER.VDW>
-23.7736

>  <SCORE.INTER.norm>
-0.476651

>  <SCORE.INTRA>
-1.29407

>  <SCORE.INTRA.DIHEDRAL>
-4.59958

>  <SCORE.INTRA.DIHEDRAL.0>
13.2525

>  <SCORE.INTRA.POLAR>
0

>  <SCORE.INTRA.POLAR.0>
0

>  <SCORE.INTRA.REPUL>
0

>  <SCORE.INTRA.REPUL.0>
0

>  <SCORE.INTRA.SOLV>
2.5693

>  <SCORE.INTRA.SOLV.lig_0>
-70.7221

>  <SCORE.INTRA.VDW>
-0.278931

>  <SCORE.INTRA.VDW.0>
-1.46337

>  <SCORE.INTRA.norm>
-0.0539197

>  <SCORE.RESTR>
0

>  <SCORE.RESTR.CAVITY>
0

>  <SCORE.RESTR.norm>
0

>  <SCORE.SYSTEM>
0

>  <SCORE.SYSTEM.CONST>
0

>  <SCORE.SYSTEM.DIHEDRAL>
0

>  <SCORE.SYSTEM.SOLV>
0

>  <SCORE.SYSTEM.norm>
0

>  <SCORE.heavy>
24

>  <SCORE.norm>
-0.53057

>  <RMSD>
2.749

$$$$
ligand
 OpenBabel11021811483D
libRbt.so/2013.1/901 2013/11/27
 24 26  0  0  0  0  0  0  0  0999 V2000
   -5.8557  -10.5290   11.0941 P   0  0  1  0  0  0  0  0  0  0  0  0
   -5.9951  -10.7821   12.5800 O   0  0  0  0  0  0  0  0  0  0  0  0
   -4.4859  -10.1150   10.6102 O   0  5  0  0  0  0  0  0  0  0  0  0
   -6.4878  -11.6029   10.2213 O   0  0  0  0  0  0  0  0  0  0  0  0
   -6.8832   -8.5481    9.5664 C   0  0  0  0  0  0  0  0  0  0  0  0
   -6.6917   -9.1575   10.8549 O   0  0  0  0  0  0  0  0  0  0  0  0
   -7.8093   -7.3352    9.6964 C   0  0  1  0  0  0  0  0  0  0  0  0
   -7.2239   -6.2990   10.4950 O   0  0  0  0  0  0  0  0  0  0  0  0
   -8.1855   -6.6759    8.3805 C   0  0  1  0  0  0  0  0  0  0  0  0
   -9.3879   -7.2755    7.8892 O   0  0  0  0  0  0  0  0  0  0  0  0
   -8.4053   -5.2225    8.7673 C   0  0  1  0  0  0  0  0  0  0  0  0
   -9.7231   -5.0389    9.3039 O   0  0  0  0  0  0  0  0  0  0  0  0
   -7.4507   -5.0043    9.9244 C   0  0  2  0  0  0  0  0  0  0  0  0
   -4.5730   -0.8136    9.4616 N   0  0  0  0  0  0  0  0  0  0  0  0
   -5.8473   -0.9370    9.8979 C   0  0  1  0  0  0  0  0  0  0  0  0
   -6.5196    0.1680   10.2921 N   0  0  0  0  0  0  0  0  0  0  0  0
   -6.4536   -2.1464    9.9437 N   0  0  0  0  0  0  0  0  0  0  0  0
   -5.7751   -3.2495    9.5468 C   0  0  1  0  0  0  0  0  0  0  0  0
   -4.4736   -3.1526    9.0953 C   0  0  2  0  0  0  0  0  0  0  0  0
   -3.8735   -1.8994    9.0589 C   0  0  0  0  0  0  0  0  0  0  0  0
   -2.7002   -1.7672    8.6581 O   0  0  0  0  0  0  0  0  0  0  0  0
   -4.0697   -4.3977    8.7703 N   0  0  0  0  0  0  0  0  0  0  0  0
   -5.0959   -5.2433    9.0228 C   0  0  0  0  0  0  0  0  0  0  0  0
   -6.1223   -4.5288    9.4950 N   0  0  1  0  0  0  0  0  0  0  0  0
  1  2  1  1  0  0  0
  1  3  1  0  0  0  0
  1  4  2  0  0  0  0
  1  6  1  0  0  0  0
  5  6  1  0  0  0  0
  7  5  1  6  0  0  0
  7  8  1  0  0  0  0
  7  9  1  0  0  0  0
  9 10  1  1  0  0  0
  9 11  1  0  0  0  0
 11 12  1  1  0  0  0
 11 13  1  0  0  0  0
 13  8  1  6  0  0  0
 13 24  1  0  0  0  0
 14 15  1  0  0  0  0
 14 20  1  0  0  0  0
 15 16  1  6  0  0  0
 15 17  1  0  0  0  0
 18 17  1  1  0  0  0
 18 19  1  0  0  0  0
 18 24  1  0  0  0  0
 19 20  1  6  0  0  0
 19 22  1  0  0  0  0
 20 21  2  0  0  0  0
 22 23  1  0  0  0  0
 24 23  1  1  0  0  0
M  CHG  1   3  -1
M  END
>  <CHROM.1>
-177.57554595,64.61489993,175.50931874,-145.67332353,-6.26554283,-5.89095789
9.79284583,-1.71522098,-0.19871504,-0.18379785

>  <Name>
ligand

>  <RI>
0

>  <Rbt.Current_Directory>
/home/itssahil/PROJECTS/Mol_Feturizer/New_Systems/rnas/3SLQ

>  <Rbt.Executable>
rbdock ($Id: //depot/dev/client3/rdock/2013.1/src/exe/rbdock.cxx#4 $)

>  <Rbt.Library>
libRbt.so (2013.1, Build901 2013/11/27)

>  <Rbt.Parameter_File>
/export/apps/rDock/src/rDock_2013.1_src/data/scripts/dock_solv.prm

>  <Rbt.Receptor>
prm/pocket_docking_6.prm

>  <SCORE>
-17.563

>  <SCORE.INTER>
-11.5181

>  <SCORE.INTER.CONST>
1

>  <SCORE.INTER.POLAR>
0

>  <SCORE.INTER.ROT>
4

>  <SCORE.INTER.SOLV>
24.6541

>  <SCORE.INTER.VDW>
-22.1635

>  <SCORE.INTER.norm>
-0.479923

>  <SCORE.INTRA>
-6.04484

>  <SCORE.INTRA.DIHEDRAL>
-11.8458

>  <SCORE.INTRA.DIHEDRAL.0>
13.2525

>  <SCORE.INTRA.POLAR>
0

>  <SCORE.INTRA.POLAR.0>
0

>  <SCORE.INTRA.REPUL>
0

>  <SCORE.INTRA.REPUL.0>
0

>  <SCORE.INTRA.SOLV>
0.433679

>  <SCORE.INTRA.SOLV.lig_0>
-70.7221

>  <SCORE.INTRA.VDW>
-0.338779

>  <SCORE.INTRA.VDW.0>
-1.46337

>  <SCORE.INTRA.norm>
-0.251868

>  <SCORE.RESTR>
0

>  <SCORE.RESTR.CAVITY>
0

>  <SCORE.RESTR.norm>
0

>  <SCORE.SYSTEM>
0

>  <SCORE.SYSTEM.CONST>
0

>  <SCORE.SYSTEM.DIHEDRAL>
0

>  <SCORE.SYSTEM.SOLV>
0

>  <SCORE.SYSTEM.norm>
0

>  <SCORE.heavy>
24

>  <SCORE.norm>
-0.731791

>  <RMSD>
2.763

$$$$
ligand
 OpenBabel11021811483D
libRbt.so/2013.1/901 2013/11/27
 24 26  0  0  0  0  0  0  0  0999 V2000
   -9.4902   -7.8329   14.2872 P   0  0  1  0  0  0  0  0  0  0  0  0
  -10.9453   -8.0533   14.6415 O   0  0  0  0  0  0  0  0  0  0  0  0
   -8.6944   -6.9636   15.2322 O   0  5  0  0  0  0  0  0  0  0  0  0
   -8.7503   -9.1022   13.8920 O   0  0  0  0  0  0  0  0  0  0  0  0
   -9.6115   -7.3747   11.6247 C   0  0  0  0  0  0  0  0  0  0  0  0
   -9.5515   -6.8799   12.9738 O   0  0  0  0  0  0  0  0  0  0  0  0
   -9.9960   -6.2401   10.6705 C   0  0  1  0  0  0  0  0  0  0  0  0
   -9.0675   -5.1502   10.7346 O   0  0  0  0  0  0  0  0  0  0  0  0
  -10.0648   -6.6348    9.2052 C   0  0  1  0  0  0  0  0  0  0  0  0
  -11.3974   -7.0576    8.9016 O   0  0  0  0  0  0  0  0  0  0  0  0
   -9.7095   -5.3478    8.4788 C   0  0  1  0  0  0  0  0  0  0  0  0
  -10.8614   -4.5001    8.3656 O   0  0  0  0  0  0  0  0  0  0  0  0
   -8.7644   -4.6408    9.4299 C   0  0  2  0  0  0  0  0  0  0  0  0
   -4.0819   -2.6312    9.1263 N   0  0  0  0  0  0  0  0  0  0  0  0
   -5.2673   -2.0183    9.3467 C   0  0  1  0  0  0  0  0  0  0  0  0
   -5.2936   -0.6786    9.5287 N   0  0  0  0  0  0  0  0  0  0  0  0
   -6.4203   -2.7262    9.3865 N   0  0  0  0  0  0  0  0  0  0  0  0
   -6.3875   -4.0678    9.2029 C   0  0  1  0  0  0  0  0  0  0  0  0
   -5.1915   -4.7194    8.9744 C   0  0  2  0  0  0  0  0  0  0  0  0
   -4.0215   -3.9697    8.9391 C   0  0  0  0  0  0  0  0  0  0  0  0
   -2.9204   -4.5181    8.7355 O   0  0  0  0  0  0  0  0  0  0  0  0
   -5.4726   -6.0300    8.8258 N   0  0  0  0  0  0  0  0  0  0  0  0
   -6.8099   -6.1837    8.9671 C   0  0  0  0  0  0  0  0  0  0  0  0
   -7.3487   -4.9821    9.1969 N   0  0  1  0  0  0  0  0  0  0  0  0
  1  2  1  1  0  0  0
  1  3  1  0  0  0  0
  1  4  2  0  0  0  0
  1  6  1  0  0  0  0
  5  6  1  0  0  0  0
  7  5  1  1  0  0  0
  7  8  1  0  0  0  0
  7  9  1  0  0  0  0
  9 10  1  6  0  0  0
  9 11  1  0  0  0  0
 11 12  1  1  0  0  0
 11 13  1  0  0  0  0
 13  8  1  1  0  0  0
 13 24  1  0  0  0  0
 14 15  1  0  0  0  0
 14 20  1  0  0  0  0
 15 16  1  6  0  0  0
 15 17  1  0  0  0  0
 18 17  1  1  0  0  0
 18 19  1  0  0  0  0
 18 24  1  0  0  0  0
 19 20  1  6  0  0  0
 19 22  1  0  0  0  0
 20 21  2  0  0  0  0
 22 23  1  0  0  0  0
 24 23  1  1  0  0  0
M  CHG  1   3  -1
M  END
>  <CHROM.1>
-89.73256531,58.38962368,166.39878717,-108.05947230,-7.93638808,-5.54627380
10.65419618,-2.28409850,-0.35501708,-1.09015232

>  <Name>
ligand

>  <RI>
0

>  <Rbt.Current_Directory>
/home/itssahil/PROJECTS/Mol_Feturizer/New_Systems/rnas/3SLQ

>  <Rbt.Executable>
rbdock ($Id: //depot/dev/client3/rdock/2013.1/src/exe/rbdock.cxx#4 $)

>  <Rbt.Library>
libRbt.so (2013.1, Build901 2013/11/27)

>  <Rbt.Parameter_File>
/export/apps/rDock/src/rDock_2013.1_src/data/scripts/dock_solv.prm

>  <Rbt.Receptor>
prm/pocket_docking_4.prm

>  <SCORE>
-17.4211

>  <SCORE.INTER>
-12.1605

>  <SCORE.INTER.CONST>
1

>  <SCORE.INTER.POLAR>
0

>  <SCORE.INTER.ROT>
4

>  <SCORE.INTER.SOLV>
18.8318

>  <SCORE.INTER.VDW>
-20.6509

>  <SCORE.INTER.norm>
-0.506688

>  <SCORE.INTRA>
-5.26057

>  <SCORE.INTRA.DIHEDRAL>
-10.0002

>  <SCORE.INTRA.DIHEDRAL.0>
13.2525

>  <SCORE.INTRA.POLAR>
0

>  <SCORE.INTRA.POLAR.0>
0

>  <SCORE.INTRA.REPUL>
0

>  <SCORE.INTRA.REPUL.0>
0

>  <SCORE.INTRA.SOLV>
0.0315256

>  <SCORE.INTRA.SOLV.lig_0>
-70.7221

>  <SCORE.INTRA.VDW>
-0.276225

>  <SCORE.INTRA.VDW.0>
-1.46337

>  <SCORE.INTRA.norm>
-0.219191

>  <SCORE.RESTR>
0

>  <SCORE.RESTR.CAVITY>
0

>  <SCORE.RESTR.norm>
0

>  <SCORE.SYSTEM>
0

>  <SCORE.SYSTEM.CONST>
0

>  <SCORE.SYSTEM.DIHEDRAL>
0

>  <SCORE.SYSTEM.SOLV>
0

>  <SCORE.SYSTEM.norm>
0

>  <SCORE.heavy>
24

>  <SCORE.norm>
-0.725879

>  <RMSD>
2.881

$$$$
ligand
 OpenBabel11021811483D
libRbt.so/2013.1/901 2013/11/27
 24 26  0  0  0  0  0  0  0  0999 V2000
   -8.0342  -10.5413   11.4230 P   0  0  1  0  0  0  0  0  0  0  0  0
   -8.8425  -11.5129   10.5899 O   0  0  0  0  0  0  0  0  0  0  0  0
   -8.3726  -10.4763   12.8937 O   0  5  0  0  0  0  0  0  0  0  0  0
   -6.5358  -10.6039   11.1667 O   0  0  0  0  0  0  0  0  0  0  0  0
   -8.4582   -8.6196    9.5679 C   0  0  0  0  0  0  0  0  0  0  0  0
   -8.5493   -9.0835   10.9261 O   0  0  0  0  0  0  0  0  0  0  0  0
   -9.1062   -7.2373    9.4451 C   0  0  1  0  0  0  0  0  0  0  0  0
   -8.4304   -6.2575   10.2435 O   0  0  0  0  0  0  0  0  0  0  0  0
   -9.1355   -6.6694    8.0365 C   0  0  1  0  0  0  0  0  0  0  0  0
  -10.3560   -7.0647    7.4031 O   0  0  0  0  0  0  0  0  0  0  0  0
   -9.0865   -5.1673    8.2634 C   0  0  1  0  0  0  0  0  0  0  0  0
  -10.3958   -4.6606    8.5584 O   0  0  0  0  0  0  0  0  0  0  0  0
   -8.2845   -5.0171    9.5409 C   0  0  2  0  0  0  0  0  0  0  0  0
   -4.4918   -1.6030    9.4154 N   0  0  0  0  0  0  0  0  0  0  0  0
   -5.8082   -1.4162    9.6637 C   0  0  1  0  0  0  0  0  0  0  0  0
   -6.2585   -0.1698    9.9325 N   0  0  0  0  0  0  0  0  0  0  0  0
   -6.6746   -2.4560    9.6457 N   0  0  0  0  0  0  0  0  0  0  0  0
   -6.2175   -3.7021    9.3752 C   0  0  1  0  0  0  0  0  0  0  0  0
   -4.8788   -3.9216    9.1165 C   0  0  2  0  0  0  0  0  0  0  0  0
   -4.0097   -2.8371    9.1418 C   0  0  0  0  0  0  0  0  0  0  0  0
   -2.7936   -2.9910    8.9137 O   0  0  0  0  0  0  0  0  0  0  0  0
   -4.7287   -5.2408    8.8798 N   0  0  0  0  0  0  0  0  0  0  0  0
   -5.9453   -5.8221    8.9976 C   0  0  0  0  0  0  0  0  0  0  0  0
   -6.8367   -4.8729    9.3001 N   0  0  1  0  0  0  0  0  0  0  0  0
  1  2  1  6  0  0  0
  1  3  1  0  0  0  0
  1  4  2  0  0  0  0
  1  6  1  0  0  0  0
  5  6  1  0  0  0  0
  7  5  1  6  0  0  0
  7  8  1  0  0  0  0
  7  9  1  0  0  0  0
  9 10  1  1  0  0  0
  9 11  1  0  0  0  0
 11 12  1  1  0  0  0
 11 13  1  0  0  0  0
 13  8  1  1  0  0  0
 13 24  1  0  0  0  0
 14 15  1  0  0  0  0
 14 20  1  0  0  0  0
 15 16  1  6  0  0  0
 15 17  1  0  0  0  0
 18 17  1  1  0  0  0
 18 19  1  0  0  0  0
 18 24  1  0  0  0  0
 19 20  1  6  0  0  0
 19 22  1  0  0  0  0
 20 21  2  0  0  0  0
 22 23  1  0  0  0  0
 24 23  1  1  0  0  0
M  CHG  1   3  -1
M  END
>  <CHROM.1>
-59.24556874,62.53553108,176.92703721,-142.01615702,-7.28734953,-6.12935680
9.72876834,-1.97344063,-0.31726277,-0.34151239

>  <Name>
ligand

>  <RI>
0

>  <Rbt.Current_Directory>
/home/itssahil/PROJECTS/Mol_Feturizer/New_Systems/rnas/3SLQ

>  <Rbt.Executable>
rbdock ($Id: //depot/dev/client3/rdock/2013.1/src/exe/rbdock.cxx#4 $)

>  <Rbt.Library>
libRbt.so (2013.1, Build901 2013/11/27)

>  <Rbt.Parameter_File>
/export/apps/rDock/src/rDock_2013.1_src/data/scripts/dock_solv.prm

>  <Rbt.Receptor>
prm/pocket_docking_4.prm

>  <SCORE>
-20.2218

>  <SCORE.INTER>
-13.7499

>  <SCORE.INTER.CONST>
1

>  <SCORE.INTER.POLAR>
0

>  <SCORE.INTER.ROT>
4

>  <SCORE.INTER.SOLV>
17.8021

>  <SCORE.INTER.VDW>
-21.3673

>  <SCORE.INTER.norm>
-0.572911

>  <SCORE.INTRA>
-6.47195

>  <SCORE.INTRA.DIHEDRAL>
-11.9618

>  <SCORE.INTRA.DIHEDRAL.0>
13.2525

>  <SCORE.INTRA.POLAR>
0

>  <SCORE.INTRA.POLAR.0>
0

>  <SCORE.INTRA.REPUL>
0

>  <SCORE.INTRA.REPUL.0>
0

>  <SCORE.INTRA.SOLV>
-0.169997

>  <SCORE.INTRA.SOLV.lig_0>
-70.7221

>  <SCORE.INTRA.VDW>
-0.406052

>  <SCORE.INTRA.VDW.0>
-1.46337

>  <SCORE.INTRA.norm>
-0.269664

>  <SCORE.RESTR>
0

>  <SCORE.RESTR.CAVITY>
0

>  <SCORE.RESTR.norm>
0

>  <SCORE.SYSTEM>
0

>  <SCORE.SYSTEM.CONST>
0

>  <SCORE.SYSTEM.DIHEDRAL>
0

>  <SCORE.SYSTEM.SOLV>
0

>  <SCORE.SYSTEM.norm>
0

>  <SCORE.heavy>
24

>  <SCORE.norm>
-0.842576

>  <RMSD>
3.112

$$$$
ligand
 OpenBabel11021811483D
libRbt.so/2013.1/901 2013/11/27
 24 26  0  0  0  0  0  0  0  0999 V2000
   -9.9497   -7.6069   14.0936 P   0  0  1  0  0  0  0  0  0  0  0  0
  -11.3762   -7.8331   14.5471 O   0  0  0  0  0  0  0  0  0  0  0  0
   -9.1389   -6.6191   14.8990 O   0  5  0  0  0  0  0  0  0  0  0  0
   -9.1856   -8.8875   13.7923 O   0  0  0  0  0  0  0  0  0  0  0  0
  -10.0728   -7.4230   11.3983 C   0  0  0  0  0  0  0  0  0  0  0  0
  -10.1119   -6.7998   12.6938 O   0  0  0  0  0  0  0  0  0  0  0  0
  -10.4107   -6.3943   10.3151 C   0  0  1  0  0  0  0  0  0  0  0  0
   -9.5255   -5.2678   10.3532 O   0  0  0  0  0  0  0  0  0  0  0  0
  -10.3433   -6.9211    8.8918 C   0  0  1  0  0  0  0  0  0  0  0  0
  -11.6317   -7.4208    8.5215 O   0  0  0  0  0  0  0  0  0  0  0  0
   -9.9683   -5.6916    8.0807 C   0  0  1  0  0  0  0  0  0  0  0  0
  -11.1325   -4.9028    7.7964 O   0  0  0  0  0  0  0  0  0  0  0  0
   -9.1294   -4.8661    9.0359 C   0  0  2  0  0  0  0  0  0  0  0  0
   -4.4910   -2.7463    9.2566 N   0  0  0  0  0  0  0  0  0  0  0  0
   -5.7076   -2.1638    9.3565 C   0  0  1  0  0  0  0  0  0  0  0  0
   -5.7854   -0.8278    9.5503 N   0  0  0  0  0  0  0  0  0  0  0  0
   -6.8409   -2.8982    9.2649 N   0  0  0  0  0  0  0  0  0  0  0  0
   -6.7564   -4.2360    9.0702 C   0  0  1  0  0  0  0  0  0  0  0  0
   -5.5274   -4.8569    8.9629 C   0  0  2  0  0  0  0  0  0  0  0  0
   -4.3788   -4.0803    9.0613 C   0  0  0  0  0  0  0  0  0  0  0  0
   -3.2494   -4.6006    8.9698 O   0  0  0  0  0  0  0  0  0  0  0  0
   -5.7594   -6.1713    8.7699 N   0  0  0  0  0  0  0  0  0  0  0  0
   -7.1000   -6.3574    8.7660 C   0  0  0  0  0  0  0  0  0  0  0  0
   -7.6891   -5.1718    8.9511 N   0  0  1  0  0  0  0  0  0  0  0  0
  1  2  1  1  0  0  0
  1  3  1  0  0  0  0
  1  4  2  0  0  0  0
  1  6  1  0  0  0  0
  5  6  1  0  0  0  0
  7  5  1  1  0  0  0
  7  8  1  0  0  0  0
  7  9  1  0  0  0  0
  9 10  1  6  0  0  0
  9 11  1  0  0  0  0
 11 12  1  1  0  0  0
 11 13  1  0  0  0  0
 13  8  1  1  0  0  0
 13 24  1  0  0  0  0
 14 15  1  0  0  0  0
 14 20  1  0  0  0  0
 15 16  1  6  0  0  0
 15 17  1  0  0  0  0
 18 17  1  1  0  0  0
 18 19  1  0  0  0  0
 18 24  1  0  0  0  0
 19 20  1  6  0  0  0
 19 22  1  0  0  0  0
 20 21  2  0  0  0  0
 22 23  1  0  0  0  0
 24 23  1  1  0  0  0
M  CHG  1   3  -1
M  END
>  <CHROM.1>
-96.95739396,57.05565111,173.82064200,-101.89850124,-8.32294278,-5.62541267
10.47115305,-2.37276310,-0.44806543,-1.22089112

>  <Name>
ligand

>  <RI>
0

>  <Rbt.Current_Directory>
/home/itssahil/PROJECTS/Mol_Feturizer/New_Systems/rnas/3SLQ

>  <Rbt.Executable>
rbdock ($Id: //depot/dev/client3/rdock/2013.1/src/exe/rbdock.cxx#4 $)

>  <Rbt.Library>
libRbt.so (2013.1, Build901 2013/11/27)

>  <Rbt.Parameter_File>
/export/apps/rDock/src/rDock_2013.1_src/data/scripts/dock_solv.prm

>  <Rbt.Receptor>
prm/pocket_docking_4.prm

>  <SCORE>
-17.7564

>  <SCORE.INTER>
-12.5252

>  <SCORE.INTER.CONST>
1

>  <SCORE.INTER.POLAR>
0

>  <SCORE.INTER.ROT>
4

>  <SCORE.INTER.SOLV>
19.3922

>  <SCORE.INTER.VDW>
-21.0809

>  <SCORE.INTER.norm>
-0.521885

>  <SCORE.INTRA>
-5.23118

>  <SCORE.INTRA.DIHEDRAL>
-10.2267

>  <SCORE.INTRA.DIHEDRAL.0>
13.2525

>  <SCORE.INTRA.POLAR>
0

>  <SCORE.INTRA.POLAR.0>
0

>  <SCORE.INTRA.REPUL>
0

>  <SCORE.INTRA.REPUL.0>
0

>  <SCORE.INTRA.SOLV>
0.109877

>  <SCORE.INTRA.SOLV.lig_0>
-70.7221

>  <SCORE.INTRA.VDW>
-0.172764

>  <SCORE.INTRA.VDW.0>
-1.46337

>  <SCORE.INTRA.norm>
-0.217966

>  <SCORE.RESTR>
0

>  <SCORE.RESTR.CAVITY>
0

>  <SCORE.RESTR.norm>
0

>  <SCORE.SYSTEM>
0

>  <SCORE.SYSTEM.CONST>
0

>  <SCORE.SYSTEM.DIHEDRAL>
0

>  <SCORE.SYSTEM.SOLV>
0

>  <SCORE.SYSTEM.norm>
0

>  <SCORE.heavy>
24

>  <SCORE.norm>
-0.739851

>  <RMSD>
3.167

$$$$
ligand
 OpenBabel11021811483D
libRbt.so/2013.1/901 2013/11/27
 24 26  0  0  0  0  0  0  0  0999 V2000
  -10.1750  -10.0949   11.4852 P   0  0  1  0  0  0  0  0  0  0  0  0
  -11.5662  -10.6849   11.3959 O   0  0  0  0  0  0  0  0  0  0  0  0
   -9.6265   -9.8788   12.8759 O   0  5  0  0  0  0  0  0  0  0  0  0
   -9.1662  -10.7442   10.5496 O   0  0  0  0  0  0  0  0  0  0  0  0
   -9.4077   -7.5164   11.2095 C   0  0  0  0  0  0  0  0  0  0  0  0
  -10.3731   -8.5601   10.9929 O   0  0  0  0  0  0  0  0  0  0  0  0
   -9.7772   -6.2845   10.3778 C   0  0  1  0  0  0  0  0  0  0  0  0
   -8.8764   -5.1940   10.6088 O   0  0  0  0  0  0  0  0  0  0  0  0
   -9.7766   -6.5058    8.8749 C   0  0  1  0  0  0  0  0  0  0  0  0
  -11.0859   -6.9128    8.4662 O   0  0  0  0  0  0  0  0  0  0  0  0
   -9.4198   -5.1368    8.3194 C   0  0  1  0  0  0  0  0  0  0  0  0
  -10.5844   -4.3013    8.2554 O   0  0  0  0  0  0  0  0  0  0  0  0
   -8.5307   -4.5302    9.3867 C   0  0  2  0  0  0  0  0  0  0  0  0
   -3.9203   -2.3486    9.1837 N   0  0  0  0  0  0  0  0  0  0  0  0
   -5.1312   -1.7811    9.3863 C   0  0  1  0  0  0  0  0  0  0  0  0
   -5.2099   -0.4447    9.5769 N   0  0  0  0  0  0  0  0  0  0  0  0
   -6.2580   -2.5309    9.3999 N   0  0  0  0  0  0  0  0  0  0  0  0
   -6.1727   -3.8691    9.2077 C   0  0  1  0  0  0  0  0  0  0  0  0
   -4.9496   -4.4747    8.9970 C   0  0  2  0  0  0  0  0  0  0  0  0
   -3.8075   -3.6826    8.9885 C   0  0  0  0  0  0  0  0  0  0  0  0
   -2.6834   -4.1889    8.8016 O   0  0  0  0  0  0  0  0  0  0  0  0
   -5.1796   -5.7936    8.8343 N   0  0  0  0  0  0  0  0  0  0  0  0
   -6.5128   -5.9972    8.9497 C   0  0  0  0  0  0  0  0  0  0  0  0
   -7.0994   -4.8178    9.1777 N   0  0  1  0  0  0  0  0  0  0  0  0
  1  2  1  1  0  0  0
  1  3  1  0  0  0  0
  1  4  2  0  0  0  0
  1  6  1  0  0  0  0
  5  6  1  0  0  0  0
  7  5  1  1  0  0  0
  7  8  1  0  0  0  0
  7  9  1  0  0  0  0
  9 10  1  6  0  0  0
  9 11  1  0  0  0  0
 11 12  1  1  0  0  0
 11 13  1  0  0  0  0
 13  8  1  1  0  0  0
 13 24  1  0  0  0  0
 14 15  1  0  0  0  0
 14 20  1  0  0  0  0
 15 16  1  6  0  0  0
 15 17  1  0  0  0  0
 18 17  1  1  0  0  0
 18 19  1  0  0  0  0
 18 24  1  0  0  0  0
 19 20  1  6  0  0  0
 19 22  1  0  0  0  0
 20 21  2  0  0  0  0
 22 23  1  0  0  0  0
 24 23  1  1  0  0  0
M  CHG  1   3  -1
M  END
>  <CHROM.1>
164.28145974,177.30468531,168.44808263,-114.58023249,-7.95540453,-6.02253290
9.85133915,-2.25090182,-0.10333399,-0.38197682

>  <Name>
ligand

>  <RI>
0

>  <Rbt.Current_Directory>
/home/itssahil/PROJECTS/Mol_Feturizer/New_Systems/rnas/3SLQ

>  <Rbt.Executable>
rbdock ($Id: //depot/dev/client3/rdock/2013.1/src/exe/rbdock.cxx#4 $)

>  <Rbt.Library>
libRbt.so (2013.1, Build901 2013/11/27)

>  <Rbt.Parameter_File>
/export/apps/rDock/src/rDock_2013.1_src/data/scripts/dock_solv.prm

>  <Rbt.Receptor>
prm/pocket_docking_7.prm

>  <SCORE>
-20.6968

>  <SCORE.INTER>
-15.3019

>  <SCORE.INTER.CONST>
1

>  <SCORE.INTER.POLAR>
0

>  <SCORE.INTER.ROT>
4

>  <SCORE.INTER.SOLV>
24.5248

>  <SCORE.INTER.VDW>
-24.6428

>  <SCORE.INTER.norm>
-0.637577

>  <SCORE.INTRA>
-5.39498

>  <SCORE.INTRA.DIHEDRAL>
-11.0106

>  <SCORE.INTRA.DIHEDRAL.0>
13.2525

>  <SCORE.INTRA.POLAR>
0

>  <SCORE.INTRA.POLAR.0>
0

>  <SCORE.INTRA.REPUL>
0

>  <SCORE.INTRA.REPUL.0>
0

>  <SCORE.INTRA.SOLV>
0.731917

>  <SCORE.INTRA.SOLV.lig_0>
-70.7221

>  <SCORE.INTRA.VDW>
-0.255636

>  <SCORE.INTRA.VDW.0>
-1.46337

>  <SCORE.INTRA.norm>
-0.224791

>  <SCORE.RESTR>
0

>  <SCORE.RESTR.CAVITY>
0

>  <SCORE.RESTR.norm>
0

>  <SCORE.SYSTEM>
0

>  <SCORE.SYSTEM.CONST>
0

>  <SCORE.SYSTEM.DIHEDRAL>
0

>  <SCORE.SYSTEM.SOLV>
0

>  <SCORE.SYSTEM.norm>
0

>  <SCORE.heavy>
24

>  <SCORE.norm>
-0.862368

>  <RMSD>
3.495

$$$$
ligand
 OpenBabel11021811483D
libRbt.so/2013.1/901 2013/11/27
 24 26  0  0  0  0  0  0  0  0999 V2000
  -10.3666   -9.6460   11.0164 P   0  0  1  0  0  0  0  0  0  0  0  0
  -10.1075  -10.8444   11.9042 O   0  0  0  0  0  0  0  0  0  0  0  0
  -11.2801   -9.8722    9.8348 O   0  5  0  0  0  0  0  0  0  0  0  0
  -10.6956   -8.3709   11.7782 O   0  0  0  0  0  0  0  0  0  0  0  0
   -8.8104   -8.7258    9.0051 C   0  0  0  0  0  0  0  0  0  0  0  0
   -8.9474   -9.4074   10.2641 O   0  0  0  0  0  0  0  0  0  0  0  0
   -9.3843   -7.3100    9.1142 C   0  0  1  0  0  0  0  0  0  0  0  0
   -8.6401   -6.5012   10.0340 O   0  0  0  0  0  0  0  0  0  0  0  0
   -9.4109   -6.5303    7.8108 C   0  0  1  0  0  0  0  0  0  0  0  0
  -10.6635   -6.7601    7.1591 O   0  0  0  0  0  0  0  0  0  0  0  0
   -9.2753   -5.0858    8.2640 C   0  0  1  0  0  0  0  0  0  0  0  0
  -10.5489   -4.5649    8.6701 O   0  0  0  0  0  0  0  0  0  0  0  0
   -8.4409   -5.1761    9.5262 C   0  0  2  0  0  0  0  0  0  0  0  0
   -4.5634   -1.8611    9.3450 N   0  0  0  0  0  0  0  0  0  0  0  0
   -5.8719   -1.6395    9.6061 C   0  0  1  0  0  0  0  0  0  0  0  0
   -6.2872   -0.3807    9.8738 N   0  0  0  0  0  0  0  0  0  0  0  0
   -6.7647   -2.6568    9.6022 N   0  0  0  0  0  0  0  0  0  0  0  0
   -6.3427   -3.9154    9.3327 C   0  0  1  0  0  0  0  0  0  0  0  0
   -5.0129   -4.1703    9.0610 C   0  0  2  0  0  0  0  0  0  0  0  0
   -4.1160   -3.1084    9.0721 C   0  0  0  0  0  0  0  0  0  0  0  0
   -2.9067   -3.2945    8.8320 O   0  0  0  0  0  0  0  0  0  0  0  0
   -4.8991   -5.4940    8.8290 N   0  0  0  0  0  0  0  0  0  0  0  0
   -6.1290   -6.0433    8.9622 C   0  0  0  0  0  0  0  0  0  0  0  0
   -6.9924   -5.0702    9.2696 N   0  0  1  0  0  0  0  0  0  0  0  0
  1  2  1  1  0  0  0
  1  3  1  0  0  0  0
  1  4  2  0  0  0  0
  1  6  1  0  0  0  0
  5  6  1  0  0  0  0
  7  5  1  6  0  0  0
  7  8  1  0  0  0  0
  7  9  1  0  0  0  0
  9 10  1  1  0  0  0
  9 11  1  0  0  0  0
 11 12  1  1  0  0  0
 11 13  1  0  0  0  0
 13  8  1  6  0  0  0
 13 24  1  0  0  0  0
 14 15  1  0  0  0  0
 14 20  1  0  0  0  0
 15 16  1  6  0  0  0
 15 17  1  0  0  0  0
 18 17  1  1  0  0  0
 18 19  1  0  0  0  0
 18 24  1  0  0  0  0
 19 20  1  6  0  0  0
 19 22  1  0  0  0  0
 20 21  2  0  0  0  0
 22 23  1  0  0  0  0
 24 23  1  1  0  0  0
M  CHG  1   3  -1
M  END
>  <CHROM.1>
156.56253818,64.78794785,57.90385512,-151.31244370,-8.00730464,-6.00316489
9.53138360,-2.24843670,-0.20460364,-0.34106661

>  <Name>
ligand

>  <RI>
0

>  <Rbt.Current_Directory>
/home/itssahil/PROJECTS/Mol_Feturizer/New_Systems/rnas/3SLQ

>  <Rbt.Executable>
rbdock ($Id: //depot/dev/client3/rdock/2013.1/src/exe/rbdock.cxx#4 $)

>  <Rbt.Library>
libRbt.so (2013.1, Build901 2013/11/27)

>  <Rbt.Parameter_File>
/export/apps/rDock/src/rDock_2013.1_src/data/scripts/dock_solv.prm

>  <Rbt.Receptor>
prm/pocket_docking_5.prm

>  <SCORE>
-19.6372

>  <SCORE.INTER>
-15.3413

>  <SCORE.INTER.CONST>
1

>  <SCORE.INTER.POLAR>
0

>  <SCORE.INTER.ROT>
4

>  <SCORE.INTER.SOLV>
21.8261

>  <SCORE.INTER.VDW>
-23.7696

>  <SCORE.INTER.norm>
-0.639221

>  <SCORE.INTRA>
-4.29588

>  <SCORE.INTRA.DIHEDRAL>
-11.1362

>  <SCORE.INTRA.DIHEDRAL.0>
13.2525

>  <SCORE.INTRA.POLAR>
0

>  <SCORE.INTRA.POLAR.0>
0

>  <SCORE.INTRA.REPUL>
0

>  <SCORE.INTRA.REPUL.0>
0

>  <SCORE.INTRA.SOLV>
3.45097

>  <SCORE.INTRA.SOLV.lig_0>
-70.7221

>  <SCORE.INTRA.VDW>
-0.453276

>  <SCORE.INTRA.VDW.0>
-1.46337

>  <SCORE.INTRA.norm>
-0.178995

>  <SCORE.RESTR>
0

>  <SCORE.RESTR.CAVITY>
0

>  <SCORE.RESTR.norm>
0

>  <SCORE.SYSTEM>
0

>  <SCORE.SYSTEM.CONST>
0

>  <SCORE.SYSTEM.DIHEDRAL>
0

>  <SCORE.SYSTEM.SOLV>
0

>  <SCORE.SYSTEM.norm>
0

>  <SCORE.heavy>
24

>  <SCORE.norm>
-0.818216

>  <RMSD>
3.555

$$$$
ligand
 OpenBabel11021811483D
libRbt.so/2013.1/901 2013/11/27
 24 26  0  0  0  0  0  0  0  0999 V2000
   -7.9912  -10.0048   10.7382 P   0  0  1  0  0  0  0  0  0  0  0  0
   -6.6563   -9.9299   10.0283 O   0  0  0  0  0  0  0  0  0  0  0  0
   -8.9744  -11.0234   10.2113 O   0  5  0  0  0  0  0  0  0  0  0  0
   -7.8850  -10.0204   12.2558 O   0  0  0  0  0  0  0  0  0  0  0  0
  -10.0655   -8.2697   10.7231 C   0  0  0  0  0  0  0  0  0  0  0  0
   -8.7306   -8.6210   10.3193 O   0  0  0  0  0  0  0  0  0  0  0  0
  -10.4291   -6.8873   10.1732 C   0  0  1  0  0  0  0  0  0  0  0  0
   -9.5096   -5.8791   10.6116 O   0  0  0  0  0  0  0  0  0  0  0  0
  -10.4528   -6.7898    8.6574 C   0  0  1  0  0  0  0  0  0  0  0  0
  -11.7733   -7.0879    8.1947 O   0  0  0  0  0  0  0  0  0  0  0  0
  -10.0844   -5.3388    8.3940 C   0  0  1  0  0  0  0  0  0  0  0  0
  -11.2377   -4.4957    8.5252 O   0  0  0  0  0  0  0  0  0  0  0  0
   -9.1717   -4.9784    9.5494 C   0  0  2  0  0  0  0  0  0  0  0  0
   -4.6080   -2.7127    9.2402 N   0  0  0  0  0  0  0  0  0  0  0  0
   -5.8163   -2.1759    9.5256 C   0  0  1  0  0  0  0  0  0  0  0  0
   -5.9054   -0.8516    9.7841 N   0  0  0  0  0  0  0  0  0  0  0  0
   -6.9302   -2.9443    9.5547 N   0  0  0  0  0  0  0  0  0  0  0  0
   -6.8345   -4.2701    9.2942 C   0  0  1  0  0  0  0  0  0  0  0  0
   -5.6140   -4.8445    8.9983 C   0  0  2  0  0  0  0  0  0  0  0  0
   -4.4851   -4.0338    8.9757 C   0  0  0  0  0  0  0  0  0  0  0  0
   -3.3638   -4.5117    8.7130 O   0  0  0  0  0  0  0  0  0  0  0  0
   -5.8322   -6.1578    8.7827 N   0  0  0  0  0  0  0  0  0  0  0  0
   -7.1554   -6.3889    8.9494 C   0  0  0  0  0  0  0  0  0  0  0  0
   -7.7477   -5.2317    9.2610 N   0  0  1  0  0  0  0  0  0  0  0  0
  1  2  1  6  0  0  0
  1  3  1  0  0  0  0
  1  4  2  0  0  0  0
  1  6  1  0  0  0  0
  5  6  1  0  0  0  0
  7  5  1  6  0  0  0
  7  8  1  0  0  0  0
  7  9  1  0  0  0  0
  9 10  1  1  0  0  0
  9 11  1  0  0  0  0
 11 12  1  1  0  0  0
 11 13  1  0  0  0  0
 13  8  1  1  0  0  0
 13 24  1  0  0  0  0
 14 15  1  0  0  0  0
 14 20  1  0  0  0  0
 15 16  1  6  0  0  0
 15 17  1  0  0  0  0
 18 17  1  1  0  0  0
 18 19  1  0  0  0  0
 18 24  1  0  0  0  0
 19 20  1  6  0  0  0
 19 22  1  0  0  0  0
 20 21  2  0  0  0  0
 22 23  1  0  0  0  0
 24 23  1  1  0  0  0
M  CHG  1   3  -1
M  END
>  <CHROM.1>
177.57784669,-57.83565604,178.84462480,-124.18316095,-7.86980641,-6.29245475
9.64613656,-2.07347812,-0.10277171,-0.24296685

>  <Name>
ligand

>  <RI>
0

>  <Rbt.Current_Directory>
/home/itssahil/PROJECTS/Mol_Feturizer/New_Systems/rnas/3SLQ

>  <Rbt.Executable>
rbdock ($Id: //depot/dev/client3/rdock/2013.1/src/exe/rbdock.cxx#4 $)

>  <Rbt.Library>
libRbt.so (2013.1, Build901 2013/11/27)

>  <Rbt.Parameter_File>
/export/apps/rDock/src/rDock_2013.1_src/data/scripts/dock_solv.prm

>  <Rbt.Receptor>
prm/pocket_docking_5.prm

>  <SCORE>
-18.8086

>  <SCORE.INTER>
-12.1177

>  <SCORE.INTER.CONST>
1

>  <SCORE.INTER.POLAR>
0

>  <SCORE.INTER.ROT>
4

>  <SCORE.INTER.SOLV>
19.4921

>  <SCORE.INTER.VDW>
-20.8425

>  <SCORE.INTER.norm>
-0.504903

>  <SCORE.INTRA>
-6.69092

>  <SCORE.INTRA.DIHEDRAL>
-12.014

>  <SCORE.INTRA.DIHEDRAL.0>
13.2525

>  <SCORE.INTRA.POLAR>
0

>  <SCORE.INTRA.POLAR.0>
0

>  <SCORE.INTRA.REPUL>
0

>  <SCORE.INTRA.REPUL.0>
0

>  <SCORE.INTRA.SOLV>
0.553497

>  <SCORE.INTRA.SOLV.lig_0>
-70.7221

>  <SCORE.INTRA.VDW>
-0.960665

>  <SCORE.INTRA.VDW.0>
-1.46337

>  <SCORE.INTRA.norm>
-0.278788

>  <SCORE.RESTR>
0

>  <SCORE.RESTR.CAVITY>
0

>  <SCORE.RESTR.norm>
0

>  <SCORE.SYSTEM>
0

>  <SCORE.SYSTEM.CONST>
0

>  <SCORE.SYSTEM.DIHEDRAL>
0

>  <SCORE.SYSTEM.SOLV>
0

>  <SCORE.SYSTEM.norm>
0

>  <SCORE.heavy>
24

>  <SCORE.norm>
-0.783692

>  <RMSD>
3.669

$$$$
ligand
 OpenBabel11021811483D
libRbt.so/2013.1/901 2013/11/27
 24 26  0  0  0  0  0  0  0  0999 V2000
   -7.8846  -10.0901   10.6846 P   0  0  1  0  0  0  0  0  0  0  0  0
   -8.7173  -11.1077    9.9343 O   0  0  0  0  0  0  0  0  0  0  0  0
   -7.9697  -10.1348   12.1921 O   0  5  0  0  0  0  0  0  0  0  0  0
   -6.4547   -9.9672   10.1797 O   0  0  0  0  0  0  0  0  0  0  0  0
   -9.9747   -8.3769   10.7838 C   0  0  0  0  0  0  0  0  0  0  0  0
   -8.6286   -8.6795   10.3782 O   0  0  0  0  0  0  0  0  0  0  0  0
  -10.3761   -6.9926   10.2655 C   0  0  1  0  0  0  0  0  0  0  0  0
   -9.4736   -5.9726   10.7119 O   0  0  0  0  0  0  0  0  0  0  0  0
  -10.4216   -6.8666    8.7523 C   0  0  1  0  0  0  0  0  0  0  0  0
  -11.7411   -7.1854    8.3006 O   0  0  0  0  0  0  0  0  0  0  0  0
  -10.0890   -5.4030    8.5127 C   0  0  1  0  0  0  0  0  0  0  0  0
  -11.2590   -4.5886    8.6748 O   0  0  0  0  0  0  0  0  0  0  0  0
   -9.1697   -5.0444    9.6633 C   0  0  2  0  0  0  0  0  0  0  0  0
   -4.6818   -2.6502    9.2353 N   0  0  0  0  0  0  0  0  0  0  0  0
   -5.9001   -2.1449    9.5352 C   0  0  1  0  0  0  0  0  0  0  0  0
   -6.0238   -0.8200    9.7756 N   0  0  0  0  0  0  0  0  0  0  0  0
   -6.9900   -2.9453    9.5965 N   0  0  0  0  0  0  0  0  0  0  0  0
   -6.8596   -4.2715    9.3540 C   0  0  1  0  0  0  0  0  0  0  0  0
   -5.6281   -4.8142    9.0440 C   0  0  2  0  0  0  0  0  0  0  0  0
   -4.5245   -3.9710    8.9882 C   0  0  0  0  0  0  0  0  0  0  0  0
   -3.3945   -4.4197    8.7117 O   0  0  0  0  0  0  0  0  0  0  0  0
   -5.8111   -6.1365    8.8520 N   0  0  0  0  0  0  0  0  0  0  0  0
   -7.1236   -6.4039    9.0467 C   0  0  0  0  0  0  0  0  0  0  0  0
   -7.7443   -5.2600    9.3521 N   0  0  1  0  0  0  0  0  0  0  0  0
  1  2  1  6  0  0  0
  1  3  1  0  0  0  0
  1  4  2  0  0  0  0
  1  6  1  0  0  0  0
  5  6  1  0  0  0  0
  7  5  1  6  0  0  0
  7  8  1  0  0  0  0
  7  9  1  0  0  0  0
  9 10  1  1  0  0  0
  9 11  1  0  0  0  0
 11 12  1  1  0  0  0
 11 13  1  0  0  0  0
 13  8  1  1  0  0  0
 13 24  1  0  0  0  0
 14 15  1  0  0  0  0
 14 20  1  0  0  0  0
 15 16  1  6  0  0  0
 15 17  1  0  0  0  0
 18 17  1  1  0  0  0
 18 19  1  0  0  0  0
 18 24  1  0  0  0  0
 19 20  1  6  0  0  0
 19 22  1  0  0  0  0
 20 21  2  0  0  0  0
 22 23  1  0  0  0  0
 24 23  1  1  0  0  0
M  CHG  1   3  -1
M  END
>  <CHROM.1>
62.92162214,-56.73931244,-177.00806917,-126.22805044,-7.84514788,-6.33044555
9.68439946,-2.04108546,-0.08153968,-0.21966582

>  <Name>
ligand

>  <RI>
0

>  <Rbt.Current_Directory>
/home/itssahil/PROJECTS/Mol_Feturizer/New_Systems/rnas/3SLQ

>  <Rbt.Executable>
rbdock ($Id: //depot/dev/client3/rdock/2013.1/src/exe/rbdock.cxx#4 $)

>  <Rbt.Library>
libRbt.so (2013.1, Build901 2013/11/27)

>  <Rbt.Parameter_File>
/export/apps/rDock/src/rDock_2013.1_src/data/scripts/dock_solv.prm

>  <Rbt.Receptor>
prm/pocket_docking_5.prm

>  <SCORE>
-19.8704

>  <SCORE.INTER>
-13.0525

>  <SCORE.INTER.CONST>
1

>  <SCORE.INTER.POLAR>
0

>  <SCORE.INTER.ROT>
4

>  <SCORE.INTER.SOLV>
17.7249

>  <SCORE.INTER.VDW>
-20.8766

>  <SCORE.INTER.norm>
-0.543854

>  <SCORE.INTRA>
-6.81791

>  <SCORE.INTRA.DIHEDRAL>
-11.9475

>  <SCORE.INTRA.DIHEDRAL.0>
13.2525

>  <SCORE.INTRA.POLAR>
0

>  <SCORE.INTRA.POLAR.0>
0

>  <SCORE.INTRA.REPUL>
0

>  <SCORE.INTRA.REPUL.0>
0

>  <SCORE.INTRA.SOLV>
0.182272

>  <SCORE.INTRA.SOLV.lig_0>
-70.7221

>  <SCORE.INTRA.VDW>
-0.935273

>  <SCORE.INTRA.VDW.0>
-1.46337

>  <SCORE.INTRA.norm>
-0.28408

>  <SCORE.RESTR>
0

>  <SCORE.RESTR.CAVITY>
0

>  <SCORE.RESTR.norm>
0

>  <SCORE.SYSTEM>
0

>  <SCORE.SYSTEM.CONST>
0

>  <SCORE.SYSTEM.DIHEDRAL>
0

>  <SCORE.SYSTEM.SOLV>
0

>  <SCORE.SYSTEM.norm>
0

>  <SCORE.heavy>
24

>  <SCORE.norm>
-0.827934

>  <RMSD>
3.671

$$$$
ligand
 OpenBabel11021811483D
libRbt.so/2013.1/901 2013/11/27
 24 26  0  0  0  0  0  0  0  0999 V2000
   -7.9980  -10.0627   10.6446 P   0  0  1  0  0  0  0  0  0  0  0  0
   -8.8902  -11.0732    9.9558 O   0  0  0  0  0  0  0  0  0  0  0  0
   -8.0414  -10.0494   12.1545 O   0  5  0  0  0  0  0  0  0  0  0  0
   -6.5795  -10.0146   10.0968 O   0  0  0  0  0  0  0  0  0  0  0  0
  -10.0312   -8.2806   10.7046 C   0  0  0  0  0  0  0  0  0  0  0  0
   -8.6958   -8.6359   10.3062 O   0  0  0  0  0  0  0  0  0  0  0  0
  -10.3777   -6.8848   10.1778 C   0  0  1  0  0  0  0  0  0  0  0  0
   -9.4409   -5.8969   10.6256 O   0  0  0  0  0  0  0  0  0  0  0  0
  -10.4091   -6.7640    8.6638 C   0  0  1  0  0  0  0  0  0  0  0  0
  -11.7366   -7.0358    8.2050 O   0  0  0  0  0  0  0  0  0  0  0  0
  -10.0210   -5.3148    8.4200 C   0  0  1  0  0  0  0  0  0  0  0  0
  -11.1610   -4.4570    8.5711 O   0  0  0  0  0  0  0  0  0  0  0  0
   -9.0962   -4.9853    9.5750 C   0  0  2  0  0  0  0  0  0  0  0  0
   -4.5186   -2.7624    9.1735 N   0  0  0  0  0  0  0  0  0  0  0  0
   -5.7190   -2.2111    9.4642 C   0  0  1  0  0  0  0  0  0  0  0  0
   -5.7945   -0.8820    9.7016 N   0  0  0  0  0  0  0  0  0  0  0  0
   -6.8386   -2.9697    9.5195 N   0  0  0  0  0  0  0  0  0  0  0  0
   -6.7567   -4.3004    9.2801 C   0  0  1  0  0  0  0  0  0  0  0  0
   -5.5444   -4.8896    8.9794 C   0  0  2  0  0  0  0  0  0  0  0  0
   -4.4094   -4.0887    8.9297 C   0  0  0  0  0  0  0  0  0  0  0  0
   -3.2953   -4.5800    8.6617 O   0  0  0  0  0  0  0  0  0  0  0  0
   -5.7757   -6.2045    8.7884 N   0  0  0  0  0  0  0  0  0  0  0  0
   -7.0985   -6.4220    8.9746 C   0  0  0  0  0  0  0  0  0  0  0  0
   -7.6778   -5.2550    9.2739 N   0  0  1  0  0  0  0  0  0  0  0  0
  1  2  1  6  0  0  0
  1  3  1  0  0  0  0
  1  4  2  0  0  0  0
  1  6  1  0  0  0  0
  5  6  1  0  0  0  0
  7  5  1  6  0  0  0
  7  8  1  0  0  0  0
  7  9  1  0  0  0  0
  9 10  1  1  0  0  0
  9 11  1  0  0  0  0
 11 12  1  1  0  0  0
 11 13  1  0  0  0  0
 13  8  1  1  0  0  0
 13 24  1  0  0  0  0
 14 15  1  0  0  0  0
 14 20  1  0  0  0  0
 15 16  1  6  0  0  0
 15 17  1  0  0  0  0
 18 17  1  1  0  0  0
 18 19  1  0  0  0  0
 18 24  1  0  0  0  0
 19 20  1  6  0  0  0
 19 22  1  0  0  0  0
 20 21  2  0  0  0  0
 22 23  1  0  0  0  0
 24 23  1  1  0  0  0
M  CHG  1   3  -1
M  END
>  <CHROM.1>
61.09580186,-56.87315433,-178.09187967,-126.07345213,-7.81813485,-6.31772124
9.61639085,-2.07910508,-0.08149267,-0.22937813

>  <Name>
ligand

>  <RI>
0

>  <Rbt.Current_Directory>
/home/itssahil/PROJECTS/Mol_Feturizer/New_Systems/rnas/3SLQ

>  <Rbt.Executable>
rbdock ($Id: //depot/dev/client3/rdock/2013.1/src/exe/rbdock.cxx#4 $)

>  <Rbt.Library>
libRbt.so (2013.1, Build901 2013/11/27)

>  <Rbt.Parameter_File>
/export/apps/rDock/src/rDock_2013.1_src/data/scripts/dock_solv.prm

>  <Rbt.Receptor>
prm/pocket_docking_5.prm

>  <SCORE>
-19.9342

>  <SCORE.INTER>
-13.0837

>  <SCORE.INTER.CONST>
1

>  <SCORE.INTER.POLAR>
0

>  <SCORE.INTER.ROT>
4

>  <SCORE.INTER.SOLV>
17.8661

>  <SCORE.INTER.VDW>
-20.9445

>  <SCORE.INTER.norm>
-0.545152

>  <SCORE.INTRA>
-6.85054

>  <SCORE.INTRA.DIHEDRAL>
-11.9893

>  <SCORE.INTRA.DIHEDRAL.0>
13.2525

>  <SCORE.INTRA.POLAR>
0

>  <SCORE.INTRA.POLAR.0>
0

>  <SCORE.INTRA.REPUL>
0

>  <SCORE.INTRA.REPUL.0>
0

>  <SCORE.INTRA.SOLV>
0.170988

>  <SCORE.INTRA.SOLV.lig_0>
-70.7221

>  <SCORE.INTRA.VDW>
-0.941365

>  <SCORE.INTRA.VDW.0>
-1.46337

>  <SCORE.INTRA.norm>
-0.285439

>  <SCORE.RESTR>
0

>  <SCORE.RESTR.CAVITY>
0

>  <SCORE.RESTR.norm>
0

>  <SCORE.SYSTEM>
0

>  <SCORE.SYSTEM.CONST>
0

>  <SCORE.SYSTEM.DIHEDRAL>
0

>  <SCORE.SYSTEM.SOLV>
0

>  <SCORE.SYSTEM.norm>
0

>  <SCORE.heavy>
24

>  <SCORE.norm>
-0.830591

>  <RMSD>
3.714

$$$$
ligand
 OpenBabel11021811483D
libRbt.so/2013.1/901 2013/11/27
 24 26  0  0  0  0  0  0  0  0999 V2000
   -8.3581  -10.2576   10.6484 P   0  0  1  0  0  0  0  0  0  0  0  0
   -7.8496  -10.7950    9.3278 O   0  0  0  0  0  0  0  0  0  0  0  0
   -9.5836  -10.9314   11.2192 O   0  5  0  0  0  0  0  0  0  0  0  0
   -7.2691  -10.0393   11.6883 O   0  0  0  0  0  0  0  0  0  0  0  0
   -9.9547   -8.1114   11.0465 C   0  0  0  0  0  0  0  0  0  0  0  0
   -8.9613   -8.7990   10.2664 O   0  0  0  0  0  0  0  0  0  0  0  0
  -10.3095   -6.7788   10.3802 C   0  0  1  0  0  0  0  0  0  0  0  0
   -9.3782   -5.7450   10.7235 O   0  0  0  0  0  0  0  0  0  0  0  0
  -10.3424   -6.8137    8.8618 C   0  0  1  0  0  0  0  0  0  0  0  0
  -11.6686   -7.1385    8.4347 O   0  0  0  0  0  0  0  0  0  0  0  0
   -9.9628   -5.3948    8.4706 C   0  0  1  0  0  0  0  0  0  0  0  0
  -11.1076   -4.5326    8.5345 O   0  0  0  0  0  0  0  0  0  0  0  0
   -9.0393   -4.9437    9.5848 C   0  0  2  0  0  0  0  0  0  0  0  0
   -4.4392   -2.7715    9.1641 N   0  0  0  0  0  0  0  0  0  0  0  0
   -5.6386   -2.2011    9.4201 C   0  0  1  0  0  0  0  0  0  0  0  0
   -5.7062   -0.8640    9.6099 N   0  0  0  0  0  0  0  0  0  0  0  0
   -6.7649   -2.9487    9.4876 N   0  0  0  0  0  0  0  0  0  0  0  0
   -6.6908   -4.2876    9.2959 C   0  0  1  0  0  0  0  0  0  0  0  0
   -5.4797   -4.8962    9.0313 C   0  0  2  0  0  0  0  0  0  0  0  0
   -4.3378   -4.1063    8.9681 C   0  0  0  0  0  0  0  0  0  0  0  0
   -3.2244   -4.6153    8.7315 O   0  0  0  0  0  0  0  0  0  0  0  0
   -5.7193   -6.2152    8.8835 N   0  0  0  0  0  0  0  0  0  0  0  0
   -7.0461   -6.4158    9.0604 C   0  0  0  0  0  0  0  0  0  0  0  0
   -7.6196   -5.2346    9.3114 N   0  0  1  0  0  0  0  0  0  0  0  0
  1  2  1  6  0  0  0
  1  3  1  0  0  0  0
  1  4  2  0  0  0  0
  1  6  1  0  0  0  0
  5  6  1  0  0  0  0
  7  5  1  6  0  0  0
  7  8  1  0  0  0  0
  7  9  1  0  0  0  0
  9 10  1  1  0  0  0
  9 11  1  0  0  0  0
 11 12  1  1  0  0  0
 11 13  1  0  0  0  0
 13  8  1  1  0  0  0
 13 24  1  0  0  0  0
 14 15  1  0  0  0  0
 14 20  1  0  0  0  0
 15 16  1  6  0  0  0
 15 17  1  0  0  0  0
 18 17  1  1  0  0  0
 18 19  1  0  0  0  0
 18 24  1  0  0  0  0
 19 20  1  6  0  0  0
 19 22  1  0  0  0  0
 20 21  2  0  0  0  0
 22 23  1  0  0  0  0
 24 23  1  1  0  0  0
M  CHG  1   3  -1
M  END
>  <CHROM.1>
157.05212112,-83.36711691,-178.90724302,-122.05586530,-7.86612750,-6.36410476
9.66782547,-2.09881706,-0.05403938,-0.22343839

>  <Name>
ligand

>  <RI>
0

>  <Rbt.Current_Directory>
/home/itssahil/PROJECTS/Mol_Feturizer/New_Systems/rnas/3SLQ

>  <Rbt.Executable>
rbdock ($Id: //depot/dev/client3/rdock/2013.1/src/exe/rbdock.cxx#4 $)

>  <Rbt.Library>
libRbt.so (2013.1, Build901 2013/11/27)

>  <Rbt.Parameter_File>
/export/apps/rDock/src/rDock_2013.1_src/data/scripts/dock_solv.prm

>  <Rbt.Receptor>
prm/pocket_docking_4.prm

>  <SCORE>
-17.9767

>  <SCORE.INTER>
-13.2201

>  <SCORE.INTER.CONST>
1

>  <SCORE.INTER.POLAR>
0

>  <SCORE.INTER.ROT>
4

>  <SCORE.INTER.SOLV>
20.2751

>  <SCORE.INTER.VDW>
-21.8384

>  <SCORE.INTER.norm>
-0.550837

>  <SCORE.INTRA>
-4.75722

>  <SCORE.INTRA.DIHEDRAL>
-9.53663

>  <SCORE.INTRA.DIHEDRAL.0>
13.2525

>  <SCORE.INTRA.POLAR>
0

>  <SCORE.INTRA.POLAR.0>
0

>  <SCORE.INTRA.REPUL>
0

>  <SCORE.INTRA.REPUL.0>
0

>  <SCORE.INTRA.SOLV>
0.585941

>  <SCORE.INTRA.SOLV.lig_0>
-70.7221

>  <SCORE.INTRA.VDW>
-0.281872

>  <SCORE.INTRA.VDW.0>
-1.46337

>  <SCORE.INTRA.norm>
-0.198217

>  <SCORE.RESTR>
0.000623341

>  <SCORE.RESTR.CAVITY>
0.000623341

>  <SCORE.RESTR.norm>
2.59725e-05

>  <SCORE.SYSTEM>
0

>  <SCORE.SYSTEM.CONST>
0

>  <SCORE.SYSTEM.DIHEDRAL>
0

>  <SCORE.SYSTEM.SOLV>
0

>  <SCORE.SYSTEM.norm>
0

>  <SCORE.heavy>
24

>  <SCORE.norm>
-0.749028

>  <RMSD>
3.730

$$$$
ligand
 OpenBabel11021811483D
libRbt.so/2013.1/901 2013/11/27
 24 26  0  0  0  0  0  0  0  0999 V2000
   -8.5211  -10.2372   10.3042 P   0  0  1  0  0  0  0  0  0  0  0  0
   -8.2320  -10.8005    8.9292 O   0  0  0  0  0  0  0  0  0  0  0  0
   -9.6433  -10.8923   11.0746 O   0  5  0  0  0  0  0  0  0  0  0  0
   -7.2795  -10.0097   11.1535 O   0  0  0  0  0  0  0  0  0  0  0  0
  -10.3620   -8.2833   10.6307 C   0  0  0  0  0  0  0  0  0  0  0  0
   -9.1706   -8.7809    9.9973 O   0  0  0  0  0  0  0  0  0  0  0  0
  -10.6619   -6.8654   10.1353 C   0  0  1  0  0  0  0  0  0  0  0  0
   -9.6976   -5.9179   10.6112 O   0  0  0  0  0  0  0  0  0  0  0  0
  -10.6804   -6.7081    8.6244 C   0  0  1  0  0  0  0  0  0  0  0  0
  -12.0129   -6.9276    8.1523 O   0  0  0  0  0  0  0  0  0  0  0  0
  -10.2460   -5.2664    8.4170 C   0  0  1  0  0  0  0  0  0  0  0  0
  -11.3597   -4.3773    8.5823 O   0  0  0  0  0  0  0  0  0  0  0  0
   -9.3184   -4.9931    9.5843 C   0  0  2  0  0  0  0  0  0  0  0  0
   -4.6819   -2.8929    9.1997 N   0  0  0  0  0  0  0  0  0  0  0  0
   -5.8675   -2.3106    9.4907 C   0  0  1  0  0  0  0  0  0  0  0  0
   -5.9074   -0.9810    9.7335 N   0  0  0  0  0  0  0  0  0  0  0  0
   -7.0072   -3.0390    9.5409 N   0  0  0  0  0  0  0  0  0  0  0  0
   -6.9608   -4.3705    9.2962 C   0  0  1  0  0  0  0  0  0  0  0  0
   -5.7643   -4.9909    8.9950 C   0  0  2  0  0  0  0  0  0  0  0  0
   -4.6081   -4.2206    8.9506 C   0  0  0  0  0  0  0  0  0  0  0  0
   -3.5071   -4.7408    8.6823 O   0  0  0  0  0  0  0  0  0  0  0  0
   -6.0306   -6.2982    8.7982 N   0  0  0  0  0  0  0  0  0  0  0  0
   -7.3592   -6.4807    8.9814 C   0  0  0  0  0  0  0  0  0  0  0  0
   -7.9073   -5.2997    9.2845 N   0  0  1  0  0  0  0  0  0  0  0  0
  1  2  1  6  0  0  0
  1  3  1  0  0  0  0
  1  4  2  0  0  0  0
  1  6  1  0  0  0  0
  5  6  1  0  0  0  0
  7  5  1  6  0  0  0
  7  8  1  0  0  0  0
  7  9  1  0  0  0  0
  9 10  1  1  0  0  0
  9 11  1  0  0  0  0
 11 12  1  1  0  0  0
 11 13  1  0  0  0  0
 13  8  1  1  0  0  0
 13 24  1  0  0  0  0
 14 15  1  0  0  0  0
 14 20  1  0  0  0  0
 15 16  1  6  0  0  0
 15 17  1  0  0  0  0
 18 17  1  1  0  0  0
 18 19  1  0  0  0  0
 18 24  1  0  0  0  0
 19 20  1  6  0  0  0
 19 22  1  0  0  0  0
 20 21  2  0  0  0  0
 22 23  1  0  0  0  0
 24 23  1  1  0  0  0
M  CHG  1   3  -1
M  END
>  <CHROM.1>
133.43546710,-69.24803897,178.35744384,-127.23451491,-8.12306761,-6.39338075
9.52505845,-2.11036003,-0.05793796,-0.17365533

>  <Name>
ligand

>  <RI>
0

>  <Rbt.Current_Directory>
/home/itssahil/PROJECTS/Mol_Feturizer/New_Systems/rnas/3SLQ

>  <Rbt.Executable>
rbdock ($Id: //depot/dev/client3/rdock/2013.1/src/exe/rbdock.cxx#4 $)

>  <Rbt.Library>
libRbt.so (2013.1, Build901 2013/11/27)

>  <Rbt.Parameter_File>
/export/apps/rDock/src/rDock_2013.1_src/data/scripts/dock_solv.prm

>  <Rbt.Receptor>
prm/pocket_docking_5.prm

>  <SCORE>
-18.7304

>  <SCORE.INTER>
-13.9658

>  <SCORE.INTER.CONST>
1

>  <SCORE.INTER.POLAR>
0

>  <SCORE.INTER.ROT>
4

>  <SCORE.INTER.SOLV>
21.2185

>  <SCORE.INTER.VDW>
-22.65

>  <SCORE.INTER.norm>
-0.581907

>  <SCORE.INTRA>
-4.76459

>  <SCORE.INTRA.DIHEDRAL>
-9.61449

>  <SCORE.INTRA.DIHEDRAL.0>
13.2525

>  <SCORE.INTRA.POLAR>
0

>  <SCORE.INTRA.POLAR.0>
0

>  <SCORE.INTRA.REPUL>
0

>  <SCORE.INTRA.REPUL.0>
0

>  <SCORE.INTRA.SOLV>
0.483576

>  <SCORE.INTRA.SOLV.lig_0>
-70.7221

>  <SCORE.INTRA.VDW>
-0.199132

>  <SCORE.INTRA.VDW.0>
-1.46337

>  <SCORE.INTRA.norm>
-0.198524

>  <SCORE.RESTR>
0

>  <SCORE.RESTR.CAVITY>
0

>  <SCORE.RESTR.norm>
0

>  <SCORE.SYSTEM>
0

>  <SCORE.SYSTEM.CONST>
0

>  <SCORE.SYSTEM.DIHEDRAL>
0

>  <SCORE.SYSTEM.SOLV>
0

>  <SCORE.SYSTEM.norm>
0

>  <SCORE.heavy>
24

>  <SCORE.norm>
-0.780431

>  <RMSD>
4.004

$$$$
ligand
 OpenBabel11021811483D
libRbt.so/2013.1/901 2013/11/27
 24 26  0  0  0  0  0  0  0  0999 V2000
   -9.5809   -9.2816    7.4459 P   0  0  1  0  0  0  0  0  0  0  0  0
   -8.7210  -10.4295    7.9304 O   0  0  0  0  0  0  0  0  0  0  0  0
  -10.3932   -9.5330    6.1974 O   0  5  0  0  0  0  0  0  0  0  0  0
  -10.3863   -8.6048    8.5450 O   0  0  0  0  0  0  0  0  0  0  0  0
   -7.3748   -7.7315    7.6556 C   0  0  0  0  0  0  0  0  0  0  0  0
   -8.5046   -8.1965    6.8969 O   0  0  0  0  0  0  0  0  0  0  0  0
   -7.8553   -6.8992    8.8481 C   0  0  1  0  0  0  0  0  0  0  0  0
   -6.7869   -6.5981    9.7547 O   0  0  0  0  0  0  0  0  0  0  0  0
   -8.4738   -5.5603    8.4838 C   0  0  1  0  0  0  0  0  0  0  0  0
   -9.8829   -5.7338    8.3074 O   0  0  0  0  0  0  0  0  0  0  0  0
   -8.1663   -4.6919    9.6927 C   0  0  1  0  0  0  0  0  0  0  0  0
   -9.1277   -4.9198   10.7329 O   0  0  0  0  0  0  0  0  0  0  0  0
   -6.8527   -5.2417   10.2124 C   0  0  2  0  0  0  0  0  0  0  0  0
   -4.7425   -0.6651    9.4014 N   0  0  0  0  0  0  0  0  0  0  0  0
   -5.9212   -0.9761    9.9873 C   0  0  1  0  0  0  0  0  0  0  0  0
   -6.7071    0.0188   10.4574 N   0  0  0  0  0  0  0  0  0  0  0  0
   -6.3207   -2.2638   10.1074 N   0  0  0  0  0  0  0  0  0  0  0  0
   -5.5293   -3.2560    9.6340 C   0  0  1  0  0  0  0  0  0  0  0  0
   -4.3215   -2.9672    9.0298 C   0  0  2  0  0  0  0  0  0  0  0  0
   -3.9339   -1.6369    8.9196 C   0  0  0  0  0  0  0  0  0  0  0  0
   -2.8514   -1.3322    8.3810 O   0  0  0  0  0  0  0  0  0  0  0  0
   -3.7687   -4.1407    8.6608 N   0  0  0  0  0  0  0  0  0  0  0  0
   -4.6126   -5.1302    9.0358 C   0  0  0  0  0  0  0  0  0  0  0  0
   -5.6753   -4.5744    9.6263 N   0  0  1  0  0  0  0  0  0  0  0  0
  1  2  1  1  0  0  0
  1  3  1  0  0  0  0
  1  4  2  0  0  0  0
  1  6  1  0  0  0  0
  5  6  1  0  0  0  0
  7  5  1  6  0  0  0
  7  8  1  0  0  0  0
  7  9  1  0  0  0  0
  9 10  1  1  0  0  0
  9 11  1  0  0  0  0
 11 12  1  1  0  0  0
 11 13  1  0  0  0  0
 13  8  1  6  0  0  0
 13 24  1  0  0  0  0
 14 15  1  0  0  0  0
 14 20  1  0  0  0  0
 15 16  1  6  0  0  0
 15 17  1  0  0  0  0
 18 17  1  1  0  0  0
 18 19  1  0  0  0  0
 18 24  1  0  0  0  0
 19 20  1  6  0  0  0
 19 22  1  0  0  0  0
 20 21  2  0  0  0  0
 22 23  1  0  0  0  0
 24 23  1  1  0  0  0
M  CHG  1   3  -1
M  END
>  <CHROM.1>
-51.36955547,170.43820469,-67.55131752,167.70389443,-7.17429882,-5.35979914
8.80265179,-2.15256134,0.25150145,0.41661100

>  <Name>
ligand

>  <RI>
0

>  <Rbt.Current_Directory>
/home/itssahil/PROJECTS/Mol_Feturizer/New_Systems/rnas/3SLQ

>  <Rbt.Executable>
rbdock ($Id: //depot/dev/client3/rdock/2013.1/src/exe/rbdock.cxx#4 $)

>  <Rbt.Library>
libRbt.so (2013.1, Build901 2013/11/27)

>  <Rbt.Parameter_File>
/export/apps/rDock/src/rDock_2013.1_src/data/scripts/dock_solv.prm

>  <Rbt.Receptor>
prm/pocket_docking_6.prm

>  <SCORE>
-22.5372

>  <SCORE.INTER>
-17.6748

>  <SCORE.INTER.CONST>
1

>  <SCORE.INTER.POLAR>
0

>  <SCORE.INTER.ROT>
4

>  <SCORE.INTER.SOLV>
25.4195

>  <SCORE.INTER.VDW>
-26.523

>  <SCORE.INTER.norm>
-0.736448

>  <SCORE.INTRA>
-4.86244

>  <SCORE.INTRA.DIHEDRAL>
-11.3384

>  <SCORE.INTRA.DIHEDRAL.0>
13.2525

>  <SCORE.INTRA.POLAR>
0

>  <SCORE.INTRA.POLAR.0>
0

>  <SCORE.INTRA.REPUL>
0

>  <SCORE.INTRA.REPUL.0>
0

>  <SCORE.INTRA.SOLV>
3.06767

>  <SCORE.INTRA.SOLV.lig_0>
-70.7221

>  <SCORE.INTRA.VDW>
-0.727086

>  <SCORE.INTRA.VDW.0>
-1.46337

>  <SCORE.INTRA.norm>
-0.202602

>  <SCORE.RESTR>
0

>  <SCORE.RESTR.CAVITY>
0

>  <SCORE.RESTR.norm>
0

>  <SCORE.SYSTEM>
0

>  <SCORE.SYSTEM.CONST>
0

>  <SCORE.SYSTEM.DIHEDRAL>
0

>  <SCORE.SYSTEM.SOLV>
0

>  <SCORE.SYSTEM.norm>
0

>  <SCORE.heavy>
24

>  <SCORE.norm>
-0.93905

>  <RMSD>
4.243

$$$$
ligand
 OpenBabel11021811483D
libRbt.so/2013.1/901 2013/11/27
 24 26  0  0  0  0  0  0  0  0999 V2000
   -4.2894   -9.6706   15.7663 P   0  0  1  0  0  0  0  0  0  0  0  0
   -3.9763   -8.9779   17.0754 O   0  0  0  0  0  0  0  0  0  0  0  0
   -3.4714   -9.2446   14.5700 O   0  5  0  0  0  0  0  0  0  0  0  0
   -4.4194  -11.1821   15.8815 O   0  0  0  0  0  0  0  0  0  0  0  0
   -6.0523   -7.6880   15.2419 C   0  0  0  0  0  0  0  0  0  0  0  0
   -5.7503   -9.0891   15.3604 O   0  0  0  0  0  0  0  0  0  0  0  0
   -7.5330   -7.5018   14.8975 C   0  0  1  0  0  0  0  0  0  0  0  0
   -7.8760   -6.1187   14.7437 O   0  0  0  0  0  0  0  0  0  0  0  0
   -7.9796   -8.1804   13.6139 C   0  0  1  0  0  0  0  0  0  0  0  0
   -8.4352   -9.5010   13.9226 O   0  0  0  0  0  0  0  0  0  0  0  0
   -9.1177   -7.2975   13.1286 C   0  0  1  0  0  0  0  0  0  0  0  0
  -10.3385   -7.6359   13.8020 O   0  0  0  0  0  0  0  0  0  0  0  0
   -8.7412   -5.9138   13.6199 C   0  0  2  0  0  0  0  0  0  0  0  0
   -8.5086   -4.5653    8.7022 N   0  0  0  0  0  0  0  0  0  0  0  0
   -9.4161   -5.3405    9.3386 C   0  0  1  0  0  0  0  0  0  0  0  0
  -10.4445   -5.8653    8.6348 N   0  0  0  0  0  0  0  0  0  0  0  0
   -9.3069   -5.5955   10.6634 N   0  0  0  0  0  0  0  0  0  0  0  0
   -8.2741   -5.0673   11.3628 C   0  0  1  0  0  0  0  0  0  0  0  0
   -7.3321   -4.2737   10.7383 C   0  0  2  0  0  0  0  0  0  0  0  0
   -7.4673   -4.0263    9.3772 C   0  0  0  0  0  0  0  0  0  0  0  0
   -6.6391   -3.3154    8.7745 O   0  0  0  0  0  0  0  0  0  0  0  0
   -6.4358   -3.9046   11.6760 N   0  0  0  0  0  0  0  0  0  0  0  0
   -6.8207   -4.4517   12.8526 C   0  0  0  0  0  0  0  0  0  0  0  0
   -7.9394   -5.1529   12.6436 N   0  0  1  0  0  0  0  0  0  0  0  0
  1  2  1  1  0  0  0
  1  3  1  0  0  0  0
  1  4  2  0  0  0  0
  1  6  1  0  0  0  0
  5  6  1  0  0  0  0
  7  5  1  6  0  0  0
  7  8  1  0  0  0  0
  7  9  1  0  0  0  0
  9 10  1  1  0  0  0
  9 11  1  0  0  0  0
 11 12  1  1  0  0  0
 11 13  1  0  0  0  0
 13  8  1  1  0  0  0
 13 24  1  0  0  0  0
 14 15  1  0  0  0  0
 14 20  1  0  0  0  0
 15 16  1  6  0  0  0
 15 17  1  0  0  0  0
 18 17  1  1  0  0  0
 18 19  1  0  0  0  0
 18 24  1  0  0  0  0
 19 20  1  6  0  0  0
 19 22  1  0  0  0  0
 20 21  2  0  0  0  0
 22 23  1  0  0  0  0
 24 23  1  1  0  0  0
M  CHG  1   3  -1
M  END
>  <CHROM.1>
54.81558623,-178.88175694,-177.83928496,162.54365353,-7.14049361,-6.90969415
13.02239840,-1.12389879,-0.16458354,-0.79873105

>  <Name>
ligand

>  <RI>
0

>  <Rbt.Current_Directory>
/home/itssahil/PROJECTS/Mol_Feturizer/New_Systems/rnas/3SLQ

>  <Rbt.Executable>
rbdock ($Id: //depot/dev/client3/rdock/2013.1/src/exe/rbdock.cxx#4 $)

>  <Rbt.Library>
libRbt.so (2013.1, Build901 2013/11/27)

>  <Rbt.Parameter_File>
/export/apps/rDock/src/rDock_2013.1_src/data/scripts/dock_solv.prm

>  <Rbt.Receptor>
prm/pocket_docking_4.prm

>  <SCORE>
-13.886

>  <SCORE.INTER>
-7.9214

>  <SCORE.INTER.CONST>
1

>  <SCORE.INTER.POLAR>
0

>  <SCORE.INTER.ROT>
4

>  <SCORE.INTER.SOLV>
8.53735

>  <SCORE.INTER.VDW>
-14.3934

>  <SCORE.INTER.norm>
-0.330058

>  <SCORE.INTRA>
-5.9646

>  <SCORE.INTRA.DIHEDRAL>
-11.9974

>  <SCORE.INTRA.DIHEDRAL.0>
13.2525

>  <SCORE.INTRA.POLAR>
0

>  <SCORE.INTRA.POLAR.0>
0

>  <SCORE.INTRA.REPUL>
0

>  <SCORE.INTRA.REPUL.0>
0

>  <SCORE.INTRA.SOLV>
0.0642972

>  <SCORE.INTRA.SOLV.lig_0>
-70.7221

>  <SCORE.INTRA.VDW>
0.00193375

>  <SCORE.INTRA.VDW.0>
-1.46337

>  <SCORE.INTRA.norm>
-0.248525

>  <SCORE.RESTR>
0

>  <SCORE.RESTR.CAVITY>
0

>  <SCORE.RESTR.norm>
0

>  <SCORE.SYSTEM>
0

>  <SCORE.SYSTEM.CONST>
0

>  <SCORE.SYSTEM.DIHEDRAL>
0

>  <SCORE.SYSTEM.SOLV>
0

>  <SCORE.SYSTEM.norm>
0

>  <SCORE.heavy>
24

>  <SCORE.norm>
-0.578583

>  <RMSD>
4.275

$$$$
ligand
 OpenBabel11021811483D
libRbt.so/2013.1/901 2013/11/27
 24 26  0  0  0  0  0  0  0  0999 V2000
   -4.7109   -7.6648   13.6240 P   0  0  1  0  0  0  0  0  0  0  0  0
   -3.3598   -6.9821   13.6343 O   0  0  0  0  0  0  0  0  0  0  0  0
   -5.6440   -7.2875   12.4977 O   0  5  0  0  0  0  0  0  0  0  0  0
   -4.6470   -9.1670   13.8564 O   0  0  0  0  0  0  0  0  0  0  0  0
   -6.3949   -7.7361   15.7388 C   0  0  0  0  0  0  0  0  0  0  0  0
   -5.4845   -7.0115   14.8936 O   0  0  0  0  0  0  0  0  0  0  0  0
   -7.8005   -7.7128   15.1308 C   0  0  1  0  0  0  0  0  0  0  0  0
   -8.2570   -6.3755   14.8912 O   0  0  0  0  0  0  0  0  0  0  0  0
   -7.9325   -8.4358   13.8013 C   0  0  1  0  0  0  0  0  0  0  0  0
   -8.2915   -9.7983   14.0488 O   0  0  0  0  0  0  0  0  0  0  0  0
   -9.0526   -7.6825   13.1027 C   0  0  1  0  0  0  0  0  0  0  0  0
  -10.3313   -8.1526   13.5525 O   0  0  0  0  0  0  0  0  0  0  0  0
   -8.9221   -6.2660   13.6266 C   0  0  2  0  0  0  0  0  0  0  0  0
   -8.2639   -4.4971    8.8838 N   0  0  0  0  0  0  0  0  0  0  0  0
   -9.2167   -5.3266    9.3670 C   0  0  1  0  0  0  0  0  0  0  0  0
  -10.1726   -5.7912    8.5310 N   0  0  0  0  0  0  0  0  0  0  0  0
   -9.2241   -5.6949   10.6695 N   0  0  0  0  0  0  0  0  0  0  0  0
   -8.2635   -5.2266   11.5018 C   0  0  1  0  0  0  0  0  0  0  0  0
   -7.2775   -4.3797   11.0351 C   0  0  2  0  0  0  0  0  0  0  0  0
   -7.2928   -4.0159    9.6937 C   0  0  0  0  0  0  0  0  0  0  0  0
   -6.4212   -3.2536    9.2312 O   0  0  0  0  0  0  0  0  0  0  0  0
   -6.4725   -4.0907   12.0780 N   0  0  0  0  0  0  0  0  0  0  0  0
   -6.9557   -4.7384   13.1638 C   0  0  0  0  0  0  0  0  0  0  0  0
   -8.0440   -5.4217   12.7954 N   0  0  1  0  0  0  0  0  0  0  0  0
  1  2  1  6  0  0  0
  1  3  1  0  0  0  0
  1  4  2  0  0  0  0
  1  6  1  0  0  0  0
  5  6  1  0  0  0  0
  7  5  1  6  0  0  0
  7  8  1  0  0  0  0
  7  9  1  0  0  0  0
  9 10  1  1  0  0  0
  9 11  1  0  0  0  0
 11 12  1  1  0  0  0
 11 13  1  0  0  0  0
 13  8  1  1  0  0  0
 13 24  1  0  0  0  0
 14 15  1  0  0  0  0
 14 20  1  0  0  0  0
 15 16  1  6  0  0  0
 15 17  1  0  0  0  0
 18 17  1  1  0  0  0
 18 19  1  0  0  0  0
 18 24  1  0  0  0  0
 19 20  1  6  0  0  0
 19 22  1  0  0  0  0
 20 21  2  0  0  0  0
 22 23  1  0  0  0  0
 24 23  1  1  0  0  0
M  CHG  1   3  -1
M  END
>  <CHROM.1>
-144.40400364,-55.55952531,-85.81621212,172.14685661,-7.24367154,-6.49787714
12.59302495,-1.18807545,-0.18562912,-0.86467806

>  <Name>
ligand

>  <RI>
0

>  <Rbt.Current_Directory>
/home/itssahil/PROJECTS/Mol_Feturizer/New_Systems/rnas/3SLQ

>  <Rbt.Executable>
rbdock ($Id: //depot/dev/client3/rdock/2013.1/src/exe/rbdock.cxx#4 $)

>  <Rbt.Library>
libRbt.so (2013.1, Build901 2013/11/27)

>  <Rbt.Parameter_File>
/export/apps/rDock/src/rDock_2013.1_src/data/scripts/dock_solv.prm

>  <Rbt.Receptor>
prm/pocket_docking_5.prm

>  <SCORE>
-13.2186

>  <SCORE.INTER>
-10.8899

>  <SCORE.INTER.CONST>
1

>  <SCORE.INTER.POLAR>
0

>  <SCORE.INTER.ROT>
4

>  <SCORE.INTER.SOLV>
10.1148

>  <SCORE.INTER.VDW>
-16.8982

>  <SCORE.INTER.norm>
-0.453745

>  <SCORE.INTRA>
-2.32873

>  <SCORE.INTRA.DIHEDRAL>
-7.62201

>  <SCORE.INTRA.DIHEDRAL.0>
13.2525

>  <SCORE.INTRA.POLAR>
0

>  <SCORE.INTRA.POLAR.0>
0

>  <SCORE.INTRA.REPUL>
0

>  <SCORE.INTRA.REPUL.0>
0

>  <SCORE.INTRA.SOLV>
7.33101

>  <SCORE.INTRA.SOLV.lig_0>
-70.7221

>  <SCORE.INTRA.VDW>
-2.18323

>  <SCORE.INTRA.VDW.0>
-1.46337

>  <SCORE.INTRA.norm>
-0.0970305

>  <SCORE.RESTR>
0

>  <SCORE.RESTR.CAVITY>
0

>  <SCORE.RESTR.norm>
0

>  <SCORE.SYSTEM>
0

>  <SCORE.SYSTEM.CONST>
0

>  <SCORE.SYSTEM.DIHEDRAL>
0

>  <SCORE.SYSTEM.SOLV>
0

>  <SCORE.SYSTEM.norm>
0

>  <SCORE.heavy>
24

>  <SCORE.norm>
-0.550776

>  <RMSD>
4.283

$$$$
ligand
 OpenBabel11021811483D
libRbt.so/2013.1/901 2013/11/27
 24 26  0  0  0  0  0  0  0  0999 V2000
   -4.7100   -8.0360   14.2216 P   0  0  1  0  0  0  0  0  0  0  0  0
   -3.9712   -6.9284   13.5013 O   0  0  0  0  0  0  0  0  0  0  0  0
   -5.5837   -8.9247   13.3679 O   0  5  0  0  0  0  0  0  0  0  0  0
   -3.8478   -8.8221   15.1979 O   0  0  0  0  0  0  0  0  0  0  0  0
   -6.8234   -7.9043   15.9038 C   0  0  0  0  0  0  0  0  0  0  0  0
   -5.8327   -7.2497   15.0926 O   0  0  0  0  0  0  0  0  0  0  0  0
   -8.1994   -7.7867   15.2415 C   0  0  1  0  0  0  0  0  0  0  0  0
   -8.5446   -6.4235   14.9649 O   0  0  0  0  0  0  0  0  0  0  0  0
   -8.3354   -8.5209   13.9186 C   0  0  1  0  0  0  0  0  0  0  0  0
   -8.8050   -9.8483   14.1717 O   0  0  0  0  0  0  0  0  0  0  0  0
   -9.3686   -7.6983   13.1662 C   0  0  1  0  0  0  0  0  0  0  0  0
  -10.6950   -8.0637   13.5728 O   0  0  0  0  0  0  0  0  0  0  0  0
   -9.1516   -6.2867   13.6741 C   0  0  2  0  0  0  0  0  0  0  0  0
   -8.1483   -4.7139    8.9227 N   0  0  0  0  0  0  0  0  0  0  0  0
   -9.1744   -5.4674    9.3797 C   0  0  1  0  0  0  0  0  0  0  0  0
  -10.1149   -5.8988    8.5092 N   0  0  0  0  0  0  0  0  0  0  0  0
   -9.2696   -5.7927   10.6901 N   0  0  0  0  0  0  0  0  0  0  0  0
   -8.3240   -5.3580   11.5570 C   0  0  1  0  0  0  0  0  0  0  0  0
   -7.2646   -4.5887   11.1177 C   0  0  2  0  0  0  0  0  0  0  0  0
   -7.1903   -4.2677    9.7673 C   0  0  0  0  0  0  0  0  0  0  0  0
   -6.2505   -3.5755    9.3287 O   0  0  0  0  0  0  0  0  0  0  0  0
   -6.4959   -4.3166   12.1919 N   0  0  0  0  0  0  0  0  0  0  0  0
   -7.0722   -4.8983   13.2696 C   0  0  0  0  0  0  0  0  0  0  0  0
   -8.1817   -5.5249   12.8654 N   0  0  1  0  0  0  0  0  0  0  0  0
  1  2  1  6  0  0  0
  1  3  1  0  0  0  0
  1  4  2  0  0  0  0
  1  6  1  0  0  0  0
  5  6  1  0  0  0  0
  7  5  1  6  0  0  0
  7  8  1  0  0  0  0
  7  9  1  0  0  0  0
  9 10  1  1  0  0  0
  9 11  1  0  0  0  0
 11 12  1  1  0  0  0
 11 13  1  0  0  0  0
 13  8  1  1  0  0  0
 13 24  1  0  0  0  0
 14 15  1  0  0  0  0
 14 20  1  0  0  0  0
 15 16  1  6  0  0  0
 15 17  1  0  0  0  0
 18 17  1  1  0  0  0
 18 19  1  0  0  0  0
 18 24  1  0  0  0  0
 19 20  1  6  0  0  0
 19 22  1  0  0  0  0
 20 21  2  0  0  0  0
 22 23  1  0  0  0  0
 24 23  1  1  0  0  0
M  CHG  1   3  -1
M  END
>  <CHROM.1>
177.08151502,-54.82093486,-107.64322832,170.83416525,-7.36116659,-6.68532757
12.80073973,-1.18385931,-0.16514780,-0.90215748

>  <Name>
ligand

>  <RI>
0

>  <Rbt.Current_Directory>
/home/itssahil/PROJECTS/Mol_Feturizer/New_Systems/rnas/3SLQ

>  <Rbt.Executable>
rbdock ($Id: //depot/dev/client3/rdock/2013.1/src/exe/rbdock.cxx#4 $)

>  <Rbt.Library>
libRbt.so (2013.1, Build901 2013/11/27)

>  <Rbt.Parameter_File>
/export/apps/rDock/src/rDock_2013.1_src/data/scripts/dock_solv.prm

>  <Rbt.Receptor>
prm/pocket_docking_4.prm

>  <SCORE>
-11.785

>  <SCORE.INTER>
-9.4534

>  <SCORE.INTER.CONST>
1

>  <SCORE.INTER.POLAR>
0

>  <SCORE.INTER.ROT>
4

>  <SCORE.INTER.SOLV>
8.80726

>  <SCORE.INTER.VDW>
-15.5047

>  <SCORE.INTER.norm>
-0.393892

>  <SCORE.INTRA>
-2.33164

>  <SCORE.INTRA.DIHEDRAL>
-5.47937

>  <SCORE.INTRA.DIHEDRAL.0>
13.2525

>  <SCORE.INTRA.POLAR>
0

>  <SCORE.INTRA.POLAR.0>
0

>  <SCORE.INTRA.REPUL>
0

>  <SCORE.INTRA.REPUL.0>
0

>  <SCORE.INTRA.SOLV>
3.51593

>  <SCORE.INTRA.SOLV.lig_0>
-70.7221

>  <SCORE.INTRA.VDW>
-1.34992

>  <SCORE.INTRA.VDW.0>
-1.46337

>  <SCORE.INTRA.norm>
-0.0971518

>  <SCORE.RESTR>
0

>  <SCORE.RESTR.CAVITY>
0

>  <SCORE.RESTR.norm>
0

>  <SCORE.SYSTEM>
0

>  <SCORE.SYSTEM.CONST>
0

>  <SCORE.SYSTEM.DIHEDRAL>
0

>  <SCORE.SYSTEM.SOLV>
0

>  <SCORE.SYSTEM.norm>
0

>  <SCORE.heavy>
24

>  <SCORE.norm>
-0.491044

>  <RMSD>
4.369

$$$$
ligand
 OpenBabel11021811483D
libRbt.so/2013.1/901 2013/11/27
 24 26  0  0  0  0  0  0  0  0999 V2000
   -8.9207   -8.0707   16.1676 P   0  0  1  0  0  0  0  0  0  0  0  0
   -7.6776   -7.2240   15.9962 O   0  0  0  0  0  0  0  0  0  0  0  0
   -8.7032   -9.4994   16.6073 O   0  5  0  0  0  0  0  0  0  0  0  0
  -10.0373   -7.3820   16.9380 O   0  0  0  0  0  0  0  0  0  0  0  0
   -9.7619   -7.2251   13.7405 C   0  0  0  0  0  0  0  0  0  0  0  0
   -9.4485   -8.2955   14.6484 O   0  0  0  0  0  0  0  0  0  0  0  0
  -10.3771   -7.7932   12.4581 C   0  0  1  0  0  0  0  0  0  0  0  0
  -10.7089   -6.7603   11.5216 O   0  0  0  0  0  0  0  0  0  0  0  0
   -9.4882   -8.7643   11.7001 C   0  0  1  0  0  0  0  0  0  0  0  0
   -9.7521  -10.0919   12.1634 O   0  0  0  0  0  0  0  0  0  0  0  0
   -9.9227   -8.5818   10.2550 C   0  0  1  0  0  0  0  0  0  0  0  0
  -11.1002   -9.3549    9.9828 O   0  0  0  0  0  0  0  0  0  0  0  0
  -10.3525   -7.1299   10.1837 C   0  0  2  0  0  0  0  0  0  0  0  0
   -5.3379   -6.3471   10.7294 N   0  0  0  0  0  0  0  0  0  0  0  0
   -6.1165   -7.3240   11.2480 C   0  0  1  0  0  0  0  0  0  0  0  0
   -5.5525   -8.2715   12.0307 N   0  0  0  0  0  0  0  0  0  0  0  0
   -7.4455   -7.3635   10.9943 N   0  0  0  0  0  0  0  0  0  0  0  0
   -8.0047   -6.4111   10.2100 C   0  0  1  0  0  0  0  0  0  0  0  0
   -7.2339   -5.4011    9.6687 C   0  0  2  0  0  0  0  0  0  0  0  0
   -5.8715   -5.3837    9.9437 C   0  0  0  0  0  0  0  0  0  0  0  0
   -5.1394   -4.4896    9.4753 O   0  0  0  0  0  0  0  0  0  0  0  0
   -8.0576   -4.6118    8.9494 N   0  0  0  0  0  0  0  0  0  0  0  0
   -9.3057   -5.1276    9.0390 C   0  0  0  0  0  0  0  0  0  0  0  0
   -9.2541   -6.2206    9.8070 N   0  0  1  0  0  0  0  0  0  0  0  0
  1  2  1  1  0  0  0
  1  3  1  0  0  0  0
  1  4  2  0  0  0  0
  1  6  1  0  0  0  0
  5  6  1  0  0  0  0
  7  5  1  1  0  0  0
  7  8  1  0  0  0  0
  7  9  1  0  0  0  0
  9 10  1  1  0  0  0
  9 11  1  0  0  0  0
 11 12  1  1  0  0  0
 11 13  1  0  0  0  0
 13  8  1  1  0  0  0
 13 24  1  0  0  0  0
 14 15  1  0  0  0  0
 14 20  1  0  0  0  0
 15 16  1  1  0  0  0
 15 17  1  0  0  0  0
 18 17  1  6  0  0  0
 18 19  1  0  0  0  0
 18 24  1  0  0  0  0
 19 20  1  1  0  0  0
 19 22  1  0  0  0  0
 20 21  2  0  0  0  0
 22 23  1  0  0  0  0
 24 23  1  6  0  0  0
M  CHG  1   3  -1
M  END
>  <CHROM.1>
-56.72372587,179.89448156,-173.63828142,79.10652068,-8.54528624,-7.31130970
12.18816548,-1.87543632,-0.45313190,-1.32019707

>  <Name>
ligand

>  <RI>
0

>  <Rbt.Current_Directory>
/home/itssahil/PROJECTS/Mol_Feturizer/New_Systems/rnas/3SLQ

>  <Rbt.Executable>
rbdock ($Id: //depot/dev/client3/rdock/2013.1/src/exe/rbdock.cxx#4 $)

>  <Rbt.Library>
libRbt.so (2013.1, Build901 2013/11/27)

>  <Rbt.Parameter_File>
/export/apps/rDock/src/rDock_2013.1_src/data/scripts/dock_solv.prm

>  <Rbt.Receptor>
prm/pocket_docking_4.prm

>  <SCORE>
-10.7347

>  <SCORE.INTER>
-5.95028

>  <SCORE.INTER.CONST>
1

>  <SCORE.INTER.POLAR>
0

>  <SCORE.INTER.ROT>
4

>  <SCORE.INTER.SOLV>
12.3565

>  <SCORE.INTER.VDW>
-14.3524

>  <SCORE.INTER.norm>
-0.247929

>  <SCORE.INTRA>
-4.78459

>  <SCORE.INTRA.DIHEDRAL>
-11.8178

>  <SCORE.INTRA.DIHEDRAL.0>
13.2525

>  <SCORE.INTRA.POLAR>
0

>  <SCORE.INTRA.POLAR.0>
0

>  <SCORE.INTRA.REPUL>
0

>  <SCORE.INTRA.REPUL.0>
0

>  <SCORE.INTRA.SOLV>
0.86383

>  <SCORE.INTRA.SOLV.lig_0>
-70.7221

>  <SCORE.INTRA.VDW>
0.692396

>  <SCORE.INTRA.VDW.0>
-1.46337

>  <SCORE.INTRA.norm>
-0.199358

>  <SCORE.RESTR>
0.00015587

>  <SCORE.RESTR.CAVITY>
0.00015587

>  <SCORE.RESTR.norm>
6.49458e-06

>  <SCORE.SYSTEM>
0

>  <SCORE.SYSTEM.CONST>
0

>  <SCORE.SYSTEM.DIHEDRAL>
0

>  <SCORE.SYSTEM.SOLV>
0

>  <SCORE.SYSTEM.norm>
0

>  <SCORE.heavy>
24

>  <SCORE.norm>
-0.44728

>  <RMSD>
4.446

$$$$
ligand
 OpenBabel11021811483D
libRbt.so/2013.1/901 2013/11/27
 24 26  0  0  0  0  0  0  0  0999 V2000
  -11.2843   -7.0085   15.2729 P   0  0  1  0  0  0  0  0  0  0  0  0
  -10.6588   -5.6340   15.1682 O   0  0  0  0  0  0  0  0  0  0  0  0
  -10.4894   -8.0514   16.0229 O   0  5  0  0  0  0  0  0  0  0  0  0
  -12.7531   -6.9916   15.6690 O   0  0  0  0  0  0  0  0  0  0  0  0
   -9.9660   -7.9093   13.0902 C   0  0  0  0  0  0  0  0  0  0  0  0
  -11.1984   -7.5893   13.7588 O   0  0  0  0  0  0  0  0  0  0  0  0
  -10.2541   -8.3615   11.6555 C   0  0  1  0  0  0  0  0  0  0  0  0
  -10.7944   -7.2997   10.8588 O   0  0  0  0  0  0  0  0  0  0  0  0
   -9.0437   -8.8719   10.8924 C   0  0  1  0  0  0  0  0  0  0  0  0
   -8.9331  -10.2844   11.0907 O   0  0  0  0  0  0  0  0  0  0  0  0
   -9.3738   -8.5363    9.4472 C   0  0  1  0  0  0  0  0  0  0  0  0
  -10.2282   -9.5400    8.8806 O   0  0  0  0  0  0  0  0  0  0  0  0
  -10.2169   -7.2805    9.5475 C   0  0  2  0  0  0  0  0  0  0  0  0
   -6.6300   -4.6263   12.0265 N   0  0  0  0  0  0  0  0  0  0  0  0
   -7.2167   -5.7982   12.3609 C   0  0  1  0  0  0  0  0  0  0  0  0
   -6.8448   -6.4201   13.5026 N   0  0  0  0  0  0  0  0  0  0  0  0
   -8.1660   -6.3520   11.5708 N   0  0  0  0  0  0  0  0  0  0  0  0
   -8.5347   -5.7239   10.4287 C   0  0  1  0  0  0  0  0  0  0  0  0
   -7.9536   -4.5255   10.0637 C   0  0  2  0  0  0  0  0  0  0  0  0
   -6.9806   -3.9783   10.8918 C   0  0  0  0  0  0  0  0  0  0  0  0
   -6.4307   -2.8980   10.5997 O   0  0  0  0  0  0  0  0  0  0  0  0
   -8.5195   -4.1451    8.9001 N   0  0  0  0  0  0  0  0  0  0  0  0
   -9.4230   -5.0910    8.5522 C   0  0  0  0  0  0  0  0  0  0  0  0
   -9.4175   -6.0424    9.4911 N   0  0  1  0  0  0  0  0  0  0  0  0
  1  2  1  1  0  0  0
  1  3  1  0  0  0  0
  1  4  2  0  0  0  0
  1  6  1  0  0  0  0
  5  6  1  0  0  0  0
  7  5  1  1  0  0  0
  7  8  1  0  0  0  0
  7  9  1  0  0  0  0
  9 10  1  6  0  0  0
  9 11  1  0  0  0  0
 11 12  1  1  0  0  0
 11 13  1  0  0  0  0
 13  8  1  1  0  0  0
 13 24  1  0  0  0  0
 14 15  1  0  0  0  0
 14 20  1  0  0  0  0
 15 16  1  1  0  0  0
 15 17  1  0  0  0  0
 18 17  1  6  0  0  0
 18 19  1  0  0  0  0
 18 24  1  0  0  0  0
 19 20  1  1  0  0  0
 19 22  1  0  0  0  0
 20 21  2  0  0  0  0
 22 23  1  0  0  0  0
 24 23  1  6  0  0  0
M  CHG  1   3  -1
M  END
>  <CHROM.1>
66.80567851,65.90186758,-177.08493975,50.59715838,-9.39132090,-6.69824775
11.92595551,-2.54690823,-0.92970556,-2.02929977

>  <Name>
ligand

>  <RI>
0

>  <Rbt.Current_Directory>
/home/itssahil/PROJECTS/Mol_Feturizer/New_Systems/rnas/3SLQ

>  <Rbt.Executable>
rbdock ($Id: //depot/dev/client3/rdock/2013.1/src/exe/rbdock.cxx#4 $)

>  <Rbt.Library>
libRbt.so (2013.1, Build901 2013/11/27)

>  <Rbt.Parameter_File>
/export/apps/rDock/src/rDock_2013.1_src/data/scripts/dock_solv.prm

>  <Rbt.Receptor>
prm/pocket_docking_8.prm

>  <SCORE>
-12.6152

>  <SCORE.INTER>
-7.71248

>  <SCORE.INTER.CONST>
1

>  <SCORE.INTER.POLAR>
0

>  <SCORE.INTER.ROT>
4

>  <SCORE.INTER.SOLV>
10.5321

>  <SCORE.INTER.VDW>
-14.919

>  <SCORE.INTER.norm>
-0.321353

>  <SCORE.INTRA>
-4.90275

>  <SCORE.INTRA.DIHEDRAL>
-11.8182

>  <SCORE.INTRA.DIHEDRAL.0>
13.2525

>  <SCORE.INTRA.POLAR>
0

>  <SCORE.INTRA.POLAR.0>
0

>  <SCORE.INTRA.REPUL>
0

>  <SCORE.INTRA.REPUL.0>
0

>  <SCORE.INTRA.SOLV>
2.3188

>  <SCORE.INTRA.SOLV.lig_0>
-70.7221

>  <SCORE.INTRA.VDW>
-0.153061

>  <SCORE.INTRA.VDW.0>
-1.46337

>  <SCORE.INTRA.norm>
-0.204281

>  <SCORE.RESTR>
0

>  <SCORE.RESTR.CAVITY>
0

>  <SCORE.RESTR.norm>
0

>  <SCORE.SYSTEM>
0

>  <SCORE.SYSTEM.CONST>
0

>  <SCORE.SYSTEM.DIHEDRAL>
0

>  <SCORE.SYSTEM.SOLV>
0

>  <SCORE.SYSTEM.norm>
0

>  <SCORE.heavy>
24

>  <SCORE.norm>
-0.525635

>  <RMSD>
4.457

$$$$
ligand
 OpenBabel11021811483D
libRbt.so/2013.1/901 2013/11/27
 24 26  0  0  0  0  0  0  0  0999 V2000
   -4.2784   -8.1060   14.5447 P   0  0  1  0  0  0  0  0  0  0  0  0
   -3.7476   -7.0498   13.5992 O   0  0  0  0  0  0  0  0  0  0  0  0
   -4.0982   -9.5427   14.1142 O   0  5  0  0  0  0  0  0  0  0  0  0
   -3.9036   -7.8774   16.0014 O   0  0  0  0  0  0  0  0  0  0  0  0
   -6.8177   -8.4727   15.3996 C   0  0  0  0  0  0  0  0  0  0  0  0
   -5.8910   -7.9527   14.4305 O   0  0  0  0  0  0  0  0  0  0  0  0
   -8.2473   -8.0781   15.0170 C   0  0  1  0  0  0  0  0  0  0  0  0
   -8.4183   -6.6555   14.9838 O   0  0  0  0  0  0  0  0  0  0  0  0
   -8.7050   -8.5782   13.6575 C   0  0  1  0  0  0  0  0  0  0  0  0
   -9.3266   -9.8565   13.8195 O   0  0  0  0  0  0  0  0  0  0  0  0
   -9.7063   -7.5236   13.2154 C   0  0  1  0  0  0  0  0  0  0  0  0
  -10.9906   -7.7716   13.8047 O   0  0  0  0  0  0  0  0  0  0  0  0
   -9.1960   -6.2461   13.8520 C   0  0  2  0  0  0  0  0  0  0  0  0
   -8.3883   -4.7976    9.0243 N   0  0  0  0  0  0  0  0  0  0  0  0
   -9.3916   -5.5428    9.5414 C   0  0  1  0  0  0  0  0  0  0  0  0
  -10.3633   -6.0015    8.7205 N   0  0  0  0  0  0  0  0  0  0  0  0
   -9.4336   -5.8332   10.8628 N   0  0  0  0  0  0  0  0  0  0  0  0
   -8.4570   -5.3713   11.6799 C   0  0  1  0  0  0  0  0  0  0  0  0
   -7.4198   -4.6095   11.1788 C   0  0  2  0  0  0  0  0  0  0  0  0
   -7.4003   -4.3247    9.8184 C   0  0  0  0  0  0  0  0  0  0  0  0
   -6.4821   -3.6406    9.3248 O   0  0  0  0  0  0  0  0  0  0  0  0
   -6.6110   -4.3053   12.2142 N   0  0  0  0  0  0  0  0  0  0  0  0
   -7.1415   -4.8603   13.3289 C   0  0  0  0  0  0  0  0  0  0  0  0
   -8.2627   -5.5022   12.9856 N   0  0  1  0  0  0  0  0  0  0  0  0
  1  2  1  6  0  0  0
  1  3  1  0  0  0  0
  1  4  2  0  0  0  0
  1  6  1  0  0  0  0
  5  6  1  0  0  0  0
  7  5  1  6  0  0  0
  7  8  1  0  0  0  0
  7  9  1  0  0  0  0
  9 10  1  1  0  0  0
  9 11  1  0  0  0  0
 11 12  1  1  0  0  0
 11 13  1  0  0  0  0
 13  8  1  1  0  0  0
 13 24  1  0  0  0  0
 14 15  1  0  0  0  0
 14 20  1  0  0  0  0
 15 16  1  6  0  0  0
 15 17  1  0  0  0  0
 18 17  1  1  0  0  0
 18 19  1  0  0  0  0
 18 24  1  0  0  0  0
 19 20  1  6  0  0  0
 19 22  1  0  0  0  0
 20 21  2  0  0  0  0
 22 23  1  0  0  0  0
 24 23  1  1  0  0  0
M  CHG  1   3  -1
M  END
>  <CHROM.1>
-161.94963186,-60.89661232,176.79992997,155.88209588,-7.38231432,-6.75373584
12.87938158,-1.01024334,-0.15659767,-0.87140380

>  <Name>
ligand

>  <RI>
0

>  <Rbt.Current_Directory>
/home/itssahil/PROJECTS/Mol_Feturizer/New_Systems/rnas/3SLQ

>  <Rbt.Executable>
rbdock ($Id: //depot/dev/client3/rdock/2013.1/src/exe/rbdock.cxx#4 $)

>  <Rbt.Library>
libRbt.so (2013.1, Build901 2013/11/27)

>  <Rbt.Parameter_File>
/export/apps/rDock/src/rDock_2013.1_src/data/scripts/dock_solv.prm

>  <Rbt.Receptor>
prm/pocket_docking_4.prm

>  <SCORE>
-13.8135

>  <SCORE.INTER>
-8.05088

>  <SCORE.INTER.CONST>
1

>  <SCORE.INTER.POLAR>
0

>  <SCORE.INTER.ROT>
4

>  <SCORE.INTER.SOLV>
11.7799

>  <SCORE.INTER.VDW>
-15.5605

>  <SCORE.INTER.norm>
-0.335453

>  <SCORE.INTRA>
-5.91506

>  <SCORE.INTRA.DIHEDRAL>
-11.5169

>  <SCORE.INTRA.DIHEDRAL.0>
13.2525

>  <SCORE.INTRA.POLAR>
0

>  <SCORE.INTRA.POLAR.0>
0

>  <SCORE.INTRA.REPUL>
0

>  <SCORE.INTRA.REPUL.0>
0

>  <SCORE.INTRA.SOLV>
0.54931

>  <SCORE.INTRA.SOLV.lig_0>
-70.7221

>  <SCORE.INTRA.VDW>
-0.431271

>  <SCORE.INTRA.VDW.0>
-1.46337

>  <SCORE.INTRA.norm>
-0.246461

>  <SCORE.RESTR>
0.152434

>  <SCORE.RESTR.CAVITY>
0.152434

>  <SCORE.RESTR.norm>
0.0063514

>  <SCORE.SYSTEM>
0

>  <SCORE.SYSTEM.CONST>
0

>  <SCORE.SYSTEM.DIHEDRAL>
0

>  <SCORE.SYSTEM.SOLV>
0

>  <SCORE.SYSTEM.norm>
0

>  <SCORE.heavy>
24

>  <SCORE.norm>
-0.575563

>  <RMSD>
4.466

$$$$
ligand
 OpenBabel11021811483D
libRbt.so/2013.1/901 2013/11/27
 24 26  0  0  0  0  0  0  0  0999 V2000
   -4.0469   -8.0906   14.3435 P   0  0  1  0  0  0  0  0  0  0  0  0
   -3.4320   -6.8740   13.6852 O   0  0  0  0  0  0  0  0  0  0  0  0
   -4.1022   -9.3484   13.5088 O   0  5  0  0  0  0  0  0  0  0  0  0
   -3.5506   -8.3456   15.7589 O   0  0  0  0  0  0  0  0  0  0  0  0
   -6.5052   -8.2263   15.4623 C   0  0  0  0  0  0  0  0  0  0  0  0
   -5.6249   -7.7207   14.4437 O   0  0  0  0  0  0  0  0  0  0  0  0
   -7.9535   -7.8549   15.1304 C   0  0  1  0  0  0  0  0  0  0  0  0
   -8.1316   -6.4364   15.0291 O   0  0  0  0  0  0  0  0  0  0  0  0
   -8.4757   -8.4283   13.8241 C   0  0  1  0  0  0  0  0  0  0  0  0
   -9.0834   -9.6968   14.0853 O   0  0  0  0  0  0  0  0  0  0  0  0
   -9.5019   -7.4005   13.3759 C   0  0  1  0  0  0  0  0  0  0  0  0
  -10.7545   -7.6181   14.0406 O   0  0  0  0  0  0  0  0  0  0  0  0
   -8.9659   -6.0897   13.9167 C   0  0  2  0  0  0  0  0  0  0  0  0
   -8.3588   -4.9755    8.9724 N   0  0  0  0  0  0  0  0  0  0  0  0
   -9.3274   -5.7004    9.5772 C   0  0  1  0  0  0  0  0  0  0  0  0
  -10.3173   -6.2348    8.8268 N   0  0  0  0  0  0  0  0  0  0  0  0
   -9.3169   -5.8962   10.9165 N   0  0  0  0  0  0  0  0  0  0  0  0
   -8.3222   -5.3589   11.6627 C   0  0  1  0  0  0  0  0  0  0  0  0
   -7.3196   -4.6157   11.0714 C   0  0  2  0  0  0  0  0  0  0  0  0
   -7.3538   -4.4286    9.6944 C   0  0  0  0  0  0  0  0  0  0  0  0
   -6.4683   -3.7645    9.1205 O   0  0  0  0  0  0  0  0  0  0  0  0
   -6.4817   -4.2232   12.0525 N   0  0  0  0  0  0  0  0  0  0  0  0
   -6.9609   -4.7068   13.2223 C   0  0  0  0  0  0  0  0  0  0  0  0
   -8.0795   -5.3924   12.9664 N   0  0  1  0  0  0  0  0  0  0  0  0
  1  2  1  6  0  0  0
  1  3  1  0  0  0  0
  1  4  2  0  0  0  0
  1  6  1  0  0  0  0
  5  6  1  0  0  0  0
  7  5  1  6  0  0  0
  7  8  1  0  0  0  0
  7  9  1  0  0  0  0
  9 10  1  1  0  0  0
  9 11  1  0  0  0  0
 11 12  1  1  0  0  0
 11 13  1  0  0  0  0
 13  8  1  1  0  0  0
 13 24  1  0  0  0  0
 14 15  1  0  0  0  0
 14 20  1  0  0  0  0
 15 16  1  6  0  0  0
 15 17  1  0  0  0  0
 18 17  1  1  0  0  0
 18 19  1  0  0  0  0
 18 24  1  0  0  0  0
 19 20  1  6  0  0  0
 19 22  1  0  0  0  0
 20 21  2  0  0  0  0
 22 23  1  0  0  0  0
 24 23  1  1  0  0  0
M  CHG  1   3  -1
M  END
>  <CHROM.1>
-151.21258728,-59.05134312,-171.18054842,154.27656544,-7.19993299,-6.70888536
12.85086855,-0.98425632,-0.09193782,-0.91951349

>  <Name>
ligand

>  <RI>
0

>  <Rbt.Current_Directory>
/home/itssahil/PROJECTS/Mol_Feturizer/New_Systems/rnas/3SLQ

>  <Rbt.Executable>
rbdock ($Id: //depot/dev/client3/rdock/2013.1/src/exe/rbdock.cxx#4 $)

>  <Rbt.Library>
libRbt.so (2013.1, Build901 2013/11/27)

>  <Rbt.Parameter_File>
/export/apps/rDock/src/rDock_2013.1_src/data/scripts/dock_solv.prm

>  <Rbt.Receptor>
prm/pocket_docking_6.prm

>  <SCORE>
-14.8553

>  <SCORE.INTER>
-9.57903

>  <SCORE.INTER.CONST>
1

>  <SCORE.INTER.POLAR>
0

>  <SCORE.INTER.ROT>
4

>  <SCORE.INTER.SOLV>
11.0406

>  <SCORE.INTER.VDW>
-16.3329

>  <SCORE.INTER.norm>
-0.399126

>  <SCORE.INTRA>
-5.27631

>  <SCORE.INTRA.DIHEDRAL>
-10.5636

>  <SCORE.INTRA.DIHEDRAL.0>
13.2525

>  <SCORE.INTRA.POLAR>
0

>  <SCORE.INTRA.POLAR.0>
0

>  <SCORE.INTRA.REPUL>
0

>  <SCORE.INTRA.REPUL.0>
0

>  <SCORE.INTRA.SOLV>
0.650136

>  <SCORE.INTRA.SOLV.lig_0>
-70.7221

>  <SCORE.INTRA.VDW>
-0.319566

>  <SCORE.INTRA.VDW.0>
-1.46337

>  <SCORE.INTRA.norm>
-0.219846

>  <SCORE.RESTR>
0

>  <SCORE.RESTR.CAVITY>
0

>  <SCORE.RESTR.norm>
0

>  <SCORE.SYSTEM>
0

>  <SCORE.SYSTEM.CONST>
0

>  <SCORE.SYSTEM.DIHEDRAL>
0

>  <SCORE.SYSTEM.SOLV>
0

>  <SCORE.SYSTEM.norm>
0

>  <SCORE.heavy>
24

>  <SCORE.norm>
-0.618972

>  <RMSD>
4.494

$$$$
ligand
 OpenBabel11021811483D
libRbt.so/2013.1/901 2013/11/27
 24 26  0  0  0  0  0  0  0  0999 V2000
   -4.0283   -8.1232   14.3529 P   0  0  1  0  0  0  0  0  0  0  0  0
   -3.9357   -9.4170   13.5726 O   0  0  0  0  0  0  0  0  0  0  0  0
   -3.6734   -8.1978   15.8193 O   0  5  0  0  0  0  0  0  0  0  0  0
   -3.3910   -6.9317   13.6536 O   0  0  0  0  0  0  0  0  0  0  0  0
   -6.5123   -8.5046   15.3519 C   0  0  0  0  0  0  0  0  0  0  0  0
   -5.6244   -7.8364   14.4390 O   0  0  0  0  0  0  0  0  0  0  0  0
   -7.9581   -8.0814   15.0759 C   0  0  1  0  0  0  0  0  0  0  0  0
   -8.1141   -6.6572   15.1117 O   0  0  0  0  0  0  0  0  0  0  0  0
   -8.5050   -8.5203   13.7283 C   0  0  1  0  0  0  0  0  0  0  0  0
   -9.1304   -9.7985   13.8763 O   0  0  0  0  0  0  0  0  0  0  0  0
   -9.5194   -7.4391   13.3931 C   0  0  1  0  0  0  0  0  0  0  0  0
  -10.7675   -7.6997   14.0508 O   0  0  0  0  0  0  0  0  0  0  0  0
   -8.9557   -6.1939   14.0484 C   0  0  2  0  0  0  0  0  0  0  0  0
   -8.2282   -4.8694    9.1726 N   0  0  0  0  0  0  0  0  0  0  0  0
   -9.1834   -5.6584    9.7153 C   0  0  1  0  0  0  0  0  0  0  0  0
  -10.1214   -6.2072    8.9107 N   0  0  0  0  0  0  0  0  0  0  0  0
   -9.2106   -5.9036   11.0462 N   0  0  0  0  0  0  0  0  0  0  0  0
   -8.2678   -5.3515   11.8469 C   0  0  1  0  0  0  0  0  0  0  0  0
   -7.2799   -4.5433   11.3196 C   0  0  2  0  0  0  0  0  0  0  0  0
   -7.2747   -4.3064    9.9499 C   0  0  0  0  0  0  0  0  0  0  0  0
   -6.4007   -3.5829    9.4328 O   0  0  0  0  0  0  0  0  0  0  0  0
   -6.4952   -4.1513   12.3440 N   0  0  0  0  0  0  0  0  0  0  0  0
   -6.9924   -4.6991   13.4775 C   0  0  0  0  0  0  0  0  0  0  0  0
   -8.0693   -5.4232   13.1566 N   0  0  1  0  0  0  0  0  0  0  0  0
  1  2  1  6  0  0  0
  1  3  1  0  0  0  0
  1  4  2  0  0  0  0
  1  6  1  0  0  0  0
  5  6  1  0  0  0  0
  7  5  1  6  0  0  0
  7  8  1  0  0  0  0
  7  9  1  0  0  0  0
  9 10  1  1  0  0  0
  9 11  1  0  0  0  0
 11 12  1  1  0  0  0
 11 13  1  0  0  0  0
 13  8  1  1  0  0  0
 13 24  1  0  0  0  0
 14 15  1  0  0  0  0
 14 20  1  0  0  0  0
 15 16  1  6  0  0  0
 15 17  1  0  0  0  0
 18 17  1  1  0  0  0
 18 19  1  0  0  0  0
 18 24  1  0  0  0  0
 19 20  1  6  0  0  0
 19 22  1  0  0  0  0
 20 21  2  0  0  0  0
 22 23  1  0  0  0  0
 24 23  1  1  0  0  0
M  CHG  1   3  -1
M  END
>  <CHROM.1>
78.16105329,-54.60161268,-175.02440176,148.73360503,-7.16852710,-6.73877972
12.93194281,-0.98051756,-0.11513275,-0.86262674

>  <Name>
ligand

>  <RI>
0

>  <Rbt.Current_Directory>
/home/itssahil/PROJECTS/Mol_Feturizer/New_Systems/rnas/3SLQ

>  <Rbt.Executable>
rbdock ($Id: //depot/dev/client3/rdock/2013.1/src/exe/rbdock.cxx#4 $)

>  <Rbt.Library>
libRbt.so (2013.1, Build901 2013/11/27)

>  <Rbt.Parameter_File>
/export/apps/rDock/src/rDock_2013.1_src/data/scripts/dock_solv.prm

>  <Rbt.Receptor>
prm/pocket_docking_5.prm

>  <SCORE>
-13.0076

>  <SCORE.INTER>
-7.35862

>  <SCORE.INTER.CONST>
1

>  <SCORE.INTER.POLAR>
0

>  <SCORE.INTER.ROT>
4

>  <SCORE.INTER.SOLV>
16.0832

>  <SCORE.INTER.VDW>
-16.5335

>  <SCORE.INTER.norm>
-0.306609

>  <SCORE.INTRA>
-5.64898

>  <SCORE.INTRA.DIHEDRAL>
-11.34

>  <SCORE.INTRA.DIHEDRAL.0>
13.2525

>  <SCORE.INTRA.POLAR>
0

>  <SCORE.INTRA.POLAR.0>
0

>  <SCORE.INTRA.REPUL>
0

>  <SCORE.INTRA.REPUL.0>
0

>  <SCORE.INTRA.SOLV>
0.188484

>  <SCORE.INTRA.SOLV.lig_0>
-70.7221

>  <SCORE.INTRA.VDW>
-0.0732099

>  <SCORE.INTRA.VDW.0>
-1.46337

>  <SCORE.INTRA.norm>
-0.235374

>  <SCORE.RESTR>
0

>  <SCORE.RESTR.CAVITY>
0

>  <SCORE.RESTR.norm>
0

>  <SCORE.SYSTEM>
0

>  <SCORE.SYSTEM.CONST>
0

>  <SCORE.SYSTEM.DIHEDRAL>
0

>  <SCORE.SYSTEM.SOLV>
0

>  <SCORE.SYSTEM.norm>
0

>  <SCORE.heavy>
24

>  <SCORE.norm>
-0.541983

>  <RMSD>
4.514

$$$$
ligand
 OpenBabel11021811483D
libRbt.so/2013.1/901 2013/11/27
 24 26  0  0  0  0  0  0  0  0999 V2000
   -3.7963   -8.0977   13.9622 P   0  0  1  0  0  0  0  0  0  0  0  0
   -2.9918   -6.8278   13.7840 O   0  0  0  0  0  0  0  0  0  0  0  0
   -3.9983   -8.9423   12.7262 O   0  5  0  0  0  0  0  0  0  0  0  0
   -3.3934   -8.9203   15.1770 O   0  0  0  0  0  0  0  0  0  0  0  0
   -6.0551   -7.8159   15.4223 C   0  0  0  0  0  0  0  0  0  0  0  0
   -5.3088   -7.5650   14.2189 O   0  0  0  0  0  0  0  0  0  0  0  0
   -7.5342   -7.4895   15.1954 C   0  0  1  0  0  0  0  0  0  0  0  0
   -7.7491   -6.0847   15.0101 O   0  0  0  0  0  0  0  0  0  0  0  0
   -8.1577   -8.1631   13.9850 C   0  0  1  0  0  0  0  0  0  0  0  0
   -8.7144   -9.4176   14.3887 O   0  0  0  0  0  0  0  0  0  0  0  0
   -9.2398   -7.1847   13.5584 C   0  0  1  0  0  0  0  0  0  0  0  0
  -10.4245   -7.3708   14.3460 O   0  0  0  0  0  0  0  0  0  0  0  0
   -8.6849   -5.8310   13.9549 C   0  0  2  0  0  0  0  0  0  0  0  0
   -8.5338   -5.0761    8.9087 N   0  0  0  0  0  0  0  0  0  0  0  0
   -9.4301   -5.7692    9.6473 C   0  0  1  0  0  0  0  0  0  0  0  0
  -10.4695   -6.3728    9.0278 N   0  0  0  0  0  0  0  0  0  0  0  0
   -9.2991   -5.8653   10.9911 N   0  0  0  0  0  0  0  0  0  0  0  0
   -8.2554   -5.2590   11.6059 C   0  0  1  0  0  0  0  0  0  0  0  0
   -7.3244   -4.5461   10.8763 C   0  0  2  0  0  0  0  0  0  0  0  0
   -7.4821   -4.4619    9.4979 C   0  0  0  0  0  0  0  0  0  0  0  0
   -6.6644   -3.8285    8.8015 O   0  0  0  0  0  0  0  0  0  0  0  0
   -6.4132   -4.0692   11.7488 N   0  0  0  0  0  0  0  0  0  0  0  0
   -6.7784   -4.4723   12.9881 C   0  0  0  0  0  0  0  0  0  0  0  0
   -7.8998   -5.1922   12.8821 N   0  0  1  0  0  0  0  0  0  0  0  0
  1  2  1  6  0  0  0
  1  3  1  0  0  0  0
  1  4  2  0  0  0  0
  1  6  1  0  0  0  0
  5  6  1  0  0  0  0
  7  5  1  6  0  0  0
  7  8  1  0  0  0  0
  7  9  1  0  0  0  0
  9 10  1  1  0  0  0
  9 11  1  0  0  0  0
 11 12  1  1  0  0  0
 11 13  1  0  0  0  0
 13  8  1  1  0  0  0
 13 24  1  0  0  0  0
 14 15  1  0  0  0  0
 14 20  1  0  0  0  0
 15 16  1  6  0  0  0
 15 17  1  0  0  0  0
 18 17  1  1  0  0  0
 18 19  1  0  0  0  0
 18 24  1  0  0  0  0
 19 20  1  6  0  0  0
 19 22  1  0  0  0  0
 20 21  2  0  0  0  0
 22 23  1  0  0  0  0
 24 23  1  1  0  0  0
M  CHG  1   3  -1
M  END
>  <CHROM.1>
-118.75181861,-67.90531856,-165.72442948,154.13305009,-7.02960227,-6.59862169
12.74979491,-0.92883747,0.01567825,-0.97643713

>  <Name>
ligand

>  <RI>
0

>  <Rbt.Current_Directory>
/home/itssahil/PROJECTS/Mol_Feturizer/New_Systems/rnas/3SLQ

>  <Rbt.Executable>
rbdock ($Id: //depot/dev/client3/rdock/2013.1/src/exe/rbdock.cxx#4 $)

>  <Rbt.Library>
libRbt.so (2013.1, Build901 2013/11/27)

>  <Rbt.Parameter_File>
/export/apps/rDock/src/rDock_2013.1_src/data/scripts/dock_solv.prm

>  <Rbt.Receptor>
prm/pocket_docking_6.prm

>  <SCORE>
-14.9766

>  <SCORE.INTER>
-10.9388

>  <SCORE.INTER.CONST>
1

>  <SCORE.INTER.POLAR>
0

>  <SCORE.INTER.ROT>
4

>  <SCORE.INTER.SOLV>
12.8381

>  <SCORE.INTER.VDW>
-17.8386

>  <SCORE.INTER.norm>
-0.455784

>  <SCORE.INTRA>
-4.03775

>  <SCORE.INTRA.DIHEDRAL>
-8.49212

>  <SCORE.INTRA.DIHEDRAL.0>
13.2525

>  <SCORE.INTRA.POLAR>
0

>  <SCORE.INTRA.POLAR.0>
0

>  <SCORE.INTRA.REPUL>
0

>  <SCORE.INTRA.REPUL.0>
0

>  <SCORE.INTRA.SOLV>
0.603811

>  <SCORE.INTRA.SOLV.lig_0>
-70.7221

>  <SCORE.INTRA.VDW>
-0.0935967

>  <SCORE.INTRA.VDW.0>
-1.46337

>  <SCORE.INTRA.norm>
-0.16824

>  <SCORE.RESTR>
0

>  <SCORE.RESTR.CAVITY>
0

>  <SCORE.RESTR.norm>
0

>  <SCORE.SYSTEM>
0

>  <SCORE.SYSTEM.CONST>
0

>  <SCORE.SYSTEM.DIHEDRAL>
0

>  <SCORE.SYSTEM.SOLV>
0

>  <SCORE.SYSTEM.norm>
0

>  <SCORE.heavy>
24

>  <SCORE.norm>
-0.624023

>  <RMSD>
4.527

$$$$
ligand
 OpenBabel11021811483D
libRbt.so/2013.1/901 2013/11/27
 24 26  0  0  0  0  0  0  0  0999 V2000
   -5.1892   -7.9922   14.5083 P   0  0  1  0  0  0  0  0  0  0  0  0
   -4.6287   -6.9848   13.5272 O   0  0  0  0  0  0  0  0  0  0  0  0
   -4.5828   -9.3752   14.4689 O   0  5  0  0  0  0  0  0  0  0  0  0
   -5.3427   -7.4576   15.9244 O   0  0  0  0  0  0  0  0  0  0  0  0
   -7.6130   -9.1898   14.5740 C   0  0  0  0  0  0  0  0  0  0  0  0
   -6.6804   -8.2961   13.9417 O   0  0  0  0  0  0  0  0  0  0  0  0
   -8.9393   -9.1858   13.8080 C   0  0  1  0  0  0  0  0  0  0  0  0
   -9.5160   -7.8753   13.7450 O   0  0  0  0  0  0  0  0  0  0  0  0
   -8.8461   -9.6626   12.3687 C   0  0  1  0  0  0  0  0  0  0  0  0
   -9.0729  -11.0748   12.3331 O   0  0  0  0  0  0  0  0  0  0  0  0
   -9.9634   -8.9011   11.6745 C   0  0  1  0  0  0  0  0  0  0  0  0
  -11.2213   -9.5617   11.8740 O   0  0  0  0  0  0  0  0  0  0  0  0
  -10.0507   -7.5985   12.4446 C   0  0  2  0  0  0  0  0  0  0  0  0
   -9.3954   -4.6074    8.3604 N   0  0  0  0  0  0  0  0  0  0  0  0
  -10.3272   -5.5615    8.5861 C   0  0  1  0  0  0  0  0  0  0  0  0
  -11.2587   -5.8112    7.6383 N   0  0  0  0  0  0  0  0  0  0  0  0
  -10.3374   -6.2650    9.7424 N   0  0  0  0  0  0  0  0  0  0  0  0
   -9.4012   -6.0107   10.6878 C   0  0  1  0  0  0  0  0  0  0  0  0
   -8.4371   -5.0434   10.4833 C   0  0  2  0  0  0  0  0  0  0  0  0
   -8.4489   -4.3344    9.2878 C   0  0  0  0  0  0  0  0  0  0  0  0
   -7.5965   -3.4527    9.0625 O   0  0  0  0  0  0  0  0  0  0  0  0
   -7.6532   -5.0223   11.5806 N   0  0  0  0  0  0  0  0  0  0  0  0
   -8.1279   -5.9499   12.4445 C   0  0  0  0  0  0  0  0  0  0  0  0
   -9.1901   -6.5389   11.8862 N   0  0  1  0  0  0  0  0  0  0  0  0
  1  2  1  6  0  0  0
  1  3  1  0  0  0  0
  1  4  2  0  0  0  0
  1  6  1  0  0  0  0
  5  6  1  0  0  0  0
  7  5  1  6  0  0  0
  7  8  1  0  0  0  0
  7  9  1  0  0  0  0
  9 10  1  1  0  0  0
  9 11  1  0  0  0  0
 11 12  1  1  0  0  0
 11 13  1  0  0  0  0
 13  8  1  1  0  0  0
 13 24  1  0  0  0  0
 14 15  1  0  0  0  0
 14 20  1  0  0  0  0
 15 16  1  6  0  0  0
 15 17  1  0  0  0  0
 18 17  1  1  0  0  0
 18 19  1  0  0  0  0
 18 24  1  0  0  0  0
 19 20  1  6  0  0  0
 19 22  1  0  0  0  0
 20 21  2  0  0  0  0
 22 23  1  0  0  0  0
 24 23  1  1  0  0  0
M  CHG  1   3  -1
M  END
>  <CHROM.1>
-178.77332390,-58.68915313,177.35956378,-178.92997584,-8.18011977,-7.26593659
12.09103503,-0.94188127,-0.53130986,-0.66833593

>  <Name>
ligand

>  <RI>
0

>  <Rbt.Current_Directory>
/home/itssahil/PROJECTS/Mol_Feturizer/New_Systems/rnas/3SLQ

>  <Rbt.Executable>
rbdock ($Id: //depot/dev/client3/rdock/2013.1/src/exe/rbdock.cxx#4 $)

>  <Rbt.Library>
libRbt.so (2013.1, Build901 2013/11/27)

>  <Rbt.Parameter_File>
/export/apps/rDock/src/rDock_2013.1_src/data/scripts/dock_solv.prm

>  <Rbt.Receptor>
prm/pocket_docking_5.prm

>  <SCORE>
-12.5823

>  <SCORE.INTER>
-6.05792

>  <SCORE.INTER.CONST>
1

>  <SCORE.INTER.POLAR>
0

>  <SCORE.INTER.ROT>
4

>  <SCORE.INTER.SOLV>
12.089

>  <SCORE.INTER.VDW>
-14.3349

>  <SCORE.INTER.norm>
-0.252413

>  <SCORE.INTRA>
-6.52433

>  <SCORE.INTRA.DIHEDRAL>
-12.0072

>  <SCORE.INTRA.DIHEDRAL.0>
13.2525

>  <SCORE.INTRA.POLAR>
0

>  <SCORE.INTRA.POLAR.0>
0

>  <SCORE.INTRA.REPUL>
0

>  <SCORE.INTRA.REPUL.0>
0

>  <SCORE.INTRA.SOLV>
0.567085

>  <SCORE.INTRA.SOLV.lig_0>
-70.7221

>  <SCORE.INTRA.VDW>
-0.804292

>  <SCORE.INTRA.VDW.0>
-1.46337

>  <SCORE.INTRA.norm>
-0.271847

>  <SCORE.RESTR>
0

>  <SCORE.RESTR.CAVITY>
0

>  <SCORE.RESTR.norm>
0

>  <SCORE.SYSTEM>
0

>  <SCORE.SYSTEM.CONST>
0

>  <SCORE.SYSTEM.DIHEDRAL>
0

>  <SCORE.SYSTEM.SOLV>
0

>  <SCORE.SYSTEM.norm>
0

>  <SCORE.heavy>
24

>  <SCORE.norm>
-0.524261

>  <RMSD>
4.639

$$$$
ligand
 OpenBabel11021811483D
libRbt.so/2013.1/901 2013/11/27
 24 26  0  0  0  0  0  0  0  0999 V2000
  -10.8846   -5.6848    8.0311 P   0  0  1  0  0  0  0  0  0  0  0  0
  -10.7027   -5.5252    6.5368 O   0  0  0  0  0  0  0  0  0  0  0  0
  -11.2033   -4.4276    8.8056 O   0  5  0  0  0  0  0  0  0  0  0  0
  -11.7692   -6.8582    8.4251 O   0  0  0  0  0  0  0  0  0  0  0  0
   -8.6128   -7.1460    8.1623 C   0  0  0  0  0  0  0  0  0  0  0  0
   -9.3871   -6.0052    8.5714 O   0  0  0  0  0  0  0  0  0  0  0  0
   -7.3355   -7.2368    9.0025 C   0  0  1  0  0  0  0  0  0  0  0  0
   -6.3867   -6.2244    8.6437 O   0  0  0  0  0  0  0  0  0  0  0  0
   -7.5452   -7.0903   10.5000 C   0  0  1  0  0  0  0  0  0  0  0  0
   -7.7578   -8.3865   11.0668 O   0  0  0  0  0  0  0  0  0  0  0  0
   -6.2378   -6.4804   10.9786 C   0  0  1  0  0  0  0  0  0  0  0  0
   -5.2438   -7.4993   11.1578 O   0  0  0  0  0  0  0  0  0  0  0  0
   -5.7715   -5.6466    9.8018 C   0  0  2  0  0  0  0  0  0  0  0  0
   -4.2862   -0.7849    9.3388 N   0  0  0  0  0  0  0  0  0  0  0  0
   -3.5534   -1.9188    9.2564 C   0  0  1  0  0  0  0  0  0  0  0  0
   -2.2265   -1.8304    9.0114 N   0  0  0  0  0  0  0  0  0  0  0  0
   -4.1295   -3.1332    9.4160 N   0  0  0  0  0  0  0  0  0  0  0  0
   -5.4590   -3.2151    9.6619 C   0  0  1  0  0  0  0  0  0  0  0  0
   -6.2311   -2.0736    9.7527 C   0  0  2  0  0  0  0  0  0  0  0  0
   -5.6155   -0.8388    9.5842 C   0  0  0  0  0  0  0  0  0  0  0  0
   -6.2755    0.2164    9.6585 O   0  0  0  0  0  0  0  0  0  0  0  0
   -7.4961   -2.4662   10.0066 N   0  0  0  0  0  0  0  0  0  0  0  0
   -7.5050   -3.8184   10.0633 C   0  0  0  0  0  0  0  0  0  0  0  0
   -6.2598   -4.2558    9.8502 N   0  0  1  0  0  0  0  0  0  0  0  0
  1  2  1  6  0  0  0
  1  3  1  0  0  0  0
  1  4  2  0  0  0  0
  1  6  1  0  0  0  0
  5  6  1  0  0  0  0
  7  5  1  6  0  0  0
  7  8  1  0  0  0  0
  7  9  1  0  0  0  0
  9 10  1  1  0  0  0
  9 11  1  0  0  0  0
 11 12  1  6  0  0  0
 11 13  1  0  0  0  0
 13  8  1  6  0  0  0
 13 24  1  0  0  0  0
 14 15  1  0  0  0  0
 14 20  1  0  0  0  0
 15 16  1  1  0  0  0
 15 17  1  0  0  0  0
 18 17  1  6  0  0  0
 18 19  1  0  0  0  0
 18 24  1  0  0  0  0
 19 20  1  1  0  0  0
 19 22  1  0  0  0  0
 20 21  2  0  0  0  0
 22 23  1  0  0  0  0
 24 23  1  6  0  0  0
M  CHG  1   3  -1
M  END
>  <CHROM.1>
-60.63756494,-72.69984383,-172.47152210,-113.05952191,-7.29256465,-4.65489035
9.29407767,2.49790124,0.33295341,2.93984392

>  <Name>
ligand

>  <RI>
0

>  <Rbt.Current_Directory>
/home/itssahil/PROJECTS/Mol_Feturizer/New_Systems/rnas/3SLQ

>  <Rbt.Executable>
rbdock ($Id: //depot/dev/client3/rdock/2013.1/src/exe/rbdock.cxx#4 $)

>  <Rbt.Library>
libRbt.so (2013.1, Build901 2013/11/27)

>  <Rbt.Parameter_File>
/export/apps/rDock/src/rDock_2013.1_src/data/scripts/dock_solv.prm

>  <Rbt.Receptor>
prm/pocket_docking_5.prm

>  <SCORE>
-16.4598

>  <SCORE.INTER>
-10.1054

>  <SCORE.INTER.CONST>
1

>  <SCORE.INTER.POLAR>
0

>  <SCORE.INTER.ROT>
4

>  <SCORE.INTER.SOLV>
21.9254

>  <SCORE.INTER.VDW>
-20.3121

>  <SCORE.INTER.norm>
-0.42106

>  <SCORE.INTRA>
-6.35438

>  <SCORE.INTRA.DIHEDRAL>
-11.2173

>  <SCORE.INTRA.DIHEDRAL.0>
13.2525

>  <SCORE.INTRA.POLAR>
0

>  <SCORE.INTRA.POLAR.0>
0

>  <SCORE.INTRA.REPUL>
0

>  <SCORE.INTRA.REPUL.0>
0

>  <SCORE.INTRA.SOLV>
0.0664667

>  <SCORE.INTRA.SOLV.lig_0>
-70.7221

>  <SCORE.INTRA.VDW>
-0.778952

>  <SCORE.INTRA.VDW.0>
-1.46337

>  <SCORE.INTRA.norm>
-0.264766

>  <SCORE.RESTR>
0

>  <SCORE.RESTR.CAVITY>
0

>  <SCORE.RESTR.norm>
0

>  <SCORE.SYSTEM>
0

>  <SCORE.SYSTEM.CONST>
0

>  <SCORE.SYSTEM.DIHEDRAL>
0

>  <SCORE.SYSTEM.SOLV>
0

>  <SCORE.SYSTEM.norm>
0

>  <SCORE.heavy>
24

>  <SCORE.norm>
-0.685826

>  <RMSD>
4.654

$$$$
ligand
 OpenBabel11021811483D
libRbt.so/2013.1/901 2013/11/27
 24 26  0  0  0  0  0  0  0  0999 V2000
  -10.7319   -5.4026    7.9273 P   0  0  1  0  0  0  0  0  0  0  0  0
  -10.8992   -3.9089    8.1073 O   0  0  0  0  0  0  0  0  0  0  0  0
  -11.4995   -6.2833    8.8848 O   0  5  0  0  0  0  0  0  0  0  0  0
  -10.8422   -5.8681    6.4831 O   0  0  0  0  0  0  0  0  0  0  0  0
   -8.4880   -6.8974    8.1369 C   0  0  0  0  0  0  0  0  0  0  0  0
   -9.2069   -5.6823    8.4104 O   0  0  0  0  0  0  0  0  0  0  0  0
   -7.2303   -6.9658    9.0083 C   0  0  1  0  0  0  0  0  0  0  0  0
   -6.2810   -5.9511    8.6571 O   0  0  0  0  0  0  0  0  0  0  0  0
   -7.4766   -6.7993   10.4980 C   0  0  1  0  0  0  0  0  0  0  0  0
   -7.6928   -8.0888   11.0787 O   0  0  0  0  0  0  0  0  0  0  0  0
   -6.1857   -6.1721   10.9984 C   0  0  1  0  0  0  0  0  0  0  0  0
   -5.1885   -7.1803   11.2161 O   0  0  0  0  0  0  0  0  0  0  0  0
   -5.6979   -5.3517    9.8208 C   0  0  2  0  0  0  0  0  0  0  0  0
   -4.2318   -0.4835    9.3656 N   0  0  0  0  0  0  0  0  0  0  0  0
   -3.4883   -1.6124    9.3219 C   0  0  1  0  0  0  0  0  0  0  0  0
   -2.1538   -1.5163    9.1256 N   0  0  0  0  0  0  0  0  0  0  0  0
   -4.0610   -2.8297    9.4718 N   0  0  0  0  0  0  0  0  0  0  0  0
   -5.3982   -2.9194    9.6687 C   0  0  1  0  0  0  0  0  0  0  0  0
   -6.1814   -1.7831    9.7194 C   0  0  2  0  0  0  0  0  0  0  0  0
   -5.5690   -0.5452    9.5618 C   0  0  0  0  0  0  0  0  0  0  0  0
   -6.2390    0.5056    9.6010 O   0  0  0  0  0  0  0  0  0  0  0  0
   -7.4522   -2.1828    9.9297 N   0  0  0  0  0  0  0  0  0  0  0  0
   -7.4532   -3.5345    9.9994 C   0  0  0  0  0  0  0  0  0  0  0  0
   -6.1978   -3.9643    9.8373 N   0  0  1  0  0  0  0  0  0  0  0  0
  1  2  1  1  0  0  0
  1  3  1  0  0  0  0
  1  4  2  0  0  0  0
  1  6  1  0  0  0  0
  5  6  1  0  0  0  0
  7  5  1  6  0  0  0
  7  8  1  0  0  0  0
  7  9  1  0  0  0  0
  9 10  1  1  0  0  0
  9 11  1  0  0  0  0
 11 12  1  6  0  0  0
 11 13  1  0  0  0  0
 13  8  1  6  0  0  0
 13 24  1  0  0  0  0
 14 15  1  0  0  0  0
 14 20  1  0  0  0  0
 15 16  1  1  0  0  0
 15 17  1  0  0  0  0
 18 17  1  6  0  0  0
 18 19  1  0  0  0  0
 18 24  1  0  0  0  0
 19 20  1  1  0  0  0
 19 22  1  0  0  0  0
 20 21  2  0  0  0  0
 22 23  1  0  0  0  0
 24 23  1  6  0  0  0
M  CHG  1   3  -1
M  END
>  <CHROM.1>
-165.07620582,-66.54956276,-166.37708626,-113.89013099,-7.20266091,-4.36763086
9.26896666,2.49509020,0.36445273,2.92786379

>  <Name>
ligand

>  <RI>
0

>  <Rbt.Current_Directory>
/home/itssahil/PROJECTS/Mol_Feturizer/New_Systems/rnas/3SLQ

>  <Rbt.Executable>
rbdock ($Id: //depot/dev/client3/rdock/2013.1/src/exe/rbdock.cxx#4 $)

>  <Rbt.Library>
libRbt.so (2013.1, Build901 2013/11/27)

>  <Rbt.Parameter_File>
/export/apps/rDock/src/rDock_2013.1_src/data/scripts/dock_solv.prm

>  <Rbt.Receptor>
prm/pocket_docking_6.prm

>  <SCORE>
-16.4287

>  <SCORE.INTER>
-10.5873

>  <SCORE.INTER.CONST>
1

>  <SCORE.INTER.POLAR>
0

>  <SCORE.INTER.ROT>
4

>  <SCORE.INTER.SOLV>
23.0676

>  <SCORE.INTER.VDW>
-21.0141

>  <SCORE.INTER.norm>
-0.441139

>  <SCORE.INTRA>
-5.84217

>  <SCORE.INTRA.DIHEDRAL>
-10.6741

>  <SCORE.INTRA.DIHEDRAL.0>
13.2525

>  <SCORE.INTRA.POLAR>
0

>  <SCORE.INTRA.POLAR.0>
0

>  <SCORE.INTRA.REPUL>
0

>  <SCORE.INTRA.REPUL.0>
0

>  <SCORE.INTRA.SOLV>
0.737618

>  <SCORE.INTRA.SOLV.lig_0>
-70.7221

>  <SCORE.INTRA.VDW>
-0.873945

>  <SCORE.INTRA.VDW.0>
-1.46337

>  <SCORE.INTRA.norm>
-0.243424

>  <SCORE.RESTR>
0.000772964

>  <SCORE.RESTR.CAVITY>
0.000772964

>  <SCORE.RESTR.norm>
3.22068e-05

>  <SCORE.SYSTEM>
0

>  <SCORE.SYSTEM.CONST>
0

>  <SCORE.SYSTEM.DIHEDRAL>
0

>  <SCORE.SYSTEM.SOLV>
0

>  <SCORE.SYSTEM.norm>
0

>  <SCORE.heavy>
24

>  <SCORE.norm>
-0.68453

>  <RMSD>
4.673

$$$$
ligand
 OpenBabel11021811483D
libRbt.so/2013.1/901 2013/11/27
 24 26  0  0  0  0  0  0  0  0999 V2000
   -9.8860   -9.6253    6.8517 P   0  0  1  0  0  0  0  0  0  0  0  0
  -11.0805   -9.1459    6.0548 O   0  0  0  0  0  0  0  0  0  0  0  0
   -9.9841   -9.4907    8.3531 O   0  5  0  0  0  0  0  0  0  0  0  0
   -9.3565  -10.9836    6.4166 O   0  0  0  0  0  0  0  0  0  0  0  0
   -8.9316   -7.1068    6.6071 C   0  0  0  0  0  0  0  0  0  0  0  0
   -8.7347   -8.5288    6.5212 O   0  0  0  0  0  0  0  0  0  0  0  0
   -9.2242   -6.7083    8.0567 C   0  0  1  0  0  0  0  0  0  0  0  0
   -8.0997   -6.9446    8.9133 O   0  0  0  0  0  0  0  0  0  0  0  0
   -9.5913   -5.2476    8.2550 C   0  0  1  0  0  0  0  0  0  0  0  0
  -11.0115   -5.1089    8.1526 O   0  0  0  0  0  0  0  0  0  0  0  0
   -9.1027   -4.9518    9.6636 C   0  0  1  0  0  0  0  0  0  0  0  0
  -10.0676   -5.3870   10.6320 O   0  0  0  0  0  0  0  0  0  0  0  0
   -7.9032   -5.8632    9.8328 C   0  0  2  0  0  0  0  0  0  0  0  0
   -5.4424   -1.3937    9.6779 N   0  0  0  0  0  0  0  0  0  0  0  0
   -6.6895   -1.6730   10.1206 C   0  0  1  0  0  0  0  0  0  0  0  0
   -7.4537   -0.6727   10.6146 N   0  0  0  0  0  0  0  0  0  0  0  0
   -7.1785   -2.9343   10.0746 N   0  0  0  0  0  0  0  0  0  0  0  0
   -6.4084   -3.9319    9.5781 C   0  0  1  0  0  0  0  0  0  0  0  0
   -5.1320   -3.6750    9.1176 C   0  0  2  0  0  0  0  0  0  0  0  0
   -4.6531   -2.3715    9.1766 C   0  0  0  0  0  0  0  0  0  0  0  0
   -3.5065   -2.0960    8.7714 O   0  0  0  0  0  0  0  0  0  0  0  0
   -4.6204   -4.8454    8.6848 N   0  0  0  0  0  0  0  0  0  0  0  0
   -5.5569   -5.8027    8.8809 C   0  0  0  0  0  0  0  0  0  0  0  0
   -6.6351   -5.2300    9.4254 N   0  0  1  0  0  0  0  0  0  0  0  0
  1  2  1  6  0  0  0
  1  3  1  0  0  0  0
  1  4  2  0  0  0  0
  1  6  1  0  0  0  0
  5  6  1  0  0  0  0
  7  5  1  6  0  0  0
  7  8  1  0  0  0  0
  7  9  1  0  0  0  0
  9 10  1  1  0  0  0
  9 11  1  0  0  0  0
 11 12  1  1  0  0  0
 11 13  1  0  0  0  0
 13  8  1  6  0  0  0
 13 24  1  0  0  0  0
 14 15  1  0  0  0  0
 14 20  1  0  0  0  0
 15 16  1  6  0  0  0
 15 17  1  0  0  0  0
 18 17  1  1  0  0  0
 18 19  1  0  0  0  0
 18 24  1  0  0  0  0
 19 20  1  6  0  0  0
 19 22  1  0  0  0  0
 20 21  2  0  0  0  0
 22 23  1  0  0  0  0
 24 23  1  1  0  0  0
M  CHG  1   3  -1
M  END
>  <CHROM.1>
49.53884332,65.52827341,63.97537853,148.43858497,-7.96172435,-5.73830566
8.54287984,-2.10893222,0.16514292,0.47145840

>  <Name>
ligand

>  <RI>
0

>  <Rbt.Current_Directory>
/home/itssahil/PROJECTS/Mol_Feturizer/New_Systems/rnas/3SLQ

>  <Rbt.Executable>
rbdock ($Id: //depot/dev/client3/rdock/2013.1/src/exe/rbdock.cxx#4 $)

>  <Rbt.Library>
libRbt.so (2013.1, Build901 2013/11/27)

>  <Rbt.Parameter_File>
/export/apps/rDock/src/rDock_2013.1_src/data/scripts/dock_solv.prm

>  <Rbt.Receptor>
prm/blind_docking_100.prm

>  <SCORE>
-19.7813

>  <SCORE.INTER>
-15.0237

>  <SCORE.INTER.CONST>
1

>  <SCORE.INTER.POLAR>
0

>  <SCORE.INTER.ROT>
4

>  <SCORE.INTER.SOLV>
31.7666

>  <SCORE.INTER.VDW>
-26.8713

>  <SCORE.INTER.norm>
-0.625988

>  <SCORE.INTRA>
-4.75759

>  <SCORE.INTRA.DIHEDRAL>
-11.7115

>  <SCORE.INTRA.DIHEDRAL.0>
13.2525

>  <SCORE.INTRA.POLAR>
0

>  <SCORE.INTRA.POLAR.0>
0

>  <SCORE.INTRA.REPUL>
0

>  <SCORE.INTRA.REPUL.0>
0

>  <SCORE.INTRA.SOLV>
2.18977

>  <SCORE.INTRA.SOLV.lig_0>
-70.7221

>  <SCORE.INTRA.VDW>
0.00328942

>  <SCORE.INTRA.VDW.0>
-1.46337

>  <SCORE.INTRA.norm>
-0.198233

>  <SCORE.RESTR>
0

>  <SCORE.RESTR.CAVITY>
0

>  <SCORE.RESTR.norm>
0

>  <SCORE.SYSTEM>
0

>  <SCORE.SYSTEM.CONST>
0

>  <SCORE.SYSTEM.DIHEDRAL>
0

>  <SCORE.SYSTEM.SOLV>
0

>  <SCORE.SYSTEM.norm>
0

>  <SCORE.heavy>
24

>  <SCORE.norm>
-0.82422

>  <RMSD>
4.845

$$$$
ligand
 OpenBabel11021811483D
libRbt.so/2013.1/901 2013/11/27
 24 26  0  0  0  0  0  0  0  0999 V2000
  -11.3632   -8.7282    9.6203 P   0  0  1  0  0  0  0  0  0  0  0  0
  -11.3953   -9.2390    8.1956 O   0  0  0  0  0  0  0  0  0  0  0  0
  -11.6223   -7.2521    9.8092 O   0  5  0  0  0  0  0  0  0  0  0  0
  -12.1372   -9.5918   10.6050 O   0  0  0  0  0  0  0  0  0  0  0  0
   -9.0275  -10.0344   10.0102 C   0  0  0  0  0  0  0  0  0  0  0  0
   -9.7939   -8.8177   10.0283 O   0  0  0  0  0  0  0  0  0  0  0  0
   -7.6139   -9.7674   10.5357 C   0  0  1  0  0  0  0  0  0  0  0  0
   -6.9101   -8.8223    9.7199 O   0  0  0  0  0  0  0  0  0  0  0  0
   -7.5527   -9.2148   11.9494 C   0  0  1  0  0  0  0  0  0  0  0  0
   -7.4606  -10.3063   12.8697 O   0  0  0  0  0  0  0  0  0  0  0  0
   -6.2818   -8.3811   11.9448 C   0  0  1  0  0  0  0  0  0  0  0  0
   -5.1334   -9.2143   12.1575 O   0  0  0  0  0  0  0  0  0  0  0  0
   -6.1765   -7.8840   10.5167 C   0  0  2  0  0  0  0  0  0  0  0  0
   -5.3793   -3.0934    8.9446 N   0  0  0  0  0  0  0  0  0  0  0  0
   -4.5046   -4.1196    9.0513 C   0  0  1  0  0  0  0  0  0  0  0  0
   -3.2129   -3.9243    8.7023 N   0  0  0  0  0  0  0  0  0  0  0  0
   -4.9049   -5.3319    9.5009 N   0  0  0  0  0  0  0  0  0  0  0  0
   -6.2001   -5.5211    9.8495 C   0  0  1  0  0  0  0  0  0  0  0  0
   -7.1144   -4.4906    9.7522 C   0  0  2  0  0  0  0  0  0  0  0  0
   -6.6781   -3.2557    9.2868 C   0  0  0  0  0  0  0  0  0  0  0  0
   -7.4706   -2.2985    9.1838 O   0  0  0  0  0  0  0  0  0  0  0  0
   -8.3036   -4.9710   10.1692 N   0  0  0  0  0  0  0  0  0  0  0  0
   -8.1280   -6.2695   10.5083 C   0  0  0  0  0  0  0  0  0  0  0  0
   -6.8451   -6.5864   10.3063 N   0  0  1  0  0  0  0  0  0  0  0  0
  1  2  1  6  0  0  0
  1  3  1  0  0  0  0
  1  4  2  0  0  0  0
  1  6  1  0  0  0  0
  5  6  1  0  0  0  0
  7  5  1  6  0  0  0
  7  8  1  0  0  0  0
  7  9  1  0  0  0  0
  9 10  1  1  0  0  0
  9 11  1  0  0  0  0
 11 12  1  6  0  0  0
 11 13  1  0  0  0  0
 13  8  1  6  0  0  0
 13 24  1  0  0  0  0
 14 15  1  0  0  0  0
 14 20  1  0  0  0  0
 15 16  1  1  0  0  0
 15 17  1  0  0  0  0
 18 17  1  6  0  0  0
 18 19  1  0  0  0  0
 18 24  1  0  0  0  0
 19 20  1  1  0  0  0
 19 22  1  0  0  0  0
 20 21  2  0  0  0  0
 22 23  1  0  0  0  0
 24 23  1  6  0  0  0
M  CHG  1   3  -1
M  END
>  <CHROM.1>
-58.65365681,-61.53322921,-176.46191335,-122.83325285,-7.83327349,-7.14498241
10.11811909,2.34959013,0.24771393,2.74437686

>  <Name>
ligand

>  <RI>
0

>  <Rbt.Current_Directory>
/home/itssahil/PROJECTS/Mol_Feturizer/New_Systems/rnas/3SLQ

>  <Rbt.Executable>
rbdock ($Id: //depot/dev/client3/rdock/2013.1/src/exe/rbdock.cxx#4 $)

>  <Rbt.Library>
libRbt.so (2013.1, Build901 2013/11/27)

>  <Rbt.Parameter_File>
/export/apps/rDock/src/rDock_2013.1_src/data/scripts/dock_solv.prm

>  <Rbt.Receptor>
prm/pocket_docking_6.prm

>  <SCORE>
-12.8712

>  <SCORE.INTER>
-5.95637

>  <SCORE.INTER.CONST>
1

>  <SCORE.INTER.POLAR>
0

>  <SCORE.INTER.ROT>
4

>  <SCORE.INTER.SOLV>
28.43

>  <SCORE.INTER.VDW>
-19.7143

>  <SCORE.INTER.norm>
-0.248182

>  <SCORE.INTRA>
-6.9148

>  <SCORE.INTRA.DIHEDRAL>
-11.9741

>  <SCORE.INTRA.DIHEDRAL.0>
13.2525

>  <SCORE.INTRA.POLAR>
0

>  <SCORE.INTRA.POLAR.0>
0

>  <SCORE.INTRA.REPUL>
0

>  <SCORE.INTRA.REPUL.0>
0

>  <SCORE.INTRA.SOLV>
0.125227

>  <SCORE.INTRA.SOLV.lig_0>
-70.7221

>  <SCORE.INTRA.VDW>
-0.990363

>  <SCORE.INTRA.VDW.0>
-1.46337

>  <SCORE.INTRA.norm>
-0.288117

>  <SCORE.RESTR>
0

>  <SCORE.RESTR.CAVITY>
0

>  <SCORE.RESTR.norm>
0

>  <SCORE.SYSTEM>
0

>  <SCORE.SYSTEM.CONST>
0

>  <SCORE.SYSTEM.DIHEDRAL>
0

>  <SCORE.SYSTEM.SOLV>
0

>  <SCORE.SYSTEM.norm>
0

>  <SCORE.heavy>
24

>  <SCORE.norm>
-0.536299

>  <RMSD>
4.853

$$$$
ligand
 OpenBabel11021811483D
libRbt.so/2013.1/901 2013/11/27
 24 26  0  0  0  0  0  0  0  0999 V2000
   -9.2631   -9.0902    6.9987 P   0  0  1  0  0  0  0  0  0  0  0  0
   -8.7167   -8.1212    5.9720 O   0  0  0  0  0  0  0  0  0  0  0  0
  -10.4597   -8.6214    7.7927 O   0  5  0  0  0  0  0  0  0  0  0  0
   -9.4196  -10.5135    6.4847 O   0  0  0  0  0  0  0  0  0  0  0  0
   -8.4048   -9.1739    9.5619 C   0  0  0  0  0  0  0  0  0  0  0  0
   -8.1213   -9.1157    8.1532 O   0  0  0  0  0  0  0  0  0  0  0  0
   -7.1300   -8.8897   10.3618 C   0  0  1  0  0  0  0  0  0  0  0  0
   -6.3860   -7.7957    9.8106 O   0  0  0  0  0  0  0  0  0  0  0  0
   -7.3584   -8.5363   11.8215 C   0  0  1  0  0  0  0  0  0  0  0  0
   -7.3259   -9.7367   12.5992 O   0  0  0  0  0  0  0  0  0  0  0  0
   -6.1849   -7.6278   12.1497 C   0  0  1  0  0  0  0  0  0  0  0  0
   -5.0191   -8.4046   12.4589 O   0  0  0  0  0  0  0  0  0  0  0  0
   -5.8847   -6.9310   10.8374 C   0  0  2  0  0  0  0  0  0  0  0  0
   -5.4662   -2.1723    9.0383 N   0  0  0  0  0  0  0  0  0  0  0  0
   -4.5478   -3.1650    9.0642 C   0  0  1  0  0  0  0  0  0  0  0  0
   -3.3176   -2.9392    8.5503 N   0  0  0  0  0  0  0  0  0  0  0  0
   -4.8442   -4.3740    9.5958 N   0  0  0  0  0  0  0  0  0  0  0  0
   -6.0781   -4.5938   10.1097 C   0  0  1  0  0  0  0  0  0  0  0  0
   -7.0346   -3.5978   10.0979 C   0  0  2  0  0  0  0  0  0  0  0  0
   -6.7054   -2.3655    9.5455 C   0  0  0  0  0  0  0  0  0  0  0  0
   -7.5392   -1.4389    9.5149 O   0  0  0  0  0  0  0  0  0  0  0  0
   -8.1442   -4.1027   10.6748 N   0  0  0  0  0  0  0  0  0  0  0  0
   -7.8801   -5.3826   11.0270 C   0  0  0  0  0  0  0  0  0  0  0  0
   -6.6216   -5.6639   10.6748 N   0  0  1  0  0  0  0  0  0  0  0  0
  1  2  1  6  0  0  0
  1  3  1  0  0  0  0
  1  4  2  0  0  0  0
  1  6  1  0  0  0  0
  5  6  1  0  0  0  0
  7  5  1  6  0  0  0
  7  8  1  0  0  0  0
  7  9  1  0  0  0  0
  9 10  1  1  0  0  0
  9 11  1  0  0  0  0
 11 12  1  6  0  0  0
 11 13  1  0  0  0  0
 13  8  1  6  0  0  0
 13 24  1  0  0  0  0
 14 15  1  0  0  0  0
 14 20  1  0  0  0  0
 15 16  1  1  0  0  0
 15 17  1  0  0  0  0
 18 17  1  6  0  0  0
 18 19  1  0  0  0  0
 18 24  1  0  0  0  0
 19 20  1  1  0  0  0
 19 22  1  0  0  0  0
 20 21  2  0  0  0  0
 22 23  1  0  0  0  0
 24 23  1  6  0  0  0
M  CHG  1   3  -1
M  END
>  <CHROM.1>
141.24450136,43.13932199,-168.22503740,-102.99650736,-7.16110817,-6.60463935
9.52242898,2.44169136,0.97941155,2.60341378

>  <Name>
ligand

>  <RI>
0

>  <Rbt.Current_Directory>
/home/itssahil/PROJECTS/Mol_Feturizer/New_Systems/rnas/3SLQ

>  <Rbt.Executable>
rbdock ($Id: //depot/dev/client3/rdock/2013.1/src/exe/rbdock.cxx#4 $)

>  <Rbt.Library>
libRbt.so (2013.1, Build901 2013/11/27)

>  <Rbt.Parameter_File>
/export/apps/rDock/src/rDock_2013.1_src/data/scripts/dock_solv.prm

>  <Rbt.Receptor>
prm/pocket_docking_8.prm

>  <SCORE>
-14.5661

>  <SCORE.INTER>
-10.766

>  <SCORE.INTER.CONST>
1

>  <SCORE.INTER.POLAR>
0

>  <SCORE.INTER.ROT>
4

>  <SCORE.INTER.SOLV>
28.5071

>  <SCORE.INTER.VDW>
-22.9464

>  <SCORE.INTER.norm>
-0.448584

>  <SCORE.INTRA>
-3.80011

>  <SCORE.INTRA.DIHEDRAL>
-8.71248

>  <SCORE.INTRA.DIHEDRAL.0>
13.2525

>  <SCORE.INTRA.POLAR>
0

>  <SCORE.INTRA.POLAR.0>
0

>  <SCORE.INTRA.REPUL>
0

>  <SCORE.INTRA.REPUL.0>
0

>  <SCORE.INTRA.SOLV>
0.537784

>  <SCORE.INTRA.SOLV.lig_0>
-70.7221

>  <SCORE.INTRA.VDW>
0.287242

>  <SCORE.INTRA.VDW.0>
-1.46337

>  <SCORE.INTRA.norm>
-0.158338

>  <SCORE.RESTR>
0

>  <SCORE.RESTR.CAVITY>
0

>  <SCORE.RESTR.norm>
0

>  <SCORE.SYSTEM>
0

>  <SCORE.SYSTEM.CONST>
0

>  <SCORE.SYSTEM.DIHEDRAL>
0

>  <SCORE.SYSTEM.SOLV>
0

>  <SCORE.SYSTEM.norm>
0

>  <SCORE.heavy>
24

>  <SCORE.norm>
-0.606922

>  <RMSD>
5.029

$$$$
ligand
 OpenBabel11021811483D
libRbt.so/2013.1/901 2013/11/27
 24 26  0  0  0  0  0  0  0  0999 V2000
   -7.1740  -11.1401   10.6907 P   0  0  1  0  0  0  0  0  0  0  0  0
   -6.4342  -11.9964    9.6852 O   0  0  0  0  0  0  0  0  0  0  0  0
   -8.0995  -11.8668   11.6379 O   0  5  0  0  0  0  0  0  0  0  0  0
   -6.2970  -10.1161   11.3956 O   0  0  0  0  0  0  0  0  0  0  0  0
   -9.1568   -9.3401   10.3136 C   0  0  0  0  0  0  0  0  0  0  0  0
   -8.2447  -10.3193    9.7868 O   0  0  0  0  0  0  0  0  0  0  0  0
   -9.7421   -8.5055    9.1706 C   0  0  1  0  0  0  0  0  0  0  0  0
  -10.2453   -7.2454    9.6323 O   0  0  0  0  0  0  0  0  0  0  0  0
   -8.7634   -8.1733    8.0573 C   0  0  1  0  0  0  0  0  0  0  0  0
   -8.8300   -9.1980    7.0611 O   0  0  0  0  0  0  0  0  0  0  0  0
   -9.2758   -6.8448    7.5253 C   0  0  1  0  0  0  0  0  0  0  0  0
  -10.3503   -7.0555    6.5982 O   0  0  0  0  0  0  0  0  0  0  0  0
   -9.8969   -6.1811    8.7383 C   0  0  2  0  0  0  0  0  0  0  0  0
   -7.7207   -5.5645   13.3144 N   0  0  0  0  0  0  0  0  0  0  0  0
   -8.6336   -6.4783   12.9132 C   0  0  1  0  0  0  0  0  0  0  0  0
   -9.0773   -7.3999   13.7977 N   0  0  0  0  0  0  0  0  0  0  0  0
   -9.1055   -6.4805   11.6446 N   0  0  0  0  0  0  0  0  0  0  0  0
   -8.6577   -5.5543   10.7634 C   0  0  1  0  0  0  0  0  0  0  0  0
   -7.7270   -4.6085   11.1463 C   0  0  2  0  0  0  0  0  0  0  0  0
   -7.2577   -4.6283   12.4544 C   0  0  0  0  0  0  0  0  0  0  0  0
   -6.4174   -3.7925   12.8416 O   0  0  0  0  0  0  0  0  0  0  0  0
   -7.4826   -3.8308   10.0719 N   0  0  0  0  0  0  0  0  0  0  0  0
   -8.2392   -4.2914    9.0485 C   0  0  0  0  0  0  0  0  0  0  0  0
   -8.9449   -5.3389    9.4863 N   0  0  1  0  0  0  0  0  0  0  0  0
  1  2  1  6  0  0  0
  1  3  1  0  0  0  0
  1  4  2  0  0  0  0
  1  6  1  0  0  0  0
  5  6  1  0  0  0  0
  7  5  1  1  0  0  0
  7  8  1  0  0  0  0
  7  9  1  0  0  0  0
  9 10  1  6  0  0  0
  9 11  1  0  0  0  0
 11 12  1  6  0  0  0
 11 13  1  0  0  0  0
 13  8  1  1  0  0  0
 13 24  1  0  0  0  0
 14 15  1  0  0  0  0
 14 20  1  0  0  0  0
 15 16  1  1  0  0  0
 15 17  1  0  0  0  0
 18 17  1  6  0  0  0
 18 19  1  0  0  0  0
 18 24  1  0  0  0  0
 19 20  1  1  0  0  0
 19 22  1  0  0  0  0
 20 21  2  0  0  0  0
 22 23  1  0  0  0  0
 24 23  1  6  0  0  0
M  CHG  1   3  -1
M  END
>  <CHROM.1>
-178.24757905,-158.61110114,164.82430692,-5.90112731,-8.33252142,-7.64723021
10.31457161,-1.44106970,-1.14994332,0.31746528

>  <Name>
ligand

>  <RI>
0

>  <Rbt.Current_Directory>
/home/itssahil/PROJECTS/Mol_Feturizer/New_Systems/rnas/3SLQ

>  <Rbt.Executable>
rbdock ($Id: //depot/dev/client3/rdock/2013.1/src/exe/rbdock.cxx#4 $)

>  <Rbt.Library>
libRbt.so (2013.1, Build901 2013/11/27)

>  <Rbt.Parameter_File>
/export/apps/rDock/src/rDock_2013.1_src/data/scripts/dock_solv.prm

>  <Rbt.Receptor>
prm/pocket_docking_5.prm

>  <SCORE>
-12.6211

>  <SCORE.INTER>
-9.52315

>  <SCORE.INTER.CONST>
1

>  <SCORE.INTER.POLAR>
0

>  <SCORE.INTER.ROT>
4

>  <SCORE.INTER.SOLV>
12.6205

>  <SCORE.INTER.VDW>
-16.8223

>  <SCORE.INTER.norm>
-0.396798

>  <SCORE.INTRA>
-3.09796

>  <SCORE.INTRA.DIHEDRAL>
-9.47428

>  <SCORE.INTRA.DIHEDRAL.0>
13.2525

>  <SCORE.INTRA.POLAR>
0

>  <SCORE.INTRA.POLAR.0>
0

>  <SCORE.INTRA.REPUL>
0

>  <SCORE.INTRA.REPUL.0>
0

>  <SCORE.INTRA.SOLV>
1.80749

>  <SCORE.INTRA.SOLV.lig_0>
-70.7221

>  <SCORE.INTRA.VDW>
0.735432

>  <SCORE.INTRA.VDW.0>
-1.46337

>  <SCORE.INTRA.norm>
-0.129082

>  <SCORE.RESTR>
0

>  <SCORE.RESTR.CAVITY>
0

>  <SCORE.RESTR.norm>
0

>  <SCORE.SYSTEM>
0

>  <SCORE.SYSTEM.CONST>
0

>  <SCORE.SYSTEM.DIHEDRAL>
0

>  <SCORE.SYSTEM.SOLV>
0

>  <SCORE.SYSTEM.norm>
0

>  <SCORE.heavy>
24

>  <SCORE.norm>
-0.525879

>  <RMSD>
5.094

$$$$
ligand
 OpenBabel11021811483D
libRbt.so/2013.1/901 2013/11/27
 24 26  0  0  0  0  0  0  0  0999 V2000
   -6.9677  -11.1709   13.3352 P   0  0  1  0  0  0  0  0  0  0  0  0
   -7.7982  -12.1432   14.1454 O   0  0  0  0  0  0  0  0  0  0  0  0
   -6.5075   -9.9232   14.0517 O   0  5  0  0  0  0  0  0  0  0  0  0
   -5.8584  -11.8279   12.5274 O   0  0  0  0  0  0  0  0  0  0  0  0
   -8.7929  -11.3264   11.3457 C   0  0  0  0  0  0  0  0  0  0  0  0
   -8.0285  -10.5426   12.2783 O   0  0  0  0  0  0  0  0  0  0  0  0
   -9.7295  -10.4164   10.5455 C   0  0  1  0  0  0  0  0  0  0  0  0
  -10.5378   -9.5975   11.4000 O   0  0  0  0  0  0  0  0  0  0  0  0
   -9.0305   -9.4562    9.5984 C   0  0  1  0  0  0  0  0  0  0  0  0
   -8.8929  -10.0842    8.3203 O   0  0  0  0  0  0  0  0  0  0  0  0
   -9.9800   -8.2709    9.5375 C   0  0  1  0  0  0  0  0  0  0  0  0
  -11.0361   -8.5207    8.5991 O   0  0  0  0  0  0  0  0  0  0  0  0
  -10.6335   -8.2561   10.9051 C   0  0  2  0  0  0  0  0  0  0  0  0
   -6.8849   -4.8200   11.3504 N   0  0  0  0  0  0  0  0  0  0  0  0
   -7.3387   -5.4586   10.2478 C   0  0  1  0  0  0  0  0  0  0  0  0
   -6.7681   -5.1943    9.0507 N   0  0  0  0  0  0  0  0  0  0  0  0
   -8.3507   -6.3538   10.3286 N   0  0  0  0  0  0  0  0  0  0  0  0
   -8.9177   -6.6148   11.5308 C   0  0  1  0  0  0  0  0  0  0  0  0
   -8.4733   -5.9786   12.6732 C   0  0  2  0  0  0  0  0  0  0  0  0
   -7.4333   -5.0630   12.5631 C   0  0  0  0  0  0  0  0  0  0  0  0
   -7.0016   -4.4666   13.5694 O   0  0  0  0  0  0  0  0  0  0  0  0
   -9.2141   -6.4401   13.7013 N   0  0  0  0  0  0  0  0  0  0  0  0
  -10.0996   -7.3343   13.2030 C   0  0  0  0  0  0  0  0  0  0  0  0
   -9.9060   -7.4263   11.8836 N   0  0  1  0  0  0  0  0  0  0  0  0
  1  2  1  1  0  0  0
  1  3  1  0  0  0  0
  1  4  2  0  0  0  0
  1  6  1  0  0  0  0
  5  6  1  0  0  0  0
  7  5  1  1  0  0  0
  7  8  1  0  0  0  0
  7  9  1  0  0  0  0
  9 10  1  6  0  0  0
  9 11  1  0  0  0  0
 11 12  1  6  0  0  0
 11 13  1  0  0  0  0
 13  8  1  1  0  0  0
 13 24  1  0  0  0  0
 14 15  1  0  0  0  0
 14 20  1  0  0  0  0
 15 16  1  1  0  0  0
 15 17  1  0  0  0  0
 18 17  1  6  0  0  0
 18 19  1  0  0  0  0
 18 24  1  0  0  0  0
 19 20  1  1  0  0  0
 19 22  1  0  0  0  0
 20 21  2  0  0  0  0
 22 23  1  0  0  0  0
 24 23  1  6  0  0  0
M  CHG  1   3  -1
M  END
>  <CHROM.1>
-57.93179493,-53.00855708,177.74324431,125.50603729,-8.40723646,-8.45148482
11.63094734,-1.44987020,-0.96531994,-0.12605185

>  <Name>
ligand

>  <RI>
0

>  <Rbt.Current_Directory>
/home/itssahil/PROJECTS/Mol_Feturizer/New_Systems/rnas/3SLQ

>  <Rbt.Executable>
rbdock ($Id: //depot/dev/client3/rdock/2013.1/src/exe/rbdock.cxx#4 $)

>  <Rbt.Library>
libRbt.so (2013.1, Build901 2013/11/27)

>  <Rbt.Parameter_File>
/export/apps/rDock/src/rDock_2013.1_src/data/scripts/dock_solv.prm

>  <Rbt.Receptor>
prm/pocket_docking_5.prm

>  <SCORE>
-10.7961

>  <SCORE.INTER>
-5.35015

>  <SCORE.INTER.CONST>
1

>  <SCORE.INTER.POLAR>
0

>  <SCORE.INTER.ROT>
4

>  <SCORE.INTER.SOLV>
10.1944

>  <SCORE.INTER.VDW>
-13.2316

>  <SCORE.INTER.norm>
-0.222923

>  <SCORE.INTRA>
-5.44744

>  <SCORE.INTRA.DIHEDRAL>
-11.8501

>  <SCORE.INTRA.DIHEDRAL.0>
13.2525

>  <SCORE.INTRA.POLAR>
0

>  <SCORE.INTRA.POLAR.0>
0

>  <SCORE.INTRA.REPUL>
0

>  <SCORE.INTRA.REPUL.0>
0

>  <SCORE.INTRA.SOLV>
0.119778

>  <SCORE.INTRA.SOLV.lig_0>
-70.7221

>  <SCORE.INTRA.VDW>
0.417701

>  <SCORE.INTRA.VDW.0>
-1.46337

>  <SCORE.INTRA.norm>
-0.226977

>  <SCORE.RESTR>
0.00145219

>  <SCORE.RESTR.CAVITY>
0.00145219

>  <SCORE.RESTR.norm>
6.05079e-05

>  <SCORE.SYSTEM>
0

>  <SCORE.SYSTEM.CONST>
0

>  <SCORE.SYSTEM.DIHEDRAL>
0

>  <SCORE.SYSTEM.SOLV>
0

>  <SCORE.SYSTEM.norm>
0

>  <SCORE.heavy>
24

>  <SCORE.norm>
-0.449839

>  <RMSD>
5.174

$$$$
ligand
 OpenBabel11021811483D
libRbt.so/2013.1/901 2013/11/27
 24 26  0  0  0  0  0  0  0  0999 V2000
   -4.1120  -10.0457   14.8053 P   0  0  1  0  0  0  0  0  0  0  0  0
   -2.7001   -9.5698   14.5380 O   0  0  0  0  0  0  0  0  0  0  0  0
   -4.7583  -10.8713   13.7179 O   0  5  0  0  0  0  0  0  0  0  0  0
   -4.3132  -10.6388   16.1918 O   0  0  0  0  0  0  0  0  0  0  0  0
   -4.8307   -7.6755   13.7194 C   0  0  0  0  0  0  0  0  0  0  0  0
   -4.9996   -8.6881   14.7265 O   0  0  0  0  0  0  0  0  0  0  0  0
   -5.8935   -6.5864   13.8924 C   0  0  1  0  0  0  0  0  0  0  0  0
   -5.6871   -5.4904   12.9923 O   0  0  0  0  0  0  0  0  0  0  0  0
   -7.3222   -7.0464   13.6579 C   0  0  1  0  0  0  0  0  0  0  0  0
   -7.8763   -7.4886   14.9005 O   0  0  0  0  0  0  0  0  0  0  0  0
   -8.0158   -5.7914   13.1536 C   0  0  1  0  0  0  0  0  0  0  0  0
   -8.4031   -4.9550   14.2531 O   0  0  0  0  0  0  0  0  0  0  0  0
   -6.9219   -5.0383   12.4229 C   0  0  2  0  0  0  0  0  0  0  0  0
   -7.9503   -8.7326    9.0537 N   0  0  0  0  0  0  0  0  0  0  0  0
   -8.1310   -8.7174   10.3941 C   0  0  1  0  0  0  0  0  0  0  0  0
   -8.6635   -9.8026   11.0003 N   0  0  0  0  0  0  0  0  0  0  0  0
   -7.7867   -7.6354   11.1309 N   0  0  0  0  0  0  0  0  0  0  0  0
   -7.2532   -6.5517   10.5179 C   0  0  1  0  0  0  0  0  0  0  0  0
   -7.0561   -6.5404    9.1511 C   0  0  2  0  0  0  0  0  0  0  0  0
   -7.4188   -7.6637    8.4171 C   0  0  0  0  0  0  0  0  0  0  0  0
   -7.2577   -7.6953    7.1811 O   0  0  0  0  0  0  0  0  0  0  0  0
   -6.5126   -5.3470    8.8357 N   0  0  0  0  0  0  0  0  0  0  0  0
   -6.3849   -4.6364    9.9806 C   0  0  0  0  0  0  0  0  0  0  0  0
   -6.8410   -5.3831   10.9913 N   0  0  1  0  0  0  0  0  0  0  0  0
  1  2  1  6  0  0  0
  1  3  1  0  0  0  0
  1  4  2  0  0  0  0
  1  6  1  0  0  0  0
  5  6  1  0  0  0  0
  7  5  1  6  0  0  0
  7  8  1  0  0  0  0
  7  9  1  0  0  0  0
  9 10  1  1  0  0  0
  9 11  1  0  0  0  0
 11 12  1  1  0  0  0
 11 13  1  0  0  0  0
 13  8  1  1  0  0  0
 13 24  1  0  0  0  0
 14 15  1  0  0  0  0
 14 20  1  0  0  0  0
 15 16  1  1  0  0  0
 15 17  1  0  0  0  0
 18 17  1  6  0  0  0
 18 19  1  0  0  0  0
 18 24  1  0  0  0  0
 19 20  1  1  0  0  0
 19 22  1  0  0  0  0
 20 21  2  0  0  0  0
 22 23  1  0  0  0  0
 24 23  1  6  0  0  0
M  CHG  1   3  -1
M  END
>  <CHROM.1>
43.15724840,174.38569920,176.19416984,89.29765867,-6.36806920,-7.63081604
12.31895509,-0.42074810,1.08009753,-2.17903798

>  <Name>
ligand

>  <RI>
0

>  <Rbt.Current_Directory>
/home/itssahil/PROJECTS/Mol_Feturizer/New_Systems/rnas/3SLQ

>  <Rbt.Executable>
rbdock ($Id: //depot/dev/client3/rdock/2013.1/src/exe/rbdock.cxx#4 $)

>  <Rbt.Library>
libRbt.so (2013.1, Build901 2013/11/27)

>  <Rbt.Parameter_File>
/export/apps/rDock/src/rDock_2013.1_src/data/scripts/dock_solv.prm

>  <Rbt.Receptor>
prm/pocket_docking_4.prm

>  <SCORE>
-9.79564

>  <SCORE.INTER>
-5.34457

>  <SCORE.INTER.CONST>
1

>  <SCORE.INTER.POLAR>
0

>  <SCORE.INTER.ROT>
4

>  <SCORE.INTER.SOLV>
7.48947

>  <SCORE.INTER.VDW>
-12.3262

>  <SCORE.INTER.norm>
-0.222691

>  <SCORE.INTRA>
-4.45236

>  <SCORE.INTRA.DIHEDRAL>
-11.4119

>  <SCORE.INTRA.DIHEDRAL.0>
13.2525

>  <SCORE.INTRA.POLAR>
0

>  <SCORE.INTRA.POLAR.0>
0

>  <SCORE.INTRA.REPUL>
0

>  <SCORE.INTRA.REPUL.0>
0

>  <SCORE.INTRA.SOLV>
0.749035

>  <SCORE.INTRA.SOLV.lig_0>
-70.7221

>  <SCORE.INTRA.VDW>
0.879073

>  <SCORE.INTRA.VDW.0>
-1.46337

>  <SCORE.INTRA.norm>
-0.185515

>  <SCORE.RESTR>
0.0012994

>  <SCORE.RESTR.CAVITY>
0.0012994

>  <SCORE.RESTR.norm>
5.41418e-05

>  <SCORE.SYSTEM>
0

>  <SCORE.SYSTEM.CONST>
0

>  <SCORE.SYSTEM.DIHEDRAL>
0

>  <SCORE.SYSTEM.SOLV>
0

>  <SCORE.SYSTEM.norm>
0

>  <SCORE.heavy>
24

>  <SCORE.norm>
-0.408152

>  <RMSD>
5.219

$$$$
ligand
 OpenBabel11021811483D
libRbt.so/2013.1/901 2013/11/27
 24 26  0  0  0  0  0  0  0  0999 V2000
  -12.5134   -5.7745   16.8911 P   0  0  1  0  0  0  0  0  0  0  0  0
  -11.9431   -4.3801   16.7434 O   0  0  0  0  0  0  0  0  0  0  0  0
  -12.5412   -6.3426   18.2906 O   0  5  0  0  0  0  0  0  0  0  0  0
  -13.8199   -5.9915   16.1425 O   0  0  0  0  0  0  0  0  0  0  0  0
  -10.9567   -6.5876   14.8346 C   0  0  0  0  0  0  0  0  0  0  0  0
  -11.3948   -6.7257   16.1974 O   0  0  0  0  0  0  0  0  0  0  0  0
   -9.8091   -7.5626   14.5552 C   0  0  1  0  0  0  0  0  0  0  0  0
   -9.2939   -7.4147   13.2259 O   0  0  0  0  0  0  0  0  0  0  0  0
   -8.6109   -7.4188   15.4779 C   0  0  1  0  0  0  0  0  0  0  0  0
   -8.7884   -8.2814   16.6053 O   0  0  0  0  0  0  0  0  0  0  0  0
   -7.4456   -7.8671   14.6111 C   0  0  1  0  0  0  0  0  0  0  0  0
   -7.3445   -9.2982   14.6060 O   0  0  0  0  0  0  0  0  0  0  0  0
   -7.8623   -7.4744   13.2076 C   0  0  2  0  0  0  0  0  0  0  0  0
   -7.7159   -4.1612    9.3271 N   0  0  0  0  0  0  0  0  0  0  0  0
   -8.2012   -5.4232    9.3616 C   0  0  1  0  0  0  0  0  0  0  0  0
   -8.7490   -5.9502    8.2432 N   0  0  0  0  0  0  0  0  0  0  0  0
   -8.1447   -6.1602   10.4955 N   0  0  0  0  0  0  0  0  0  0  0  0
   -7.5942   -5.6270   11.6124 C   0  0  1  0  0  0  0  0  0  0  0  0
   -7.0895   -4.3416   11.6053 C   0  0  2  0  0  0  0  0  0  0  0  0
   -7.1603   -3.6054   10.4284 C   0  0  0  0  0  0  0  0  0  0  0  0
   -6.7164   -2.4413   10.3785 O   0  0  0  0  0  0  0  0  0  0  0  0
   -6.6088   -4.0943   12.8409 N   0  0  0  0  0  0  0  0  0  0  0  0
   -6.8193   -5.1989   13.5941 C   0  0  0  0  0  0  0  0  0  0  0  0
   -7.4198   -6.1186   12.8321 N   0  0  1  0  0  0  0  0  0  0  0  0
  1  2  1  6  0  0  0
  1  3  1  0  0  0  0
  1  4  2  0  0  0  0
  1  6  1  0  0  0  0
  5  6  1  0  0  0  0
  7  5  1  1  0  0  0
  7  8  1  0  0  0  0
  7  9  1  0  0  0  0
  9 10  1  1  0  0  0
  9 11  1  0  0  0  0
 11 12  1  6  0  0  0
 11 13  1  0  0  0  0
 13  8  1  1  0  0  0
 13 24  1  0  0  0  0
 14 15  1  0  0  0  0
 14 20  1  0  0  0  0
 15 16  1  6  0  0  0
 15 17  1  0  0  0  0
 18 17  1  1  0  0  0
 18 19  1  0  0  0  0
 18 24  1  0  0  0  0
 19 20  1  6  0  0  0
 19 22  1  0  0  0  0
 20 21  2  0  0  0  0
 22 23  1  0  0  0  0
 24 23  1  1  0  0  0
M  CHG  1   3  -1
M  END
>  <CHROM.1>
-57.83706353,-177.10843683,174.90027475,-70.14416090,-9.21774564,-6.02993479
13.71760878,2.33364039,-0.61770608,2.32638423

>  <Name>
ligand

>  <RI>
0

>  <Rbt.Current_Directory>
/home/itssahil/PROJECTS/Mol_Feturizer/New_Systems/rnas/3SLQ

>  <Rbt.Executable>
rbdock ($Id: //depot/dev/client3/rdock/2013.1/src/exe/rbdock.cxx#4 $)

>  <Rbt.Library>
libRbt.so (2013.1, Build901 2013/11/27)

>  <Rbt.Parameter_File>
/export/apps/rDock/src/rDock_2013.1_src/data/scripts/dock_solv.prm

>  <Rbt.Receptor>
prm/pocket_docking_7.prm

>  <SCORE>
-15.0596

>  <SCORE.INTER>
-8.90491

>  <SCORE.INTER.CONST>
1

>  <SCORE.INTER.POLAR>
0

>  <SCORE.INTER.ROT>
4

>  <SCORE.INTER.SOLV>
10.9709

>  <SCORE.INTER.VDW>
-15.8602

>  <SCORE.INTER.norm>
-0.371038

>  <SCORE.INTRA>
-6.17563

>  <SCORE.INTRA.DIHEDRAL>
-11.8962

>  <SCORE.INTRA.DIHEDRAL.0>
13.2525

>  <SCORE.INTRA.POLAR>
0

>  <SCORE.INTRA.POLAR.0>
0

>  <SCORE.INTRA.REPUL>
0

>  <SCORE.INTRA.REPUL.0>
0

>  <SCORE.INTRA.SOLV>
0.0513683

>  <SCORE.INTRA.SOLV.lig_0>
-70.7221

>  <SCORE.INTRA.VDW>
-0.253209

>  <SCORE.INTRA.VDW.0>
-1.46337

>  <SCORE.INTRA.norm>
-0.257318

>  <SCORE.RESTR>
0.0209274

>  <SCORE.RESTR.CAVITY>
0.0209274

>  <SCORE.RESTR.norm>
0.000871974

>  <SCORE.SYSTEM>
0

>  <SCORE.SYSTEM.CONST>
0

>  <SCORE.SYSTEM.DIHEDRAL>
0

>  <SCORE.SYSTEM.SOLV>
0

>  <SCORE.SYSTEM.norm>
0

>  <SCORE.heavy>
24

>  <SCORE.norm>
-0.627484

>  <RMSD>
5.250

$$$$
ligand
 OpenBabel11021811483D
libRbt.so/2013.1/901 2013/11/27
 24 26  0  0  0  0  0  0  0  0999 V2000
   -8.4820  -10.7696   11.6682 P   0  0  1  0  0  0  0  0  0  0  0  0
   -9.6227  -11.0643   12.6187 O   0  0  0  0  0  0  0  0  0  0  0  0
   -7.4813   -9.7335   12.1228 O   0  5  0  0  0  0  0  0  0  0  0  0
   -7.8206  -12.0122   11.0909 O   0  0  0  0  0  0  0  0  0  0  0  0
   -8.5632   -9.7343    9.1712 C   0  0  0  0  0  0  0  0  0  0  0  0
   -9.1958   -9.9860   10.4379 O   0  0  0  0  0  0  0  0  0  0  0  0
   -9.3602   -8.6850    8.3904 C   0  0  1  0  0  0  0  0  0  0  0  0
   -9.9838   -7.7316    9.2600 O   0  0  0  0  0  0  0  0  0  0  0  0
   -8.5438   -7.8679    7.4038 C   0  0  1  0  0  0  0  0  0  0  0  0
   -8.5640   -8.5225    6.1319 O   0  0  0  0  0  0  0  0  0  0  0  0
   -9.2785   -6.5381    7.3579 C   0  0  1  0  0  0  0  0  0  0  0  0
  -10.3965   -6.6123    6.4618 O   0  0  0  0  0  0  0  0  0  0  0  0
   -9.8676   -6.3984    8.7476 C   0  0  2  0  0  0  0  0  0  0  0  0
   -8.5580   -6.0837   13.6712 N   0  0  0  0  0  0  0  0  0  0  0  0
   -9.4923   -6.8617   13.0787 C   0  0  1  0  0  0  0  0  0  0  0  0
  -10.2217   -7.7107   13.8374 N   0  0  0  0  0  0  0  0  0  0  0  0
   -9.7045   -6.8002   11.7432 N   0  0  0  0  0  0  0  0  0  0  0  0
   -8.9711   -5.9473   10.9886 C   0  0  1  0  0  0  0  0  0  0  0  0
   -8.0116   -5.1401   11.5674 C   0  0  2  0  0  0  0  0  0  0  0  0
   -7.8126   -5.2230   12.9406 C   0  0  0  0  0  0  0  0  0  0  0  0
   -6.9567   -4.5120   13.5034 O   0  0  0  0  0  0  0  0  0  0  0  0
   -7.4586   -4.4061   10.5803 N   0  0  0  0  0  0  0  0  0  0  0  0
   -8.0580   -4.7583    9.4190 C   0  0  0  0  0  0  0  0  0  0  0  0
   -8.9725   -5.6961    9.6861 N   0  0  1  0  0  0  0  0  0  0  0  0
  1  2  1  1  0  0  0
  1  3  1  0  0  0  0
  1  4  2  0  0  0  0
  1  6  1  0  0  0  0
  5  6  1  0  0  0  0
  7  5  1  1  0  0  0
  7  8  1  0  0  0  0
  7  9  1  0  0  0  0
  9 10  1  6  0  0  0
  9 11  1  0  0  0  0
 11 12  1  6  0  0  0
 11 13  1  0  0  0  0
 13  8  1  1  0  0  0
 13 24  1  0  0  0  0
 14 15  1  0  0  0  0
 14 20  1  0  0  0  0
 15 16  1  1  0  0  0
 15 17  1  0  0  0  0
 18 17  1  6  0  0  0
 18 19  1  0  0  0  0
 18 24  1  0  0  0  0
 19 20  1  1  0  0  0
 19 22  1  0  0  0  0
 20 21  2  0  0  0  0
 22 23  1  0  0  0  0
 24 23  1  6  0  0  0
M  CHG  1   3  -1
M  END
>  <CHROM.1>
-167.15984115,32.47209554,-165.60755259,-34.79832667,-8.79382441,-7.72109032
10.53486711,0.30262753,1.42387904,2.78489134

>  <Name>
ligand

>  <RI>
0

>  <Rbt.Current_Directory>
/home/itssahil/PROJECTS/Mol_Feturizer/New_Systems/rnas/3SLQ

>  <Rbt.Executable>
rbdock ($Id: //depot/dev/client3/rdock/2013.1/src/exe/rbdock.cxx#4 $)

>  <Rbt.Library>
libRbt.so (2013.1, Build901 2013/11/27)

>  <Rbt.Parameter_File>
/export/apps/rDock/src/rDock_2013.1_src/data/scripts/dock_solv.prm

>  <Rbt.Receptor>
prm/pocket_docking_6.prm

>  <SCORE>
-12.8193

>  <SCORE.INTER>
-9.52554

>  <SCORE.INTER.CONST>
1

>  <SCORE.INTER.POLAR>
0

>  <SCORE.INTER.ROT>
4

>  <SCORE.INTER.SOLV>
15.2065

>  <SCORE.INTER.VDW>
-17.6859

>  <SCORE.INTER.norm>
-0.396897

>  <SCORE.INTRA>
-3.29376

>  <SCORE.INTRA.DIHEDRAL>
-8.49147

>  <SCORE.INTRA.DIHEDRAL.0>
13.2525

>  <SCORE.INTRA.POLAR>
0

>  <SCORE.INTRA.POLAR.0>
0

>  <SCORE.INTRA.REPUL>
0

>  <SCORE.INTRA.REPUL.0>
0

>  <SCORE.INTRA.SOLV>
3.52811

>  <SCORE.INTRA.SOLV.lig_0>
-70.7221

>  <SCORE.INTRA.VDW>
-0.812086

>  <SCORE.INTRA.VDW.0>
-1.46337

>  <SCORE.INTRA.norm>
-0.13724

>  <SCORE.RESTR>
0

>  <SCORE.RESTR.CAVITY>
0

>  <SCORE.RESTR.norm>
0

>  <SCORE.SYSTEM>
0

>  <SCORE.SYSTEM.CONST>
0

>  <SCORE.SYSTEM.DIHEDRAL>
0

>  <SCORE.SYSTEM.SOLV>
0

>  <SCORE.SYSTEM.norm>
0

>  <SCORE.heavy>
24

>  <SCORE.norm>
-0.534138

>  <RMSD>
5.325

$$$$
ligand
 OpenBabel11021811483D
libRbt.so/2013.1/901 2013/11/27
 24 26  0  0  0  0  0  0  0  0999 V2000
   -9.7139   -8.9325    7.1515 P   0  0  1  0  0  0  0  0  0  0  0  0
   -9.1620  -10.0122    6.2453 O   0  0  0  0  0  0  0  0  0  0  0  0
   -9.5203   -7.5070    6.6908 O   0  5  0  0  0  0  0  0  0  0  0  0
  -11.1263   -9.2033    7.6478 O   0  0  0  0  0  0  0  0  0  0  0  0
   -8.3614  -10.1780    9.1347 C   0  0  0  0  0  0  0  0  0  0  0  0
   -8.7313   -8.9721    8.4438 O   0  0  0  0  0  0  0  0  0  0  0  0
   -7.2892   -9.8691   10.1838 C   0  0  1  0  0  0  0  0  0  0  0  0
   -6.4475   -8.7804    9.7832 O   0  0  0  0  0  0  0  0  0  0  0  0
   -7.8269   -9.4896   11.5530 C   0  0  1  0  0  0  0  0  0  0  0  0
   -7.9585  -10.6746   12.3436 O   0  0  0  0  0  0  0  0  0  0  0  0
   -6.7541   -8.5663   12.1070 C   0  0  1  0  0  0  0  0  0  0  0  0
   -5.6795   -9.3284   12.6750 O   0  0  0  0  0  0  0  0  0  0  0  0
   -6.1811   -7.8925   10.8760 C   0  0  2  0  0  0  0  0  0  0  0  0
   -5.4543   -3.2723    8.8311 N   0  0  0  0  0  0  0  0  0  0  0  0
   -4.5635   -4.2675    9.0439 C   0  0  1  0  0  0  0  0  0  0  0  0
   -3.2733   -4.0867    8.6816 N   0  0  0  0  0  0  0  0  0  0  0  0
   -4.9463   -5.4349    9.6122 N   0  0  0  0  0  0  0  0  0  0  0  0
   -6.2400   -5.6097    9.9735 C   0  0  1  0  0  0  0  0  0  0  0  0
   -7.1705   -4.6098    9.7695 C   0  0  2  0  0  0  0  0  0  0  0  0
   -6.7521   -3.4209    9.1834 C   0  0  0  0  0  0  0  0  0  0  0  0
   -7.5595   -2.4925    8.9814 O   0  0  0  0  0  0  0  0  0  0  0  0
   -8.3539   -5.0656   10.2286 N   0  0  0  0  0  0  0  0  0  0  0  0
   -8.1588   -6.3202   10.6977 C   0  0  0  0  0  0  0  0  0  0  0  0
   -6.8698   -6.6342   10.5333 N   0  0  1  0  0  0  0  0  0  0  0  0
  1  2  1  6  0  0  0
  1  3  1  0  0  0  0
  1  4  2  0  0  0  0
  1  6  1  0  0  0  0
  5  6  1  0  0  0  0
  7  5  1  6  0  0  0
  7  8  1  0  0  0  0
  7  9  1  0  0  0  0
  9 10  1  1  0  0  0
  9 11  1  0  0  0  0
 11 12  1  6  0  0  0
 11 13  1  0  0  0  0
 13  8  1  6  0  0  0
 13 24  1  0  0  0  0
 14 15  1  0  0  0  0
 14 20  1  0  0  0  0
 15 16  1  1  0  0  0
 15 17  1  0  0  0  0
 18 17  1  6  0  0  0
 18 19  1  0  0  0  0
 18 24  1  0  0  0  0
 19 20  1  1  0  0  0
 19 22  1  0  0  0  0
 20 21  2  0  0  0  0
 22 23  1  0  0  0  0
 24 23  1  6  0  0  0
M  CHG  1   3  -1
M  END
>  <CHROM.1>
-48.17300594,-31.12775823,172.75827707,-97.29162117,-7.43896401,-7.29620288
9.43816578,2.40844325,0.82053119,2.58282618

>  <Name>
ligand

>  <RI>
0

>  <Rbt.Current_Directory>
/home/itssahil/PROJECTS/Mol_Feturizer/New_Systems/rnas/3SLQ

>  <Rbt.Executable>
rbdock ($Id: //depot/dev/client3/rdock/2013.1/src/exe/rbdock.cxx#4 $)

>  <Rbt.Library>
libRbt.so (2013.1, Build901 2013/11/27)

>  <Rbt.Parameter_File>
/export/apps/rDock/src/rDock_2013.1_src/data/scripts/dock_solv.prm

>  <Rbt.Receptor>
prm/pocket_docking_7.prm

>  <SCORE>
-15.6349

>  <SCORE.INTER>
-10.3683

>  <SCORE.INTER.CONST>
1

>  <SCORE.INTER.POLAR>
0

>  <SCORE.INTER.ROT>
4

>  <SCORE.INTER.SOLV>
27.1994

>  <SCORE.INTER.VDW>
-22.2454

>  <SCORE.INTER.norm>
-0.432014

>  <SCORE.INTRA>
-5.26652

>  <SCORE.INTRA.DIHEDRAL>
-9.10804

>  <SCORE.INTRA.DIHEDRAL.0>
13.2525

>  <SCORE.INTRA.POLAR>
0

>  <SCORE.INTRA.POLAR.0>
0

>  <SCORE.INTRA.REPUL>
0

>  <SCORE.INTRA.REPUL.0>
0

>  <SCORE.INTRA.SOLV>
-0.173268

>  <SCORE.INTRA.SOLV.lig_0>
-70.7221

>  <SCORE.INTRA.VDW>
-0.625863

>  <SCORE.INTRA.VDW.0>
-1.46337

>  <SCORE.INTRA.norm>
-0.219438

>  <SCORE.RESTR>
0

>  <SCORE.RESTR.CAVITY>
0

>  <SCORE.RESTR.norm>
0

>  <SCORE.SYSTEM>
0

>  <SCORE.SYSTEM.CONST>
0

>  <SCORE.SYSTEM.DIHEDRAL>
0

>  <SCORE.SYSTEM.SOLV>
0

>  <SCORE.SYSTEM.norm>
0

>  <SCORE.heavy>
24

>  <SCORE.norm>
-0.651452

>  <RMSD>
5.341

$$$$
ligand
 OpenBabel11021811483D
libRbt.so/2013.1/901 2013/11/27
 24 26  0  0  0  0  0  0  0  0999 V2000
  -11.8052   -6.5779    7.3055 P   0  0  1  0  0  0  0  0  0  0  0  0
  -11.9126   -6.5937    5.7956 O   0  0  0  0  0  0  0  0  0  0  0  0
  -11.7713   -5.2174    7.9610 O   0  5  0  0  0  0  0  0  0  0  0  0
  -12.7515   -7.5433    8.0034 O   0  0  0  0  0  0  0  0  0  0  0  0
   -9.7797   -8.3635    7.1541 C   0  0  0  0  0  0  0  0  0  0  0  0
  -10.2917   -7.0927    7.5914 O   0  0  0  0  0  0  0  0  0  0  0  0
   -8.4620   -8.6690    7.8725 C   0  0  1  0  0  0  0  0  0  0  0  0
   -7.4408   -7.7189    7.5428 O   0  0  0  0  0  0  0  0  0  0  0  0
   -8.5475   -8.6696    9.3892 C   0  0  1  0  0  0  0  0  0  0  0  0
   -8.8532   -9.9941    9.8353 O   0  0  0  0  0  0  0  0  0  0  0  0
   -7.1527   -8.2449    9.8188 C   0  0  1  0  0  0  0  0  0  0  0  0
   -6.2603   -9.3682    9.8097 O   0  0  0  0  0  0  0  0  0  0  0  0
   -6.6874   -7.3346    8.6996 C   0  0  2  0  0  0  0  0  0  0  0  0
   -4.6363   -2.6868    9.1963 N   0  0  0  0  0  0  0  0  0  0  0  0
   -4.0272   -3.8780    8.9980 C   0  0  1  0  0  0  0  0  0  0  0  0
   -2.6792   -3.9216    8.9004 N   0  0  0  0  0  0  0  0  0  0  0  0
   -4.7471   -5.0198    8.8971 N   0  0  0  0  0  0  0  0  0  0  0  0
   -6.0971   -4.9697    8.9963 C   0  0  1  0  0  0  0  0  0  0  0  0
   -6.7451   -3.7674    9.2004 C   0  0  2  0  0  0  0  0  0  0  0  0
   -5.9830   -2.6092    9.2996 C   0  0  0  0  0  0  0  0  0  0  0  0
   -6.5279   -1.5030    9.4840 O   0  0  0  0  0  0  0  0  0  0  0  0
   -8.0663   -4.0311    9.2621 N   0  0  0  0  0  0  0  0  0  0  0  0
   -8.2293   -5.3640    9.0922 C   0  0  0  0  0  0  0  0  0  0  0  0
   -7.0231   -5.9173    8.9309 N   0  0  1  0  0  0  0  0  0  0  0  0
  1  2  1  6  0  0  0
  1  3  1  0  0  0  0
  1  4  2  0  0  0  0
  1  6  1  0  0  0  0
  5  6  1  0  0  0  0
  7  5  1  6  0  0  0
  7  8  1  0  0  0  0
  7  9  1  0  0  0  0
  9 10  1  1  0  0  0
  9 11  1  0  0  0  0
 11 12  1  6  0  0  0
 11 13  1  0  0  0  0
 13  8  1  6  0  0  0
 13 24  1  0  0  0  0
 14 15  1  0  0  0  0
 14 20  1  0  0  0  0
 15 16  1  1  0  0  0
 15 17  1  0  0  0  0
 18 17  1  6  0  0  0
 18 19  1  0  0  0  0
 18 24  1  0  0  0  0
 19 20  1  1  0  0  0
 19 22  1  0  0  0  0
 20 21  2  0  0  0  0
 22 23  1  0  0  0  0
 24 23  1  6  0  0  0
M  CHG  1   3  -1
M  END
>  <CHROM.1>
-58.55410114,-63.53162605,-166.23858007,-124.10563995,-8.08367723,-6.13691914
8.52919892,2.61708117,0.29227414,3.06500705

>  <Name>
ligand

>  <RI>
0

>  <Rbt.Current_Directory>
/home/itssahil/PROJECTS/Mol_Feturizer/New_Systems/rnas/3SLQ

>  <Rbt.Executable>
rbdock ($Id: //depot/dev/client3/rdock/2013.1/src/exe/rbdock.cxx#4 $)

>  <Rbt.Library>
libRbt.so (2013.1, Build901 2013/11/27)

>  <Rbt.Parameter_File>
/export/apps/rDock/src/rDock_2013.1_src/data/scripts/dock_solv.prm

>  <Rbt.Receptor>
prm/pocket_docking_5.prm

>  <SCORE>
-17.6232

>  <SCORE.INTER>
-11.1747

>  <SCORE.INTER.CONST>
1

>  <SCORE.INTER.POLAR>
0

>  <SCORE.INTER.ROT>
4

>  <SCORE.INTER.SOLV>
26.6933

>  <SCORE.INTER.VDW>
-22.6142

>  <SCORE.INTER.norm>
-0.465611

>  <SCORE.INTRA>
-6.44853

>  <SCORE.INTRA.DIHEDRAL>
-11.1023

>  <SCORE.INTRA.DIHEDRAL.0>
13.2525

>  <SCORE.INTRA.POLAR>
0

>  <SCORE.INTRA.POLAR.0>
0

>  <SCORE.INTRA.REPUL>
0

>  <SCORE.INTRA.REPUL.0>
0

>  <SCORE.INTRA.SOLV>
0.214658

>  <SCORE.INTRA.SOLV.lig_0>
-70.7221

>  <SCORE.INTRA.VDW>
-1.0047

>  <SCORE.INTRA.VDW.0>
-1.46337

>  <SCORE.INTRA.norm>
-0.268689

>  <SCORE.RESTR>
0

>  <SCORE.RESTR.CAVITY>
0

>  <SCORE.RESTR.norm>
0

>  <SCORE.SYSTEM>
0

>  <SCORE.SYSTEM.CONST>
0

>  <SCORE.SYSTEM.DIHEDRAL>
0

>  <SCORE.SYSTEM.SOLV>
0

>  <SCORE.SYSTEM.norm>
0

>  <SCORE.heavy>
24

>  <SCORE.norm>
-0.7343

>  <RMSD>
5.446

$$$$
ligand
 OpenBabel11021811483D
libRbt.so/2013.1/901 2013/11/27
 24 26  0  0  0  0  0  0  0  0999 V2000
   -5.9304   -9.9581   11.6590 P   0  0  1  0  0  0  0  0  0  0  0  0
   -6.0617   -9.9930   13.1666 O   0  0  0  0  0  0  0  0  0  0  0  0
   -4.5326  -10.1004   11.1043 O   0  5  0  0  0  0  0  0  0  0  0  0
   -6.9438  -10.8271   10.9291 O   0  0  0  0  0  0  0  0  0  0  0  0
   -5.5905   -7.2835   11.8702 C   0  0  0  0  0  0  0  0  0  0  0  0
   -6.2546   -8.4132   11.2778 O   0  0  0  0  0  0  0  0  0  0  0  0
   -6.1179   -5.9857   11.2510 C   0  0  1  0  0  0  0  0  0  0  0  0
   -5.9557   -5.9686    9.8271 O   0  0  0  0  0  0  0  0  0  0  0  0
   -7.5916   -5.7133   11.4993 C   0  0  1  0  0  0  0  0  0  0  0  0
   -7.7249   -4.9463   12.6997 O   0  0  0  0  0  0  0  0  0  0  0  0
   -8.0106   -4.9127   10.2771 C   0  0  1  0  0  0  0  0  0  0  0  0
   -7.6667   -3.5295   10.4403 O   0  0  0  0  0  0  0  0  0  0  0  0
   -7.1143   -5.4369    9.1727 C   0  0  2  0  0  0  0  0  0  0  0  0
  -11.3929   -7.0403    6.8967 N   0  0  0  0  0  0  0  0  0  0  0  0
  -11.1473   -5.8779    7.5434 C   0  0  1  0  0  0  0  0  0  0  0  0
  -12.1301   -4.9537    7.6353 N   0  0  0  0  0  0  0  0  0  0  0  0
   -9.9368   -5.6311    8.0964 N   0  0  0  0  0  0  0  0  0  0  0  0
   -8.9565   -6.5612    8.0015 C   0  0  1  0  0  0  0  0  0  0  0  0
   -9.1801   -7.7573    7.3485 C   0  0  2  0  0  0  0  0  0  0  0  0
  -10.4315   -7.9860    6.7885 C   0  0  0  0  0  0  0  0  0  0  0  0
  -10.6756   -9.0524    6.1903 O   0  0  0  0  0  0  0  0  0  0  0  0
   -8.0385   -8.4718    7.4217 N   0  0  0  0  0  0  0  0  0  0  0  0
   -7.1302   -7.7301    8.0974 C   0  0  0  0  0  0  0  0  0  0  0  0
   -7.7047   -6.5728    8.4404 N   0  0  1  0  0  0  0  0  0  0  0  0
  1  2  1  1  0  0  0
  1  3  1  0  0  0  0
  1  4  2  0  0  0  0
  1  6  1  0  0  0  0
  5  6  1  0  0  0  0
  7  5  1  6  0  0  0
  7  8  1  0  0  0  0
  7  9  1  0  0  0  0
  9 10  1  1  0  0  0
  9 11  1  0  0  0  0
 11 12  1  1  0  0  0
 11 13  1  0  0  0  0
 13  8  1  1  0  0  0
 13 24  1  0  0  0  0
 14 15  1  0  0  0  0
 14 20  1  0  0  0  0
 15 16  1  1  0  0  0
 15 17  1  0  0  0  0
 18 17  1  6  0  0  0
 18 19  1  0  0  0  0
 18 24  1  0  0  0  0
 19 20  1  1  0  0  0
 19 22  1  0  0  0  0
 20 21  2  0  0  0  0
 22 23  1  0  0  0  0
 24 23  1  6  0  0  0
M  CHG  1   3  -1
M  END
>  <CHROM.1>
52.96470787,-57.06521087,178.49881006,162.21872987,-7.83406281,-7.29768876
9.68586526,0.16537448,0.81954542,-2.85800430

>  <Name>
ligand

>  <RI>
0

>  <Rbt.Current_Directory>
/home/itssahil/PROJECTS/Mol_Feturizer/New_Systems/rnas/3SLQ

>  <Rbt.Executable>
rbdock ($Id: //depot/dev/client3/rdock/2013.1/src/exe/rbdock.cxx#4 $)

>  <Rbt.Library>
libRbt.so (2013.1, Build901 2013/11/27)

>  <Rbt.Parameter_File>
/export/apps/rDock/src/rDock_2013.1_src/data/scripts/dock_solv.prm

>  <Rbt.Receptor>
prm/pocket_docking_6.prm

>  <SCORE>
-13.1046

>  <SCORE.INTER>
-6.56637

>  <SCORE.INTER.CONST>
1

>  <SCORE.INTER.POLAR>
0

>  <SCORE.INTER.ROT>
4

>  <SCORE.INTER.SOLV>
13.8307

>  <SCORE.INTER.VDW>
-15.2545

>  <SCORE.INTER.norm>
-0.273599

>  <SCORE.INTRA>
-6.53825

>  <SCORE.INTRA.DIHEDRAL>
-11.947

>  <SCORE.INTRA.DIHEDRAL.0>
13.2525

>  <SCORE.INTRA.POLAR>
0

>  <SCORE.INTRA.POLAR.0>
0

>  <SCORE.INTRA.REPUL>
0

>  <SCORE.INTRA.REPUL.0>
0

>  <SCORE.INTRA.SOLV>
0.000551804

>  <SCORE.INTRA.SOLV.lig_0>
-70.7221

>  <SCORE.INTRA.VDW>
-0.565019

>  <SCORE.INTRA.VDW.0>
-1.46337

>  <SCORE.INTRA.norm>
-0.272427

>  <SCORE.RESTR>
0

>  <SCORE.RESTR.CAVITY>
0

>  <SCORE.RESTR.norm>
0

>  <SCORE.SYSTEM>
0

>  <SCORE.SYSTEM.CONST>
0

>  <SCORE.SYSTEM.DIHEDRAL>
0

>  <SCORE.SYSTEM.SOLV>
0

>  <SCORE.SYSTEM.norm>
0

>  <SCORE.heavy>
24

>  <SCORE.norm>
-0.546026

>  <RMSD>
5.624

$$$$
ligand
 OpenBabel11021811483D
libRbt.so/2013.1/901 2013/11/27
 24 26  0  0  0  0  0  0  0  0999 V2000
  -11.8829   -7.2074    6.9034 P   0  0  1  0  0  0  0  0  0  0  0  0
  -11.6919   -5.7730    6.4589 O   0  0  0  0  0  0  0  0  0  0  0  0
  -12.6882   -7.4170    8.1641 O   0  5  0  0  0  0  0  0  0  0  0  0
  -12.2875   -8.1539    5.7831 O   0  0  0  0  0  0  0  0  0  0  0  0
   -9.7801   -8.9017    7.0493 C   0  0  0  0  0  0  0  0  0  0  0  0
  -10.4056   -7.6569    7.4063 O   0  0  0  0  0  0  0  0  0  0  0  0
   -8.4732   -9.0705    7.8298 C   0  0  1  0  0  0  0  0  0  0  0  0
   -7.5321   -8.0329    7.5270 O   0  0  0  0  0  0  0  0  0  0  0  0
   -8.6265   -9.0570    9.3411 C   0  0  1  0  0  0  0  0  0  0  0  0
   -8.8261  -10.3978    9.7983 O   0  0  0  0  0  0  0  0  0  0  0  0
   -7.2986   -8.4958    9.8229 C   0  0  1  0  0  0  0  0  0  0  0  0
   -6.3050   -9.5295    9.8738 O   0  0  0  0  0  0  0  0  0  0  0  0
   -6.8710   -7.5620    8.7080 C   0  0  2  0  0  0  0  0  0  0  0  0
   -5.2919   -2.7307    9.1778 N   0  0  0  0  0  0  0  0  0  0  0  0
   -4.5652   -3.8612    9.0257 C   0  0  1  0  0  0  0  0  0  0  0  0
   -3.2165   -3.7769    8.9758 N   0  0  0  0  0  0  0  0  0  0  0  0
   -5.1687   -5.0685    8.9240 N   0  0  0  0  0  0  0  0  0  0  0  0
   -6.5201   -5.1465    8.9753 C   0  0  1  0  0  0  0  0  0  0  0  0
   -7.2868   -4.0086    9.1316 C   0  0  2  0  0  0  0  0  0  0  0  0
   -6.6428   -2.7810    9.2328 C   0  0  0  0  0  0  0  0  0  0  0  0
   -7.2970   -1.7291    9.3750 O   0  0  0  0  0  0  0  0  0  0  0  0
   -8.5782   -4.3969    9.1530 N   0  0  0  0  0  0  0  0  0  0  0  0
   -8.6071   -5.7420    9.0057 C   0  0  0  0  0  0  0  0  0  0  0  0
   -7.3485   -6.1797    8.8978 N   0  0  1  0  0  0  0  0  0  0  0  0
  1  2  1  6  0  0  0
  1  3  1  0  0  0  0
  1  4  2  0  0  0  0
  1  6  1  0  0  0  0
  5  6  1  0  0  0  0
  7  5  1  6  0  0  0
  7  8  1  0  0  0  0
  7  9  1  0  0  0  0
  9 10  1  1  0  0  0
  9 11  1  0  0  0  0
 11 12  1  6  0  0  0
 11 13  1  0  0  0  0
 13  8  1  6  0  0  0
 13 24  1  0  0  0  0
 14 15  1  0  0  0  0
 14 20  1  0  0  0  0
 15 16  1  1  0  0  0
 15 17  1  0  0  0  0
 18 17  1  6  0  0  0
 18 19  1  0  0  0  0
 18 24  1  0  0  0  0
 19 20  1  1  0  0  0
 19 22  1  0  0  0  0
 20 21  2  0  0  0  0
 22 23  1  0  0  0  0
 24 23  1  6  0  0  0
M  CHG  1   3  -1
M  END
>  <CHROM.1>
-133.96186866,-61.57518171,-173.20454124,-123.57878583,-8.34359623,-6.47923551
8.40381600,2.53136910,0.37427675,3.06138005

>  <Name>
ligand

>  <RI>
0

>  <Rbt.Current_Directory>
/home/itssahil/PROJECTS/Mol_Feturizer/New_Systems/rnas/3SLQ

>  <Rbt.Executable>
rbdock ($Id: //depot/dev/client3/rdock/2013.1/src/exe/rbdock.cxx#4 $)

>  <Rbt.Library>
libRbt.so (2013.1, Build901 2013/11/27)

>  <Rbt.Parameter_File>
/export/apps/rDock/src/rDock_2013.1_src/data/scripts/dock_solv.prm

>  <Rbt.Receptor>
prm/pocket_docking_6.prm

>  <SCORE>
-16.1772

>  <SCORE.INTER>
-10.7775

>  <SCORE.INTER.CONST>
1

>  <SCORE.INTER.POLAR>
0

>  <SCORE.INTER.ROT>
4

>  <SCORE.INTER.SOLV>
28.0548

>  <SCORE.INTER.VDW>
-22.8032

>  <SCORE.INTER.norm>
-0.449061

>  <SCORE.INTRA>
-5.39972

>  <SCORE.INTRA.DIHEDRAL>
-9.71763

>  <SCORE.INTRA.DIHEDRAL.0>
13.2525

>  <SCORE.INTRA.POLAR>
0

>  <SCORE.INTRA.POLAR.0>
0

>  <SCORE.INTRA.REPUL>
0

>  <SCORE.INTRA.REPUL.0>
0

>  <SCORE.INTRA.SOLV>
0.528073

>  <SCORE.INTRA.SOLV.lig_0>
-70.7221

>  <SCORE.INTRA.VDW>
-0.804947

>  <SCORE.INTRA.VDW.0>
-1.46337

>  <SCORE.INTRA.norm>
-0.224989

>  <SCORE.RESTR>
0

>  <SCORE.RESTR.CAVITY>
0

>  <SCORE.RESTR.norm>
0

>  <SCORE.SYSTEM>
0

>  <SCORE.SYSTEM.CONST>
0

>  <SCORE.SYSTEM.DIHEDRAL>
0

>  <SCORE.SYSTEM.SOLV>
0

>  <SCORE.SYSTEM.norm>
0

>  <SCORE.heavy>
24

>  <SCORE.norm>
-0.67405

>  <RMSD>
5.667

$$$$
ligand
 OpenBabel11021811483D
libRbt.so/2013.1/901 2013/11/27
 24 26  0  0  0  0  0  0  0  0999 V2000
   -5.7647  -10.0264   11.2251 P   0  0  1  0  0  0  0  0  0  0  0  0
   -4.3638  -10.1164   10.6586 O   0  0  0  0  0  0  0  0  0  0  0  0
   -6.8416  -10.7710   10.4717 O   0  5  0  0  0  0  0  0  0  0  0  0
   -5.8396  -10.2467   12.7286 O   0  0  0  0  0  0  0  0  0  0  0  0
   -5.5849   -7.3499   11.5675 C   0  0  0  0  0  0  0  0  0  0  0  0
   -6.1997   -8.4882   10.9394 O   0  0  0  0  0  0  0  0  0  0  0  0
   -6.1990   -6.0581   11.0199 C   0  0  1  0  0  0  0  0  0  0  0  0
   -6.1423   -6.0042    9.5888 O   0  0  0  0  0  0  0  0  0  0  0  0
   -7.6587   -5.8426   11.3810 C   0  0  1  0  0  0  0  0  0  0  0  0
   -7.7290   -5.1071   12.6061 O   0  0  0  0  0  0  0  0  0  0  0  0
   -8.1925   -5.0306   10.2122 C   0  0  1  0  0  0  0  0  0  0  0  0
   -7.8836   -3.6401   10.3835 O   0  0  0  0  0  0  0  0  0  0  0  0
   -7.3628   -5.4991    9.0332 C   0  0  2  0  0  0  0  0  0  0  0  0
  -11.6434   -7.0634    6.7342 N   0  0  0  0  0  0  0  0  0  0  0  0
  -11.3819   -5.8921    7.3581 C   0  0  1  0  0  0  0  0  0  0  0  0
  -12.3459   -4.9456    7.4156 N   0  0  0  0  0  0  0  0  0  0  0  0
  -10.1739   -5.6583    7.9223 N   0  0  0  0  0  0  0  0  0  0  0  0
   -9.2126   -6.6107    7.8619 C   0  0  1  0  0  0  0  0  0  0  0  0
   -9.4527   -7.8163    7.2327 C   0  0  2  0  0  0  0  0  0  0  0  0
  -10.7010   -8.0313    6.6605 C   0  0  0  0  0  0  0  0  0  0  0  0
  -10.9597   -9.1056    6.0830 O   0  0  0  0  0  0  0  0  0  0  0  0
   -8.3277   -8.5528    7.3377 N   0  0  0  0  0  0  0  0  0  0  0  0
   -7.4130   -7.8152    8.0094 C   0  0  0  0  0  0  0  0  0  0  0  0
   -7.9673   -6.6386    8.3183 N   0  0  1  0  0  0  0  0  0  0  0  0
  1  2  1  6  0  0  0
  1  3  1  0  0  0  0
  1  4  2  0  0  0  0
  1  6  1  0  0  0  0
  5  6  1  0  0  0  0
  7  5  1  6  0  0  0
  7  8  1  0  0  0  0
  7  9  1  0  0  0  0
  9 10  1  1  0  0  0
  9 11  1  0  0  0  0
 11 12  1  1  0  0  0
 11 13  1  0  0  0  0
 13  8  1  1  0  0  0
 13 24  1  0  0  0  0
 14 15  1  0  0  0  0
 14 20  1  0  0  0  0
 15 16  1  1  0  0  0
 15 17  1  0  0  0  0
 18 17  1  6  0  0  0
 18 19  1  0  0  0  0
 18 24  1  0  0  0  0
 19 20  1  1  0  0  0
 19 22  1  0  0  0  0
 20 21  2  0  0  0  0
 22 23  1  0  0  0  0
 24 23  1  6  0  0  0
M  CHG  1   3  -1
M  END
>  <CHROM.1>
-66.73332899,-53.72777357,177.48851447,168.65998002,-7.94105881,-7.36550176
9.46549958,0.13909853,0.76322155,-2.79928086

>  <Name>
ligand

>  <RI>
0

>  <Rbt.Current_Directory>
/home/itssahil/PROJECTS/Mol_Feturizer/New_Systems/rnas/3SLQ

>  <Rbt.Executable>
rbdock ($Id: //depot/dev/client3/rdock/2013.1/src/exe/rbdock.cxx#4 $)

>  <Rbt.Library>
libRbt.so (2013.1, Build901 2013/11/27)

>  <Rbt.Parameter_File>
/export/apps/rDock/src/rDock_2013.1_src/data/scripts/dock_solv.prm

>  <Rbt.Receptor>
prm/pocket_docking_6.prm

>  <SCORE>
-14.9512

>  <SCORE.INTER>
-8.31119

>  <SCORE.INTER.CONST>
1

>  <SCORE.INTER.POLAR>
0

>  <SCORE.INTER.ROT>
4

>  <SCORE.INTER.SOLV>
11.967

>  <SCORE.INTER.VDW>
-15.7965

>  <SCORE.INTER.norm>
-0.3463

>  <SCORE.INTRA>
-6.63998

>  <SCORE.INTRA.DIHEDRAL>
-11.8193

>  <SCORE.INTRA.DIHEDRAL.0>
13.2525

>  <SCORE.INTRA.POLAR>
0

>  <SCORE.INTRA.POLAR.0>
0

>  <SCORE.INTRA.REPUL>
0

>  <SCORE.INTRA.REPUL.0>
0

>  <SCORE.INTRA.SOLV>
0.060792

>  <SCORE.INTRA.SOLV.lig_0>
-70.7221

>  <SCORE.INTRA.VDW>
-0.760734

>  <SCORE.INTRA.VDW.0>
-1.46337

>  <SCORE.INTRA.norm>
-0.276666

>  <SCORE.RESTR>
0

>  <SCORE.RESTR.CAVITY>
0

>  <SCORE.RESTR.norm>
0

>  <SCORE.SYSTEM>
0

>  <SCORE.SYSTEM.CONST>
0

>  <SCORE.SYSTEM.DIHEDRAL>
0

>  <SCORE.SYSTEM.SOLV>
0

>  <SCORE.SYSTEM.norm>
0

>  <SCORE.heavy>
24

>  <SCORE.norm>
-0.622966

>  <RMSD>
5.844

$$$$
ligand
 OpenBabel11021811483D
libRbt.so/2013.1/901 2013/11/27
 24 26  0  0  0  0  0  0  0  0999 V2000
   -6.6106   -4.5623   10.5063 P   0  0  1  0  0  0  0  0  0  0  0  0
   -6.6279   -4.6038   12.0194 O   0  0  0  0  0  0  0  0  0  0  0  0
   -6.9575   -3.2379    9.8680 O   0  5  0  0  0  0  0  0  0  0  0  0
   -5.3839   -5.2117    9.8833 O   0  0  0  0  0  0  0  0  0  0  0  0
   -7.9999   -6.1783    8.8415 C   0  0  0  0  0  0  0  0  0  0  0  0
   -7.8990   -5.4540   10.0797 O   0  0  0  0  0  0  0  0  0  0  0  0
   -7.6296   -7.6474    9.0659 C   0  0  1  0  0  0  0  0  0  0  0  0
   -6.3281   -7.7873    9.6495 O   0  0  0  0  0  0  0  0  0  0  0  0
   -8.5732   -8.4107    9.9796 C   0  0  1  0  0  0  0  0  0  0  0  0
   -9.6017   -9.0106    9.1864 O   0  0  0  0  0  0  0  0  0  0  0  0
   -7.6746   -9.4602   10.6131 C   0  0  1  0  0  0  0  0  0  0  0  0
   -7.5195  -10.5848    9.7359 O   0  0  0  0  0  0  0  0  0  0  0  0
   -6.3166   -8.7894   10.6738 C   0  0  2  0  0  0  0  0  0  0  0  0
   -8.6464   -7.1344   14.9034 N   0  0  0  0  0  0  0  0  0  0  0  0
   -9.1587   -7.8057   13.8469 C   0  0  1  0  0  0  0  0  0  0  0  0
  -10.4725   -8.1258   13.8428 N   0  0  0  0  0  0  0  0  0  0  0  0
   -8.3764   -8.1581   12.8000 N   0  0  0  0  0  0  0  0  0  0  0  0
   -7.0612   -7.8341   12.8097 C   0  0  1  0  0  0  0  0  0  0  0  0
   -6.5118   -7.1476   13.8747 C   0  0  2  0  0  0  0  0  0  0  0  0
   -7.3364   -6.7981   14.9377 C   0  0  0  0  0  0  0  0  0  0  0  0
   -6.8811   -6.1778   15.9188 O   0  0  0  0  0  0  0  0  0  0  0  0
   -5.2038   -6.9657   13.6007 N   0  0  0  0  0  0  0  0  0  0  0  0
   -4.9513   -7.5336   12.3984 C   0  0  0  0  0  0  0  0  0  0  0  0
   -6.0903   -8.0571   11.9338 N   0  0  1  0  0  0  0  0  0  0  0  0
  1  2  1  1  0  0  0
  1  3  1  0  0  0  0
  1  4  2  0  0  0  0
  1  6  1  0  0  0  0
  5  6  1  0  0  0  0
  7  5  1  1  0  0  0
  7  8  1  0  0  0  0
  7  9  1  0  0  0  0
  9 10  1  6  0  0  0
  9 11  1  0  0  0  0
 11 12  1  6  0  0  0
 11 13  1  0  0  0  0
 13  8  1  6  0  0  0
 13 24  1  0  0  0  0
 14 15  1  0  0  0  0
 14 20  1  0  0  0  0
 15 16  1  6  0  0  0
 15 17  1  0  0  0  0
 18 17  1  1  0  0  0
 18 19  1  0  0  0  0
 18 24  1  0  0  0  0
 19 20  1  6  0  0  0
 19 22  1  0  0  0  0
 20 21  2  0  0  0  0
 22 23  1  0  0  0  0
 24 23  1  1  0  0  0
M  CHG  1   3  -1
M  END
>  <CHROM.1>
-152.23531888,-55.68153111,97.84427672,104.71002223,-7.29004756,-7.01640892
11.57409940,-1.40520937,1.15255335,1.51393547

>  <Name>
ligand

>  <RI>
0

>  <Rbt.Current_Directory>
/home/itssahil/PROJECTS/Mol_Feturizer/New_Systems/rnas/3SLQ

>  <Rbt.Executable>
rbdock ($Id: //depot/dev/client3/rdock/2013.1/src/exe/rbdock.cxx#4 $)

>  <Rbt.Library>
libRbt.so (2013.1, Build901 2013/11/27)

>  <Rbt.Parameter_File>
/export/apps/rDock/src/rDock_2013.1_src/data/scripts/dock_solv.prm

>  <Rbt.Receptor>
prm/pocket_docking_3.prm

>  <SCORE>
-4.44489

>  <SCORE.INTER>
-1.9754

>  <SCORE.INTER.CONST>
1

>  <SCORE.INTER.POLAR>
0

>  <SCORE.INTER.ROT>
4

>  <SCORE.INTER.SOLV>
16.4755

>  <SCORE.INTER.VDW>
-13.0754

>  <SCORE.INTER.norm>
-0.0823083

>  <SCORE.INTRA>
-2.47115

>  <SCORE.INTRA.DIHEDRAL>
-5.86888

>  <SCORE.INTRA.DIHEDRAL.0>
13.2525

>  <SCORE.INTRA.POLAR>
0

>  <SCORE.INTRA.POLAR.0>
0

>  <SCORE.INTRA.REPUL>
0

>  <SCORE.INTRA.REPUL.0>
0

>  <SCORE.INTRA.SOLV>
4.18525

>  <SCORE.INTRA.SOLV.lig_0>
-70.7221

>  <SCORE.INTRA.VDW>
-1.62933

>  <SCORE.INTRA.VDW.0>
-1.46337

>  <SCORE.INTRA.norm>
-0.102964

>  <SCORE.RESTR>
0.00165344

>  <SCORE.RESTR.CAVITY>
0.00165344

>  <SCORE.RESTR.norm>
6.88935e-05

>  <SCORE.SYSTEM>
0

>  <SCORE.SYSTEM.CONST>
0

>  <SCORE.SYSTEM.DIHEDRAL>
0

>  <SCORE.SYSTEM.SOLV>
0

>  <SCORE.SYSTEM.norm>
0

>  <SCORE.heavy>
24

>  <SCORE.norm>
-0.185204

>  <RMSD>
6.140

$$$$
ligand
 OpenBabel11021811483D
libRbt.so/2013.1/901 2013/11/27
 24 26  0  0  0  0  0  0  0  0999 V2000
   -8.1618   -9.5964   10.3709 P   0  0  1  0  0  0  0  0  0  0  0  0
   -8.1439   -9.9874    8.9086 O   0  0  0  0  0  0  0  0  0  0  0  0
   -9.5174   -9.5499   11.0358 O   0  5  0  0  0  0  0  0  0  0  0  0
   -7.1170  -10.3106   11.2153 O   0  0  0  0  0  0  0  0  0  0  0  0
   -8.4992   -7.0224    9.6132 C   0  0  0  0  0  0  0  0  0  0  0  0
   -7.7750   -8.0193   10.3548 O   0  0  0  0  0  0  0  0  0  0  0  0
   -8.1570   -5.6273   10.1445 C   0  0  1  0  0  0  0  0  0  0  0  0
   -8.4512   -5.5004   11.5414 O   0  0  0  0  0  0  0  0  0  0  0  0
   -6.6991   -5.2275    9.9944 C   0  0  1  0  0  0  0  0  0  0  0  0
   -6.5286   -4.5606    8.7401 O   0  0  0  0  0  0  0  0  0  0  0  0
   -6.4730   -4.2825   11.1632 C   0  0  1  0  0  0  0  0  0  0  0  0
   -6.9300   -2.9621   10.8376 O   0  0  0  0  0  0  0  0  0  0  0  0
   -7.4139   -4.7960   12.2350 C   0  0  2  0  0  0  0  0  0  0  0  0
   -8.3984   -8.0605   16.0337 N   0  0  0  0  0  0  0  0  0  0  0  0
   -9.2315   -7.2052   15.3982 C   0  0  1  0  0  0  0  0  0  0  0  0
  -10.5322   -7.1566   15.7646 N   0  0  0  0  0  0  0  0  0  0  0  0
   -8.7807   -6.4021   14.4063 N   0  0  0  0  0  0  0  0  0  0  0  0
   -7.4765   -6.4549   14.0442 C   0  0  1  0  0  0  0  0  0  0  0  0
   -6.6033   -7.3177   14.6770 C   0  0  2  0  0  0  0  0  0  0  0  0
   -7.0914   -8.1324   15.6919 C   0  0  0  0  0  0  0  0  0  0  0  0
   -6.3371   -8.9255   16.2893 O   0  0  0  0  0  0  0  0  0  0  0  0
   -5.3906   -7.1434   14.1130 N   0  0  0  0  0  0  0  0  0  0  0  0
   -5.5152   -6.2008   13.1498 C   0  0  0  0  0  0  0  0  0  0  0  0
   -6.7887   -5.7953   13.1214 N   0  0  1  0  0  0  0  0  0  0  0  0
  1  2  1  6  0  0  0
  1  3  1  0  0  0  0
  1  4  2  0  0  0  0
  1  6  1  0  0  0  0
  5  6  1  0  0  0  0
  7  5  1  1  0  0  0
  7  8  1  0  0  0  0
  7  9  1  0  0  0  0
  9 10  1  6  0  0  0
  9 11  1  0  0  0  0
 11 12  1  6  0  0  0
 11 13  1  0  0  0  0
 13  8  1  6  0  0  0
 13 24  1  0  0  0  0
 14 15  1  0  0  0  0
 14 20  1  0  0  0  0
 15 16  1  1  0  0  0
 15 17  1  0  0  0  0
 18 17  1  6  0  0  0
 18 19  1  0  0  0  0
 18 24  1  0  0  0  0
 19 20  1  1  0  0  0
 19 22  1  0  0  0  0
 20 21  2  0  0  0  0
 22 23  1  0  0  0  0
 24 23  1  6  0  0  0
M  CHG  1   3  -1
M  END
>  <CHROM.1>
56.36255621,-57.82550699,162.62564315,-58.57159010,-7.62793565,-7.09660376
12.24957613,1.37256867,-1.32099830,-1.54482749

>  <Name>
ligand

>  <RI>
0

>  <Rbt.Current_Directory>
/home/itssahil/PROJECTS/Mol_Feturizer/New_Systems/rnas/3SLQ

>  <Rbt.Executable>
rbdock ($Id: //depot/dev/client3/rdock/2013.1/src/exe/rbdock.cxx#4 $)

>  <Rbt.Library>
libRbt.so (2013.1, Build901 2013/11/27)

>  <Rbt.Parameter_File>
/export/apps/rDock/src/rDock_2013.1_src/data/scripts/dock_solv.prm

>  <Rbt.Receptor>
prm/pocket_docking_3.prm

>  <SCORE>
-11.3615

>  <SCORE.INTER>
-5.48491

>  <SCORE.INTER.CONST>
1

>  <SCORE.INTER.POLAR>
0

>  <SCORE.INTER.ROT>
4

>  <SCORE.INTER.SOLV>
9.74011

>  <SCORE.INTER.VDW>
-13.17

>  <SCORE.INTER.norm>
-0.228538

>  <SCORE.INTRA>
-5.87655

>  <SCORE.INTRA.DIHEDRAL>
-10.6226

>  <SCORE.INTRA.DIHEDRAL.0>
13.2525

>  <SCORE.INTRA.POLAR>
0

>  <SCORE.INTRA.POLAR.0>
0

>  <SCORE.INTRA.REPUL>
0

>  <SCORE.INTRA.REPUL.0>
0

>  <SCORE.INTRA.SOLV>
0.271365

>  <SCORE.INTRA.SOLV.lig_0>
-70.7221

>  <SCORE.INTRA.VDW>
-0.700957

>  <SCORE.INTRA.VDW.0>
-1.46337

>  <SCORE.INTRA.norm>
-0.244856

>  <SCORE.RESTR>
0

>  <SCORE.RESTR.CAVITY>
0

>  <SCORE.RESTR.norm>
0

>  <SCORE.SYSTEM>
0

>  <SCORE.SYSTEM.CONST>
0

>  <SCORE.SYSTEM.DIHEDRAL>
0

>  <SCORE.SYSTEM.SOLV>
0

>  <SCORE.SYSTEM.norm>
0

>  <SCORE.heavy>
24

>  <SCORE.norm>
-0.473394

>  <RMSD>
6.326

$$$$
ligand
 OpenBabel11021811483D
libRbt.so/2013.1/901 2013/11/27
 24 26  0  0  0  0  0  0  0  0999 V2000
   -7.7198  -10.4759   10.9939 P   0  0  1  0  0  0  0  0  0  0  0  0
   -7.9102  -10.7828    9.5238 O   0  0  0  0  0  0  0  0  0  0  0  0
   -8.8946  -10.7684   11.8974 O   0  5  0  0  0  0  0  0  0  0  0  0
   -6.4007  -10.9747   11.5646 O   0  0  0  0  0  0  0  0  0  0  0  0
   -8.6785   -8.0091   10.4375 C   0  0  0  0  0  0  0  0  0  0  0  0
   -7.6881   -8.8532   11.0497 O   0  0  0  0  0  0  0  0  0  0  0  0
   -8.3638   -6.5393   10.7316 C   0  0  1  0  0  0  0  0  0  0  0  0
   -8.3913   -6.2577   12.1366 O   0  0  0  0  0  0  0  0  0  0  0  0
   -7.0038   -6.0685   10.2454 C   0  0  1  0  0  0  0  0  0  0  0  0
   -7.1394   -5.5543    8.9172 O   0  0  0  0  0  0  0  0  0  0  0  0
   -6.6393   -4.9720   11.2328 C   0  0  1  0  0  0  0  0  0  0  0  0
   -7.2652   -3.7349   10.8638 O   0  0  0  0  0  0  0  0  0  0  0  0
   -7.3052   -5.4067   12.5233 C   0  0  2  0  0  0  0  0  0  0  0  0
   -7.2901   -8.3886   16.6663 N   0  0  0  0  0  0  0  0  0  0  0  0
   -8.3088   -7.6920   16.1127 C   0  0  1  0  0  0  0  0  0  0  0  0
   -9.5340   -7.7507   16.6817 N   0  0  0  0  0  0  0  0  0  0  0  0
   -8.1168   -6.9411   15.0030 N   0  0  0  0  0  0  0  0  0  0  0  0
   -6.8869   -6.8859   14.4380 C   0  0  1  0  0  0  0  0  0  0  0  0
   -5.8283   -7.5856   14.9830 C   0  0  2  0  0  0  0  0  0  0  0  0
   -6.0520   -8.3499   16.1222 C   0  0  0  0  0  0  0  0  0  0  0  0
   -5.1240   -8.9970   16.6465 O   0  0  0  0  0  0  0  0  0  0  0  0
   -4.7469   -7.3344   14.2173 N   0  0  0  0  0  0  0  0  0  0  0  0
   -5.1317   -6.5052   13.2192 C   0  0  0  0  0  0  0  0  0  0  0  0
   -6.4344   -6.2448   13.3684 N   0  0  1  0  0  0  0  0  0  0  0  0
  1  2  1  6  0  0  0
  1  3  1  0  0  0  0
  1  4  2  0  0  0  0
  1  6  1  0  0  0  0
  5  6  1  0  0  0  0
  7  5  1  1  0  0  0
  7  8  1  0  0  0  0
  7  9  1  0  0  0  0
  9 10  1  6  0  0  0
  9 11  1  0  0  0  0
 11 12  1  6  0  0  0
 11 13  1  0  0  0  0
 13  8  1  6  0  0  0
 13 24  1  0  0  0  0
 14 15  1  0  0  0  0
 14 20  1  0  0  0  0
 15 16  1  1  0  0  0
 15 17  1  0  0  0  0
 18 17  1  6  0  0  0
 18 19  1  0  0  0  0
 18 24  1  0  0  0  0
 19 20  1  1  0  0  0
 19 22  1  0  0  0  0
 20 21  2  0  0  0  0
 22 23  1  0  0  0  0
 24 23  1  6  0  0  0
M  CHG  1   3  -1
M  END
>  <CHROM.1>
50.34815221,-61.55990447,177.93401355,-54.79132731,-7.25373296,-7.73994839
12.70915684,2.45195345,-1.37677752,-0.67609043

>  <Name>
ligand

>  <RI>
0

>  <Rbt.Current_Directory>
/home/itssahil/PROJECTS/Mol_Feturizer/New_Systems/rnas/3SLQ

>  <Rbt.Executable>
rbdock ($Id: //depot/dev/client3/rdock/2013.1/src/exe/rbdock.cxx#4 $)

>  <Rbt.Library>
libRbt.so (2013.1, Build901 2013/11/27)

>  <Rbt.Parameter_File>
/export/apps/rDock/src/rDock_2013.1_src/data/scripts/dock_solv.prm

>  <Rbt.Receptor>
prm/pocket_docking_4.prm

>  <SCORE>
-13.1996

>  <SCORE.INTER>
-6.76575

>  <SCORE.INTER.CONST>
1

>  <SCORE.INTER.POLAR>
0

>  <SCORE.INTER.ROT>
4

>  <SCORE.INTER.SOLV>
12.0444

>  <SCORE.INTER.VDW>
-14.792

>  <SCORE.INTER.norm>
-0.281906

>  <SCORE.INTRA>
-6.43382

>  <SCORE.INTRA.DIHEDRAL>
-11.8681

>  <SCORE.INTRA.DIHEDRAL.0>
13.2525

>  <SCORE.INTRA.POLAR>
0

>  <SCORE.INTRA.POLAR.0>
0

>  <SCORE.INTRA.REPUL>
0

>  <SCORE.INTRA.REPUL.0>
0

>  <SCORE.INTRA.SOLV>
0.0347938

>  <SCORE.INTRA.SOLV.lig_0>
-70.7221

>  <SCORE.INTRA.VDW>
-0.517188

>  <SCORE.INTRA.VDW.0>
-1.46337

>  <SCORE.INTRA.norm>
-0.268076

>  <SCORE.RESTR>
0

>  <SCORE.RESTR.CAVITY>
0

>  <SCORE.RESTR.norm>
0

>  <SCORE.SYSTEM>
0

>  <SCORE.SYSTEM.CONST>
0

>  <SCORE.SYSTEM.DIHEDRAL>
0

>  <SCORE.SYSTEM.SOLV>
0

>  <SCORE.SYSTEM.norm>
0

>  <SCORE.heavy>
24

>  <SCORE.norm>
-0.549982

>  <RMSD>
6.428

$$$$
ligand
 OpenBabel11021811483D
libRbt.so/2013.1/901 2013/11/27
 24 26  0  0  0  0  0  0  0  0999 V2000
   -9.1247   -7.3788    7.2995 P   0  0  1  0  0  0  0  0  0  0  0  0
   -8.1163   -7.7696    6.2403 O   0  0  0  0  0  0  0  0  0  0  0  0
   -8.9154   -6.0375    7.9619 O   0  5  0  0  0  0  0  0  0  0  0  0
  -10.5718   -7.6145    6.8933 O   0  0  0  0  0  0  0  0  0  0  0  0
   -8.8681   -9.8167    8.4416 C   0  0  0  0  0  0  0  0  0  0  0  0
   -8.7991   -8.3831    8.5333 O   0  0  0  0  0  0  0  0  0  0  0  0
   -8.6783  -10.4370    9.8290 C   0  0  1  0  0  0  0  0  0  0  0  0
   -7.3564  -10.2164   10.3367 O   0  0  0  0  0  0  0  0  0  0  0  0
   -9.6213   -9.9108   10.8975 C   0  0  1  0  0  0  0  0  0  0  0  0
  -10.7941  -10.7296   10.9242 O   0  0  0  0  0  0  0  0  0  0  0  0
   -8.8139  -10.0520   12.1775 C   0  0  1  0  0  0  0  0  0  0  0  0
   -8.8985  -11.3932   12.6797 O   0  0  0  0  0  0  0  0  0  0  0  0
   -7.3787   -9.8664   11.7262 C   0  0  2  0  0  0  0  0  0  0  0  0
   -8.2527   -5.4000   14.0377 N   0  0  0  0  0  0  0  0  0  0  0  0
   -8.8829   -6.5864   14.1945 C   0  0  1  0  0  0  0  0  0  0  0  0
   -9.8996   -6.6813   15.0810 N   0  0  0  0  0  0  0  0  0  0  0  0
   -8.5100   -7.6729   13.4785 N   0  0  0  0  0  0  0  0  0  0  0  0
   -7.4912   -7.5713   12.5916 C   0  0  1  0  0  0  0  0  0  0  0  0
   -6.8311   -6.3719   12.4100 C   0  0  2  0  0  0  0  0  0  0  0  0
   -7.2327   -5.2715   13.1582 C   0  0  0  0  0  0  0  0  0  0  0  0
   -6.6640   -4.1699   13.0251 O   0  0  0  0  0  0  0  0  0  0  0  0
   -5.8829   -6.5756   11.4728 N   0  0  0  0  0  0  0  0  0  0  0  0
   -5.9519   -7.8724   11.0912 C   0  0  0  0  0  0  0  0  0  0  0  0
   -6.9330   -8.4617   11.7821 N   0  0  1  0  0  0  0  0  0  0  0  0
  1  2  1  6  0  0  0
  1  3  1  0  0  0  0
  1  4  2  0  0  0  0
  1  6  1  0  0  0  0
  5  6  1  0  0  0  0
  7  5  1  6  0  0  0
  7  8  1  0  0  0  0
  7  9  1  0  0  0  0
  9 10  1  1  0  0  0
  9 11  1  0  0  0  0
 11 12  1  6  0  0  0
 11 13  1  0  0  0  0
 13  8  1  6  0  0  0
 13 24  1  0  0  0  0
 14 15  1  0  0  0  0
 14 20  1  0  0  0  0
 15 16  1  6  0  0  0
 15 17  1  0  0  0  0
 18 17  1  1  0  0  0
 18 19  1  0  0  0  0
 18 24  1  0  0  0  0
 19 20  1  6  0  0  0
 19 22  1  0  0  0  0
 20 21  2  0  0  0  0
 22 23  1  0  0  0  0
 24 23  1  1  0  0  0
M  CHG  1   3  -1
M  END
>  <CHROM.1>
-59.97935404,-66.56018048,-172.66232691,139.62658892,-8.35657186,-8.00545267
10.79911947,-2.29573812,1.25023852,1.97035793

>  <Name>
ligand

>  <RI>
0

>  <Rbt.Current_Directory>
/home/itssahil/PROJECTS/Mol_Feturizer/New_Systems/rnas/3SLQ

>  <Rbt.Executable>
rbdock ($Id: //depot/dev/client3/rdock/2013.1/src/exe/rbdock.cxx#4 $)

>  <Rbt.Library>
libRbt.so (2013.1, Build901 2013/11/27)

>  <Rbt.Parameter_File>
/export/apps/rDock/src/rDock_2013.1_src/data/scripts/dock_solv.prm

>  <Rbt.Receptor>
prm/pocket_docking_5.prm

>  <SCORE>
-14.6612

>  <SCORE.INTER>
-9.02509

>  <SCORE.INTER.CONST>
1

>  <SCORE.INTER.POLAR>
0

>  <SCORE.INTER.ROT>
4

>  <SCORE.INTER.SOLV>
17.4549

>  <SCORE.INTER.VDW>
-18.1017

>  <SCORE.INTER.norm>
-0.376046

>  <SCORE.INTRA>
-5.63608

>  <SCORE.INTRA.DIHEDRAL>
-11.6508

>  <SCORE.INTRA.DIHEDRAL.0>
13.2525

>  <SCORE.INTRA.POLAR>
0

>  <SCORE.INTRA.POLAR.0>
0

>  <SCORE.INTRA.REPUL>
0

>  <SCORE.INTRA.REPUL.0>
0

>  <SCORE.INTRA.SOLV>
0.0606442

>  <SCORE.INTRA.SOLV.lig_0>
-70.7221

>  <SCORE.INTRA.VDW>
0.159019

>  <SCORE.INTRA.VDW.0>
-1.46337

>  <SCORE.INTRA.norm>
-0.234837

>  <SCORE.RESTR>
0

>  <SCORE.RESTR.CAVITY>
0

>  <SCORE.RESTR.norm>
0

>  <SCORE.SYSTEM>
0

>  <SCORE.SYSTEM.CONST>
0

>  <SCORE.SYSTEM.DIHEDRAL>
0

>  <SCORE.SYSTEM.SOLV>
0

>  <SCORE.SYSTEM.norm>
0

>  <SCORE.heavy>
24

>  <SCORE.norm>
-0.610882

>  <RMSD>
6.440

$$$$
ligand
 OpenBabel11021811483D
libRbt.so/2013.1/901 2013/11/27
 24 26  0  0  0  0  0  0  0  0999 V2000
   -9.0954   -7.5567    7.1938 P   0  0  1  0  0  0  0  0  0  0  0  0
   -8.0072   -7.8963    6.1977 O   0  0  0  0  0  0  0  0  0  0  0  0
   -9.0201   -6.1879    7.8282 O   0  5  0  0  0  0  0  0  0  0  0  0
  -10.4981   -7.9099    6.7223 O   0  0  0  0  0  0  0  0  0  0  0  0
   -8.7874   -9.9412    8.4320 C   0  0  0  0  0  0  0  0  0  0  0  0
   -8.7613   -8.5038    8.4700 O   0  0  0  0  0  0  0  0  0  0  0  0
   -8.6362  -10.5024    9.8490 C   0  0  1  0  0  0  0  0  0  0  0  0
   -7.3320  -10.2507   10.3871 O   0  0  0  0  0  0  0  0  0  0  0  0
   -9.6150   -9.9401   10.8656 C   0  0  1  0  0  0  0  0  0  0  0  0
  -10.7827  -10.7664   10.8904 O   0  0  0  0  0  0  0  0  0  0  0  0
   -8.8464  -10.0222   12.1743 C   0  0  1  0  0  0  0  0  0  0  0  0
   -8.9376  -11.3423   12.7288 O   0  0  0  0  0  0  0  0  0  0  0  0
   -7.3993   -9.8441   11.7596 C   0  0  2  0  0  0  0  0  0  0  0  0
   -8.2167   -5.3430   14.0243 N   0  0  0  0  0  0  0  0  0  0  0  0
   -8.8285   -6.5317   14.2293 C   0  0  1  0  0  0  0  0  0  0  0  0
   -9.8059   -6.6189   15.1597 N   0  0  0  0  0  0  0  0  0  0  0  0
   -8.4761   -7.6281   13.5180 N   0  0  0  0  0  0  0  0  0  0  0  0
   -7.4967   -7.5343   12.5870 C   0  0  1  0  0  0  0  0  0  0  0  0
   -6.8562   -6.3328   12.3557 C   0  0  2  0  0  0  0  0  0  0  0  0
   -7.2361   -5.2221   13.1001 C   0  0  0  0  0  0  0  0  0  0  0  0
   -6.6838   -4.1183   12.9229 O   0  0  0  0  0  0  0  0  0  0  0  0
   -5.9466   -6.5458   11.3830 N   0  0  0  0  0  0  0  0  0  0  0  0
   -6.0195   -7.8500   11.0284 C   0  0  0  0  0  0  0  0  0  0  0  0
   -6.9649   -8.4347   11.7709 N   0  0  1  0  0  0  0  0  0  0  0  0
  1  2  1  6  0  0  0
  1  3  1  0  0  0  0
  1  4  2  0  0  0  0
  1  6  1  0  0  0  0
  5  6  1  0  0  0  0
  7  5  1  6  0  0  0
  7  8  1  0  0  0  0
  7  9  1  0  0  0  0
  9 10  1  1  0  0  0
  9 11  1  0  0  0  0
 11 12  1  6  0  0  0
 11 13  1  0  0  0  0
 13  8  1  6  0  0  0
 13 24  1  0  0  0  0
 14 15  1  0  0  0  0
 14 20  1  0  0  0  0
 15 16  1  6  0  0  0
 15 17  1  0  0  0  0
 18 17  1  1  0  0  0
 18 19  1  0  0  0  0
 18 24  1  0  0  0  0
 19 20  1  6  0  0  0
 19 22  1  0  0  0  0
 20 21  2  0  0  0  0
 22 23  1  0  0  0  0
 24 23  1  1  0  0  0
M  CHG  1   3  -1
M  END
>  <CHROM.1>
-63.32567881,-67.86719346,-171.32211082,144.00850246,-8.34571348,-8.04168920
10.76530108,-2.25016428,1.24963113,1.89575091

>  <Name>
ligand

>  <RI>
0

>  <Rbt.Current_Directory>
/home/itssahil/PROJECTS/Mol_Feturizer/New_Systems/rnas/3SLQ

>  <Rbt.Executable>
rbdock ($Id: //depot/dev/client3/rdock/2013.1/src/exe/rbdock.cxx#4 $)

>  <Rbt.Library>
libRbt.so (2013.1, Build901 2013/11/27)

>  <Rbt.Parameter_File>
/export/apps/rDock/src/rDock_2013.1_src/data/scripts/dock_solv.prm

>  <Rbt.Receptor>
prm/pocket_docking_5.prm

>  <SCORE>
-14.7049

>  <SCORE.INTER>
-9.0151

>  <SCORE.INTER.CONST>
1

>  <SCORE.INTER.POLAR>
0

>  <SCORE.INTER.ROT>
4

>  <SCORE.INTER.SOLV>
18.4475

>  <SCORE.INTER.VDW>
-18.4259

>  <SCORE.INTER.norm>
-0.375629

>  <SCORE.INTRA>
-5.68978

>  <SCORE.INTRA.DIHEDRAL>
-11.4659

>  <SCORE.INTRA.DIHEDRAL.0>
13.2525

>  <SCORE.INTRA.POLAR>
0

>  <SCORE.INTRA.POLAR.0>
0

>  <SCORE.INTRA.REPUL>
0

>  <SCORE.INTRA.REPUL.0>
0

>  <SCORE.INTRA.SOLV>
0.0720763

>  <SCORE.INTRA.SOLV.lig_0>
-70.7221

>  <SCORE.INTRA.VDW>
0.00712189

>  <SCORE.INTRA.VDW.0>
-1.46337

>  <SCORE.INTRA.norm>
-0.237074

>  <SCORE.RESTR>
0

>  <SCORE.RESTR.CAVITY>
0

>  <SCORE.RESTR.norm>
0

>  <SCORE.SYSTEM>
0

>  <SCORE.SYSTEM.CONST>
0

>  <SCORE.SYSTEM.DIHEDRAL>
0

>  <SCORE.SYSTEM.SOLV>
0

>  <SCORE.SYSTEM.norm>
0

>  <SCORE.heavy>
24

>  <SCORE.norm>
-0.612703

>  <RMSD>
6.446

$$$$
ligand
 OpenBabel11021811483D
libRbt.so/2013.1/901 2013/11/27
 24 26  0  0  0  0  0  0  0  0999 V2000
   -8.1817  -10.1935   11.0165 P   0  0  1  0  0  0  0  0  0  0  0  0
   -7.8705  -10.6334    9.6019 O   0  0  0  0  0  0  0  0  0  0  0  0
   -9.6325  -10.2528   11.4331 O   0  5  0  0  0  0  0  0  0  0  0  0
   -7.2446  -10.7734   12.0654 O   0  0  0  0  0  0  0  0  0  0  0  0
   -8.6085   -7.6918   10.0821 C   0  0  0  0  0  0  0  0  0  0  0  0
   -7.9382   -8.5882   10.9851 O   0  0  0  0  0  0  0  0  0  0  0  0
   -8.2677   -6.2419   10.4390 C   0  0  1  0  0  0  0  0  0  0  0  0
   -8.6165   -5.9288   11.7934 O   0  0  0  0  0  0  0  0  0  0  0  0
   -6.7993   -5.8788   10.2991 C   0  0  1  0  0  0  0  0  0  0  0  0
   -6.5683   -5.3851    8.9763 O   0  0  0  0  0  0  0  0  0  0  0  0
   -6.6069   -4.7897   11.3417 C   0  0  1  0  0  0  0  0  0  0  0  0
   -7.0310   -3.5198   10.8262 O   0  0  0  0  0  0  0  0  0  0  0  0
   -7.5979   -5.1484   12.4313 C   0  0  2  0  0  0  0  0  0  0  0  0
   -8.8025   -7.9659   16.5138 N   0  0  0  0  0  0  0  0  0  0  0  0
   -9.5993   -7.2041   15.7301 C   0  0  1  0  0  0  0  0  0  0  0  0
  -10.9218   -7.1351   16.0033 N   0  0  0  0  0  0  0  0  0  0  0  0
   -9.0910   -6.5142   14.6823 N   0  0  0  0  0  0  0  0  0  0  0  0
   -7.7653   -6.5870   14.4142 C   0  0  1  0  0  0  0  0  0  0  0  0
   -6.9282   -7.3557   15.1987 C   0  0  2  0  0  0  0  0  0  0  0  0
   -7.4751   -8.0552   16.2682 C   0  0  0  0  0  0  0  0  0  0  0  0
   -6.7549   -8.7608   17.0018 O   0  0  0  0  0  0  0  0  0  0  0  0
   -5.6824   -7.2279   14.6980 N   0  0  0  0  0  0  0  0  0  0  0  0
   -5.7514   -6.4056   13.6252 C   0  0  0  0  0  0  0  0  0  0  0  0
   -7.0239   -6.0275   13.4671 N   0  0  1  0  0  0  0  0  0  0  0  0
  1  2  1  6  0  0  0
  1  3  1  0  0  0  0
  1  4  2  0  0  0  0
  1  6  1  0  0  0  0
  5  6  1  0  0  0  0
  7  5  1  1  0  0  0
  7  8  1  0  0  0  0
  7  9  1  0  0  0  0
  9 10  1  6  0  0  0
  9 11  1  0  0  0  0
 11 12  1  6  0  0  0
 11 13  1  0  0  0  0
 13  8  1  6  0  0  0
 13 24  1  0  0  0  0
 14 15  1  0  0  0  0
 14 20  1  0  0  0  0
 15 16  1  1  0  0  0
 15 17  1  0  0  0  0
 18 17  1  6  0  0  0
 18 19  1  0  0  0  0
 18 24  1  0  0  0  0
 19 20  1  1  0  0  0
 19 22  1  0  0  0  0
 20 21  2  0  0  0  0
 22 23  1  0  0  0  0
 24 23  1  6  0  0  0
M  CHG  1   3  -1
M  END
>  <CHROM.1>
56.64929082,-57.36174995,173.27505287,-56.39474936,-7.81041493,-7.45677339
12.68237116,1.17555513,-1.32745122,-1.90659554

>  <Name>
ligand

>  <RI>
0

>  <Rbt.Current_Directory>
/home/itssahil/PROJECTS/Mol_Feturizer/New_Systems/rnas/3SLQ

>  <Rbt.Executable>
rbdock ($Id: //depot/dev/client3/rdock/2013.1/src/exe/rbdock.cxx#4 $)

>  <Rbt.Library>
libRbt.so (2013.1, Build901 2013/11/27)

>  <Rbt.Parameter_File>
/export/apps/rDock/src/rDock_2013.1_src/data/scripts/dock_solv.prm

>  <Rbt.Receptor>
prm/pocket_docking_4.prm

>  <SCORE>
-13.2541

>  <SCORE.INTER>
-6.75333

>  <SCORE.INTER.CONST>
1

>  <SCORE.INTER.POLAR>
0

>  <SCORE.INTER.ROT>
4

>  <SCORE.INTER.SOLV>
10.3515

>  <SCORE.INTER.VDW>
-14.2194

>  <SCORE.INTER.norm>
-0.281389

>  <SCORE.INTRA>
-6.50076

>  <SCORE.INTRA.DIHEDRAL>
-11.7843

>  <SCORE.INTRA.DIHEDRAL.0>
13.2525

>  <SCORE.INTRA.POLAR>
0

>  <SCORE.INTRA.POLAR.0>
0

>  <SCORE.INTRA.REPUL>
0

>  <SCORE.INTRA.REPUL.0>
0

>  <SCORE.INTRA.SOLV>
0.0989316

>  <SCORE.INTRA.SOLV.lig_0>
-70.7221

>  <SCORE.INTRA.VDW>
-0.658081

>  <SCORE.INTRA.VDW.0>
-1.46337

>  <SCORE.INTRA.norm>
-0.270865

>  <SCORE.RESTR>
0

>  <SCORE.RESTR.CAVITY>
0

>  <SCORE.RESTR.norm>
0

>  <SCORE.SYSTEM>
0

>  <SCORE.SYSTEM.CONST>
0

>  <SCORE.SYSTEM.DIHEDRAL>
0

>  <SCORE.SYSTEM.SOLV>
0

>  <SCORE.SYSTEM.norm>
0

>  <SCORE.heavy>
24

>  <SCORE.norm>
-0.552254

>  <RMSD>
6.468

$$$$
ligand
 OpenBabel11021811483D
libRbt.so/2013.1/901 2013/11/27
 24 26  0  0  0  0  0  0  0  0999 V2000
  -10.6480   -7.9773   10.3125 P   0  0  1  0  0  0  0  0  0  0  0  0
  -10.8111   -6.5177   10.6794 O   0  0  0  0  0  0  0  0  0  0  0  0
  -10.1672   -8.8951   11.4116 O   0  5  0  0  0  0  0  0  0  0  0  0
  -11.8215   -8.5549    9.5354 O   0  0  0  0  0  0  0  0  0  0  0  0
   -8.0210   -7.6782    9.7440 C   0  0  0  0  0  0  0  0  0  0  0  0
   -9.3610   -7.9861    9.3222 O   0  0  0  0  0  0  0  0  0  0  0  0
   -7.9351   -6.2112   10.1756 C   0  0  1  0  0  0  0  0  0  0  0  0
   -8.4110   -6.0191   11.5138 O   0  0  0  0  0  0  0  0  0  0  0  0
   -6.5363   -5.6193   10.1487 C   0  0  1  0  0  0  0  0  0  0  0  0
   -6.3053   -5.0350    8.8634 O   0  0  0  0  0  0  0  0  0  0  0  0
   -6.5818   -4.5633   11.2409 C   0  0  1  0  0  0  0  0  0  0  0  0
   -7.1680   -3.3516   10.7443 O   0  0  0  0  0  0  0  0  0  0  0  0
   -7.5688   -5.1211   12.2471 C   0  0  2  0  0  0  0  0  0  0  0  0
   -8.5438   -7.9471   16.3847 N   0  0  0  0  0  0  0  0  0  0  0  0
   -9.3962   -7.2472   15.6018 C   0  0  1  0  0  0  0  0  0  0  0  0
  -10.7168   -7.2554   15.8926 N   0  0  0  0  0  0  0  0  0  0  0  0
   -8.9453   -6.5428   14.5376 N   0  0  0  0  0  0  0  0  0  0  0  0
   -7.6212   -6.5380   14.2518 C   0  0  1  0  0  0  0  0  0  0  0  0
   -6.7281   -7.2423   15.0351 C   0  0  2  0  0  0  0  0  0  0  0  0
   -7.2167   -7.9583   16.1217 C   0  0  0  0  0  0  0  0  0  0  0  0
   -6.4449   -8.6076   16.8548 O   0  0  0  0  0  0  0  0  0  0  0  0
   -5.4993   -7.0457   14.5152 N   0  0  0  0  0  0  0  0  0  0  0  0
   -5.6329   -6.2450   13.4322 C   0  0  0  0  0  0  0  0  0  0  0  0
   -6.9282   -5.9480   13.2868 N   0  0  1  0  0  0  0  0  0  0  0  0
  1  2  1  1  0  0  0
  1  3  1  0  0  0  0
  1  4  2  0  0  0  0
  1  6  1  0  0  0  0
  5  6  1  0  0  0  0
  7  5  1  1  0  0  0
  7  8  1  0  0  0  0
  7  9  1  0  0  0  0
  9 10  1  6  0  0  0
  9 11  1  0  0  0  0
 11 12  1  6  0  0  0
 11 13  1  0  0  0  0
 13  8  1  6  0  0  0
 13 24  1  0  0  0  0
 14 15  1  0  0  0  0
 14 20  1  0  0  0  0
 15 16  1  1  0  0  0
 15 17  1  0  0  0  0
 18 17  1  6  0  0  0
 18 19  1  0  0  0  0
 18 24  1  0  0  0  0
 19 20  1  1  0  0  0
 19 22  1  0  0  0  0
 20 21  2  0  0  0  0
 22 23  1  0  0  0  0
 24 23  1  6  0  0  0
M  CHG  1   3  -1
M  END
>  <CHROM.1>
67.34638495,81.19292450,-65.58688800,-64.15444373,-8.31014374,-6.82527720
12.35637491,1.90623967,-0.56706528,-1.28991211

>  <Name>
ligand

>  <RI>
0

>  <Rbt.Current_Directory>
/home/itssahil/PROJECTS/Mol_Feturizer/New_Systems/rnas/3SLQ

>  <Rbt.Executable>
rbdock ($Id: //depot/dev/client3/rdock/2013.1/src/exe/rbdock.cxx#4 $)

>  <Rbt.Library>
libRbt.so (2013.1, Build901 2013/11/27)

>  <Rbt.Parameter_File>
/export/apps/rDock/src/rDock_2013.1_src/data/scripts/dock_solv.prm

>  <Rbt.Receptor>
prm/pocket_docking_4.prm

>  <SCORE>
-11.6089

>  <SCORE.INTER>
-6.85787

>  <SCORE.INTER.CONST>
1

>  <SCORE.INTER.POLAR>
0

>  <SCORE.INTER.ROT>
4

>  <SCORE.INTER.SOLV>
12.2071

>  <SCORE.INTER.VDW>
-14.9076

>  <SCORE.INTER.norm>
-0.285745

>  <SCORE.INTRA>
-4.75101

>  <SCORE.INTRA.DIHEDRAL>
-10.3511

>  <SCORE.INTRA.DIHEDRAL.0>
13.2525

>  <SCORE.INTRA.POLAR>
0

>  <SCORE.INTRA.POLAR.0>
0

>  <SCORE.INTRA.REPUL>
0

>  <SCORE.INTRA.REPUL.0>
0

>  <SCORE.INTRA.SOLV>
1.76771

>  <SCORE.INTRA.SOLV.lig_0>
-70.7221

>  <SCORE.INTRA.VDW>
-0.459308

>  <SCORE.INTRA.VDW.0>
-1.46337

>  <SCORE.INTRA.norm>
-0.197959

>  <SCORE.RESTR>
0

>  <SCORE.RESTR.CAVITY>
0

>  <SCORE.RESTR.norm>
0

>  <SCORE.SYSTEM>
0

>  <SCORE.SYSTEM.CONST>
0

>  <SCORE.SYSTEM.DIHEDRAL>
0

>  <SCORE.SYSTEM.SOLV>
0

>  <SCORE.SYSTEM.norm>
0

>  <SCORE.heavy>
24

>  <SCORE.norm>
-0.483703

>  <RMSD>
6.518

$$$$
ligand
 OpenBabel11021811483D
libRbt.so/2013.1/901 2013/11/27
 24 26  0  0  0  0  0  0  0  0999 V2000
   -8.5008  -10.1414    9.3948 P   0  0  1  0  0  0  0  0  0  0  0  0
   -8.6666  -10.2372    7.8932 O   0  0  0  0  0  0  0  0  0  0  0  0
   -9.7139  -10.4856   10.2265 O   0  5  0  0  0  0  0  0  0  0  0  0
   -7.2263  -10.7861    9.9191 O   0  0  0  0  0  0  0  0  0  0  0  0
   -7.2045   -7.7680    9.4010 C   0  0  0  0  0  0  0  0  0  0  0  0
   -8.3841   -8.5453    9.6704 O   0  0  0  0  0  0  0  0  0  0  0  0
   -7.4005   -6.3337    9.9012 C   0  0  1  0  0  0  0  0  0  0  0  0
   -8.0170   -6.2983   11.1945 O   0  0  0  0  0  0  0  0  0  0  0  0
   -6.1219   -5.5241   10.0340 C   0  0  1  0  0  0  0  0  0  0  0  0
   -5.8790   -4.8369    8.8029 O   0  0  0  0  0  0  0  0  0  0  0  0
   -6.4370   -4.5541   11.1609 C   0  0  1  0  0  0  0  0  0  0  0  0
   -7.1697   -3.4257   10.6626 O   0  0  0  0  0  0  0  0  0  0  0  0
   -7.4025   -5.3206   12.0430 C   0  0  2  0  0  0  0  0  0  0  0  0
   -8.2443   -7.9598   16.3305 N   0  0  0  0  0  0  0  0  0  0  0  0
   -9.1232   -7.3047   15.5382 C   0  0  1  0  0  0  0  0  0  0  0  0
  -10.4359   -7.3111   15.8628 N   0  0  0  0  0  0  0  0  0  0  0  0
   -8.7064   -6.6465   14.4313 N   0  0  0  0  0  0  0  0  0  0  0  0
   -7.3900   -6.6432   14.1118 C   0  0  1  0  0  0  0  0  0  0  0  0
   -6.4704   -7.3024   14.9036 C   0  0  2  0  0  0  0  0  0  0  0  0
   -6.9243   -7.9714   16.0343 C   0  0  0  0  0  0  0  0  0  0  0  0
   -6.1277   -8.5790   16.7766 O   0  0  0  0  0  0  0  0  0  0  0  0
   -5.2572   -7.1192   14.3438 N   0  0  0  0  0  0  0  0  0  0  0  0
   -5.4261   -6.3709   13.2287 C   0  0  0  0  0  0  0  0  0  0  0  0
   -6.7276   -6.0926   13.1030 N   0  0  1  0  0  0  0  0  0  0  0  0
  1  2  1  6  0  0  0
  1  3  1  0  0  0  0
  1  4  2  0  0  0  0
  1  6  1  0  0  0  0
  5  6  1  0  0  0  0
  7  5  1  1  0  0  0
  7  8  1  0  0  0  0
  7  9  1  0  0  0  0
  9 10  1  6  0  0  0
  9 11  1  0  0  0  0
 11 12  1  6  0  0  0
 11 13  1  0  0  0  0
 13  8  1  6  0  0  0
 13 24  1  0  0  0  0
 14 15  1  0  0  0  0
 14 20  1  0  0  0  0
 15 16  1  1  0  0  0
 15 17  1  0  0  0  0
 18 17  1  6  0  0  0
 18 19  1  0  0  0  0
 18 24  1  0  0  0  0
 19 20  1  1  0  0  0
 19 22  1  0  0  0  0
 20 21  2  0  0  0  0
 22 23  1  0  0  0  0
 24 23  1  6  0  0  0
M  CHG  1   3  -1
M  END
>  <CHROM.1>
-76.00134114,43.27278248,-174.68097685,-76.59915403,-7.53280606,-7.42377752
12.02520191,1.77490750,-1.17029714,-1.61645077

>  <Name>
ligand

>  <RI>
0

>  <Rbt.Current_Directory>
/home/itssahil/PROJECTS/Mol_Feturizer/New_Systems/rnas/3SLQ

>  <Rbt.Executable>
rbdock ($Id: //depot/dev/client3/rdock/2013.1/src/exe/rbdock.cxx#4 $)

>  <Rbt.Library>
libRbt.so (2013.1, Build901 2013/11/27)

>  <Rbt.Parameter_File>
/export/apps/rDock/src/rDock_2013.1_src/data/scripts/dock_solv.prm

>  <Rbt.Receptor>
prm/pocket_docking_6.prm

>  <SCORE>
-13.6325

>  <SCORE.INTER>
-8.22082

>  <SCORE.INTER.CONST>
1

>  <SCORE.INTER.POLAR>
0

>  <SCORE.INTER.ROT>
4

>  <SCORE.INTER.SOLV>
17.8535

>  <SCORE.INTER.VDW>
-17.6984

>  <SCORE.INTER.norm>
-0.342534

>  <SCORE.INTRA>
-5.41171

>  <SCORE.INTRA.DIHEDRAL>
-10.5832

>  <SCORE.INTRA.DIHEDRAL.0>
13.2525

>  <SCORE.INTRA.POLAR>
0

>  <SCORE.INTRA.POLAR.0>
0

>  <SCORE.INTRA.REPUL>
0

>  <SCORE.INTRA.REPUL.0>
0

>  <SCORE.INTRA.SOLV>
0.096141

>  <SCORE.INTRA.SOLV.lig_0>
-70.7221

>  <SCORE.INTRA.VDW>
-0.168175

>  <SCORE.INTRA.VDW.0>
-1.46337

>  <SCORE.INTRA.norm>
-0.225488

>  <SCORE.RESTR>
0

>  <SCORE.RESTR.CAVITY>
0

>  <SCORE.RESTR.norm>
0

>  <SCORE.SYSTEM>
0

>  <SCORE.SYSTEM.CONST>
0

>  <SCORE.SYSTEM.DIHEDRAL>
0

>  <SCORE.SYSTEM.SOLV>
0

>  <SCORE.SYSTEM.norm>
0

>  <SCORE.heavy>
24

>  <SCORE.norm>
-0.568022

>  <RMSD>
6.571

$$$$
ligand
 OpenBabel11021811483D
libRbt.so/2013.1/901 2013/11/27
 24 26  0  0  0  0  0  0  0  0999 V2000
   -9.1130   -9.3016    7.0016 P   0  0  1  0  0  0  0  0  0  0  0  0
   -8.8057  -10.0525    8.2795 O   0  0  0  0  0  0  0  0  0  0  0  0
   -7.9579   -8.5697    6.3598 O   0  5  0  0  0  0  0  0  0  0  0  0
   -9.9350  -10.0972    5.9986 O   0  0  0  0  0  0  0  0  0  0  0  0
  -11.4607   -8.1062    7.6127 C   0  0  0  0  0  0  0  0  0  0  0  0
  -10.0282   -8.0544    7.4958 O   0  0  0  0  0  0  0  0  0  0  0  0
  -11.9912   -6.7601    8.1149 C   0  0  1  0  0  0  0  0  0  0  0  0
  -11.5297   -6.4643    9.4391 O   0  0  0  0  0  0  0  0  0  0  0  0
  -11.5983   -5.5629    7.2664 C   0  0  1  0  0  0  0  0  0  0  0  0
  -12.6048   -5.3493    6.2725 O   0  0  0  0  0  0  0  0  0  0  0  0
  -11.5548   -4.4219    8.2696 C   0  0  1  0  0  0  0  0  0  0  0  0
  -12.8726   -3.9025    8.4975 O   0  0  0  0  0  0  0  0  0  0  0  0
  -11.1413   -5.0907    9.5655 C   0  0  2  0  0  0  0  0  0  0  0  0
   -7.4644   -6.9142   12.6007 N   0  0  0  0  0  0  0  0  0  0  0  0
   -8.8062   -7.0554   12.6962 C   0  0  1  0  0  0  0  0  0  0  0  0
   -9.3226   -7.7777   13.7161 N   0  0  0  0  0  0  0  0  0  0  0  0
   -9.6327   -6.4852   11.7885 N   0  0  0  0  0  0  0  0  0  0  0  0
   -9.1094   -5.7624   10.7695 C   0  0  1  0  0  0  0  0  0  0  0  0
   -7.7432   -5.6005   10.6484 C   0  0  2  0  0  0  0  0  0  0  0  0
   -6.9162   -6.1969   11.5931 C   0  0  0  0  0  0  0  0  0  0  0  0
   -5.6773   -6.0756   11.5211 O   0  0  0  0  0  0  0  0  0  0  0  0
   -7.5264   -4.8389    9.5567 N   0  0  0  0  0  0  0  0  0  0  0  0
   -8.7305   -4.5446    9.0132 C   0  0  0  0  0  0  0  0  0  0  0  0
   -9.6798   -5.1149    9.7620 N   0  0  1  0  0  0  0  0  0  0  0  0
  1  2  1  1  0  0  0
  1  3  1  0  0  0  0
  1  4  2  0  0  0  0
  1  6  1  0  0  0  0
  5  6  1  0  0  0  0
  7  5  1  6  0  0  0
  7  8  1  0  0  0  0
  7  9  1  0  0  0  0
  9 10  1  6  0  0  0
  9 11  1  0  0  0  0
 11 12  1  1  0  0  0
 11 13  1  0  0  0  0
 13  8  1  6  0  0  0
 13 24  1  0  0  0  0
 14 15  1  0  0  0  0
 14 20  1  0  0  0  0
 15 16  1  1  0  0  0
 15 17  1  0  0  0  0
 18 17  1  6  0  0  0
 18 19  1  0  0  0  0
 18 24  1  0  0  0  0
 19 20  1  1  0  0  0
 19 22  1  0  0  0  0
 20 21  2  0  0  0  0
 22 23  1  0  0  0  0
 24 23  1  6  0  0  0
M  CHG  1   3  -1
M  END
>  <CHROM.1>
-88.76441834,-64.19096567,179.56765684,-58.46943112,-9.63879997,-6.78392911
9.12106223,-2.29397019,-0.69390813,0.80695670

>  <Name>
ligand

>  <RI>
0

>  <Rbt.Current_Directory>
/home/itssahil/PROJECTS/Mol_Feturizer/New_Systems/rnas/3SLQ

>  <Rbt.Executable>
rbdock ($Id: //depot/dev/client3/rdock/2013.1/src/exe/rbdock.cxx#4 $)

>  <Rbt.Library>
libRbt.so (2013.1, Build901 2013/11/27)

>  <Rbt.Parameter_File>
/export/apps/rDock/src/rDock_2013.1_src/data/scripts/dock_solv.prm

>  <Rbt.Receptor>
prm/pocket_docking_8.prm

>  <SCORE>
-15.5741

>  <SCORE.INTER>
-9.76584

>  <SCORE.INTER.CONST>
1

>  <SCORE.INTER.POLAR>
0

>  <SCORE.INTER.ROT>
4

>  <SCORE.INTER.SOLV>
23.9976

>  <SCORE.INTER.VDW>
-20.7764

>  <SCORE.INTER.norm>
-0.40691

>  <SCORE.INTRA>
-5.80824

>  <SCORE.INTRA.DIHEDRAL>
-10.8677

>  <SCORE.INTRA.DIHEDRAL.0>
13.2525

>  <SCORE.INTRA.POLAR>
0

>  <SCORE.INTRA.POLAR.0>
0

>  <SCORE.INTRA.REPUL>
0

>  <SCORE.INTRA.REPUL.0>
0

>  <SCORE.INTRA.SOLV>
0.207178

>  <SCORE.INTRA.SOLV.lig_0>
-70.7221

>  <SCORE.INTRA.VDW>
-0.47796

>  <SCORE.INTRA.VDW.0>
-1.46337

>  <SCORE.INTRA.norm>
-0.24201

>  <SCORE.RESTR>
0

>  <SCORE.RESTR.CAVITY>
0

>  <SCORE.RESTR.norm>
0

>  <SCORE.SYSTEM>
0

>  <SCORE.SYSTEM.CONST>
0

>  <SCORE.SYSTEM.DIHEDRAL>
0

>  <SCORE.SYSTEM.SOLV>
0

>  <SCORE.SYSTEM.norm>
0

>  <SCORE.heavy>
24

>  <SCORE.norm>
-0.64892

>  <RMSD>
6.583

$$$$
ligand
 OpenBabel11021811483D
libRbt.so/2013.1/901 2013/11/27
 24 26  0  0  0  0  0  0  0  0999 V2000
   -6.5866   -6.6706   11.8664 P   0  0  1  0  0  0  0  0  0  0  0  0
   -6.3775   -5.2540   11.3755 O   0  0  0  0  0  0  0  0  0  0  0  0
   -5.3960   -7.5955   11.7717 O   0  5  0  0  0  0  0  0  0  0  0  0
   -7.2966   -6.7620   13.2089 O   0  0  0  0  0  0  0  0  0  0  0  0
   -7.4295   -7.1208    9.3365 C   0  0  0  0  0  0  0  0  0  0  0  0
   -7.5712   -7.3248   10.7530 O   0  0  0  0  0  0  0  0  0  0  0  0
   -8.5085   -7.9076    8.5865 C   0  0  1  0  0  0  0  0  0  0  0  0
   -9.7761   -7.8441    9.2522 O   0  0  0  0  0  0  0  0  0  0  0  0
   -8.7677   -7.4387    7.1650 C   0  0  1  0  0  0  0  0  0  0  0  0
   -7.9167   -8.1668    6.2748 O   0  0  0  0  0  0  0  0  0  0  0  0
  -10.2313   -7.7840    6.9438 C   0  0  1  0  0  0  0  0  0  0  0  0
  -10.3723   -9.1638    6.5772 O   0  0  0  0  0  0  0  0  0  0  0  0
  -10.8493   -7.6542    8.3218 C   0  0  2  0  0  0  0  0  0  0  0  0
  -13.9923   -4.0525    6.5314 N   0  0  0  0  0  0  0  0  0  0  0  0
  -13.6880   -5.2633    6.0111 C   0  0  1  0  0  0  0  0  0  0  0  0
  -14.2677   -5.6477    4.8515 N   0  0  0  0  0  0  0  0  0  0  0  0
  -12.8150   -6.0893    6.6339 N   0  0  0  0  0  0  0  0  0  0  0  0
  -12.2371   -5.6983    7.7949 C   0  0  1  0  0  0  0  0  0  0  0  0
  -12.5281   -4.4667    8.3479 C   0  0  2  0  0  0  0  0  0  0  0  0
  -13.4286   -3.6376    7.6892 C   0  0  0  0  0  0  0  0  0  0  0  0
  -13.7192   -2.5176    8.1538 O   0  0  0  0  0  0  0  0  0  0  0  0
  -11.8073   -4.3578    9.4825 N   0  0  0  0  0  0  0  0  0  0  0  0
  -11.0944   -5.4989    9.6294 C   0  0  0  0  0  0  0  0  0  0  0  0
  -11.3691   -6.3016    8.5963 N   0  0  1  0  0  0  0  0  0  0  0  0
  1  2  1  6  0  0  0
  1  3  1  0  0  0  0
  1  4  2  0  0  0  0
  1  6  1  0  0  0  0
  5  6  1  0  0  0  0
  7  5  1  1  0  0  0
  7  8  1  0  0  0  0
  7  9  1  0  0  0  0
  9 10  1  6  0  0  0
  9 11  1  0  0  0  0
 11 12  1  1  0  0  0
 11 13  1  0  0  0  0
 13  8  1  1  0  0  0
 13 24  1  0  0  0  0
 14 15  1  0  0  0  0
 14 20  1  0  0  0  0
 15 16  1  6  0  0  0
 15 17  1  0  0  0  0
 18 17  1  1  0  0  0
 18 19  1  0  0  0  0
 18 24  1  0  0  0  0
 19 20  1  6  0  0  0
 19 22  1  0  0  0  0
 20 21  2  0  0  0  0
 22 23  1  0  0  0  0
 24 23  1  1  0  0  0
M  CHG  1   3  -1
M  END
>  <CHROM.1>
41.97434722,40.33450277,178.81613427,169.50202985,-10.02000767,-6.32619740
8.78430326,0.24619884,-0.59971194,0.85962738

>  <Name>
ligand

>  <RI>
0

>  <Rbt.Current_Directory>
/home/itssahil/PROJECTS/Mol_Feturizer/New_Systems/rnas/3SLQ

>  <Rbt.Executable>
rbdock ($Id: //depot/dev/client3/rdock/2013.1/src/exe/rbdock.cxx#4 $)

>  <Rbt.Library>
libRbt.so (2013.1, Build901 2013/11/27)

>  <Rbt.Parameter_File>
/export/apps/rDock/src/rDock_2013.1_src/data/scripts/dock_solv.prm

>  <Rbt.Receptor>
prm/pocket_docking_8.prm

>  <SCORE>
-13.6241

>  <SCORE.INTER>
-8.46142

>  <SCORE.INTER.CONST>
1

>  <SCORE.INTER.POLAR>
0

>  <SCORE.INTER.ROT>
4

>  <SCORE.INTER.SOLV>
11.1739

>  <SCORE.INTER.VDW>
-15.6322

>  <SCORE.INTER.norm>
-0.352559

>  <SCORE.INTRA>
-5.16265

>  <SCORE.INTRA.DIHEDRAL>
-10.2808

>  <SCORE.INTRA.DIHEDRAL.0>
13.2525

>  <SCORE.INTRA.POLAR>
0

>  <SCORE.INTRA.POLAR.0>
0

>  <SCORE.INTRA.REPUL>
0

>  <SCORE.INTRA.REPUL.0>
0

>  <SCORE.INTRA.SOLV>
-0.0907308

>  <SCORE.INTRA.SOLV.lig_0>
-70.7221

>  <SCORE.INTRA.VDW>
0.0231092

>  <SCORE.INTRA.VDW.0>
-1.46337

>  <SCORE.INTRA.norm>
-0.21511

>  <SCORE.RESTR>
0

>  <SCORE.RESTR.CAVITY>
0

>  <SCORE.RESTR.norm>
0

>  <SCORE.SYSTEM>
0

>  <SCORE.SYSTEM.CONST>
0

>  <SCORE.SYSTEM.DIHEDRAL>
0

>  <SCORE.SYSTEM.SOLV>
0

>  <SCORE.SYSTEM.norm>
0

>  <SCORE.heavy>
24

>  <SCORE.norm>
-0.56767

>  <RMSD>
6.609

$$$$
ligand
 OpenBabel11021811483D
libRbt.so/2013.1/901 2013/11/27
 24 26  0  0  0  0  0  0  0  0999 V2000
   -8.9395  -10.7876   11.9131 P   0  0  1  0  0  0  0  0  0  0  0  0
  -10.3715  -10.9449   11.4481 O   0  0  0  0  0  0  0  0  0  0  0  0
   -8.7433  -10.2217   13.2999 O   0  5  0  0  0  0  0  0  0  0  0  0
   -8.0647  -12.0031   11.6450 O   0  0  0  0  0  0  0  0  0  0  0  0
   -7.0603   -8.9940   11.1615 C   0  0  0  0  0  0  0  0  0  0  0  0
   -8.3683   -9.5703   11.0026 O   0  0  0  0  0  0  0  0  0  0  0  0
   -6.9079   -7.7846   10.2342 C   0  0  1  0  0  0  0  0  0  0  0  0
   -6.8080   -8.1751    8.8588 O   0  0  0  0  0  0  0  0  0  0  0  0
   -8.0510   -6.7860   10.2952 C   0  0  1  0  0  0  0  0  0  0  0  0
   -7.7506   -5.7981   11.2854 O   0  0  0  0  0  0  0  0  0  0  0  0
   -8.0682   -6.1875    8.8982 C   0  0  1  0  0  0  0  0  0  0  0  0
   -7.0870   -5.1469    8.7852 O   0  0  0  0  0  0  0  0  0  0  0  0
   -7.5815   -7.3165    8.0114 C   0  0  2  0  0  0  0  0  0  0  0  0
  -12.3873   -7.1607    6.2978 N   0  0  0  0  0  0  0  0  0  0  0  0
  -11.6025   -6.1552    6.7478 C   0  0  1  0  0  0  0  0  0  0  0  0
  -12.0928   -4.8952    6.7705 N   0  0  0  0  0  0  0  0  0  0  0  0
  -10.3400   -6.3944    7.1734 N   0  0  0  0  0  0  0  0  0  0  0  0
   -9.8548   -7.6588    7.1488 C   0  0  1  0  0  0  0  0  0  0  0  0
  -10.6346   -8.7048    6.6959 C   0  0  2  0  0  0  0  0  0  0  0  0
  -11.9272   -8.4325    6.2636 C   0  0  0  0  0  0  0  0  0  0  0  0
  -12.6648   -9.3475    5.8472 O   0  0  0  0  0  0  0  0  0  0  0  0
   -9.8934   -9.8273    6.7942 N   0  0  0  0  0  0  0  0  0  0  0  0
   -8.6824   -9.4801    7.2890 C   0  0  0  0  0  0  0  0  0  0  0  0
   -8.6767   -8.1595    7.4968 N   0  0  1  0  0  0  0  0  0  0  0  0
  1  2  1  6  0  0  0
  1  3  1  0  0  0  0
  1  4  2  0  0  0  0
  1  6  1  0  0  0  0
  5  6  1  0  0  0  0
  7  5  1  1  0  0  0
  7  8  1  0  0  0  0
  7  9  1  0  0  0  0
  9 10  1  1  0  0  0
  9 11  1  0  0  0  0
 11 12  1  1  0  0  0
 11 13  1  0  0  0  0
 13  8  1  1  0  0  0
 13 24  1  0  0  0  0
 14 15  1  0  0  0  0
 14 20  1  0  0  0  0
 15 16  1  1  0  0  0
 15 17  1  0  0  0  0
 18 17  1  6  0  0  0
 18 19  1  0  0  0  0
 18 24  1  0  0  0  0
 19 20  1  1  0  0  0
 19 22  1  0  0  0  0
 20 21  2  0  0  0  0
 22 23  1  0  0  0  0
 24 23  1  6  0  0  0
M  CHG  1   3  -1
M  END
>  <CHROM.1>
175.17603625,-71.38214604,-174.45881349,151.96500282,-9.21534607,-8.33725033
9.07051904,0.93525430,0.73087747,2.53207481

>  <Name>
ligand

>  <RI>
0

>  <Rbt.Current_Directory>
/home/itssahil/PROJECTS/Mol_Feturizer/New_Systems/rnas/3SLQ

>  <Rbt.Executable>
rbdock ($Id: //depot/dev/client3/rdock/2013.1/src/exe/rbdock.cxx#4 $)

>  <Rbt.Library>
libRbt.so (2013.1, Build901 2013/11/27)

>  <Rbt.Parameter_File>
/export/apps/rDock/src/rDock_2013.1_src/data/scripts/dock_solv.prm

>  <Rbt.Receptor>
prm/pocket_docking_7.prm

>  <SCORE>
-14.2035

>  <SCORE.INTER>
-8.71734

>  <SCORE.INTER.CONST>
1

>  <SCORE.INTER.POLAR>
0

>  <SCORE.INTER.ROT>
4

>  <SCORE.INTER.SOLV>
15.6465

>  <SCORE.INTER.VDW>
-17.2937

>  <SCORE.INTER.norm>
-0.363222

>  <SCORE.INTRA>
-5.48615

>  <SCORE.INTRA.DIHEDRAL>
-11.4274

>  <SCORE.INTRA.DIHEDRAL.0>
13.2525

>  <SCORE.INTRA.POLAR>
0

>  <SCORE.INTRA.POLAR.0>
0

>  <SCORE.INTRA.REPUL>
0

>  <SCORE.INTRA.REPUL.0>
0

>  <SCORE.INTRA.SOLV>
0.647586

>  <SCORE.INTRA.SOLV.lig_0>
-70.7221

>  <SCORE.INTRA.VDW>
-0.0962252

>  <SCORE.INTRA.VDW.0>
-1.46337

>  <SCORE.INTRA.norm>
-0.22859

>  <SCORE.RESTR>
0

>  <SCORE.RESTR.CAVITY>
0

>  <SCORE.RESTR.norm>
0

>  <SCORE.SYSTEM>
0

>  <SCORE.SYSTEM.CONST>
0

>  <SCORE.SYSTEM.DIHEDRAL>
0

>  <SCORE.SYSTEM.SOLV>
0

>  <SCORE.SYSTEM.norm>
0

>  <SCORE.heavy>
24

>  <SCORE.norm>
-0.591812

>  <RMSD>
6.626

$$$$
ligand
 OpenBabel11021811483D
libRbt.so/2013.1/901 2013/11/27
 24 26  0  0  0  0  0  0  0  0999 V2000
   -8.9776  -10.8534   11.7834 P   0  0  1  0  0  0  0  0  0  0  0  0
   -8.1719  -12.0247   11.2634 O   0  0  0  0  0  0  0  0  0  0  0  0
  -10.4416  -10.8292   11.4123 O   0  5  0  0  0  0  0  0  0  0  0  0
   -8.7384  -10.5416   13.2532 O   0  0  0  0  0  0  0  0  0  0  0  0
   -7.1329   -8.9891   11.1237 C   0  0  0  0  0  0  0  0  0  0  0  0
   -8.4238   -9.5910   10.9250 O   0  0  0  0  0  0  0  0  0  0  0  0
   -6.9751   -7.7781   10.1994 C   0  0  1  0  0  0  0  0  0  0  0  0
   -6.8618   -8.1664    8.8245 O   0  0  0  0  0  0  0  0  0  0  0  0
   -8.1212   -6.7824   10.2513 C   0  0  1  0  0  0  0  0  0  0  0  0
   -7.8321   -5.7951   11.2455 O   0  0  0  0  0  0  0  0  0  0  0  0
   -8.1271   -6.1820    8.8550 C   0  0  1  0  0  0  0  0  0  0  0  0
   -7.1475   -5.1389    8.7523 O   0  0  0  0  0  0  0  0  0  0  0  0
   -7.6296   -7.3086    7.9712 C   0  0  2  0  0  0  0  0  0  0  0  0
  -12.4397   -7.1704    6.2681 N   0  0  0  0  0  0  0  0  0  0  0  0
  -11.6633   -6.1648    6.7322 C   0  0  1  0  0  0  0  0  0  0  0  0
  -12.1650   -4.9099    6.7750 N   0  0  0  0  0  0  0  0  0  0  0  0
  -10.3980   -6.3990    7.1520 N   0  0  0  0  0  0  0  0  0  0  0  0
   -9.9013   -7.6584    7.1072 C   0  0  1  0  0  0  0  0  0  0  0  0
  -10.6723   -8.7044    6.6397 C   0  0  2  0  0  0  0  0  0  0  0  0
  -11.9682   -8.4374    6.2137 C   0  0  0  0  0  0  0  0  0  0  0  0
  -12.6981   -9.3526    5.7846 O   0  0  0  0  0  0  0  0  0  0  0  0
   -9.9209   -9.8215    6.7196 N   0  0  0  0  0  0  0  0  0  0  0  0
   -8.7122   -9.4708    7.2176 C   0  0  0  0  0  0  0  0  0  0  0  0
   -8.7181   -8.1536    7.4456 N   0  0  1  0  0  0  0  0  0  0  0  0
  1  2  1  6  0  0  0
  1  3  1  0  0  0  0
  1  4  2  0  0  0  0
  1  6  1  0  0  0  0
  5  6  1  0  0  0  0
  7  5  1  1  0  0  0
  7  8  1  0  0  0  0
  7  9  1  0  0  0  0
  9 10  1  1  0  0  0
  9 11  1  0  0  0  0
 11 12  1  1  0  0  0
 11 13  1  0  0  0  0
 13  8  1  1  0  0  0
 13 24  1  0  0  0  0
 14 15  1  0  0  0  0
 14 20  1  0  0  0  0
 15 16  1  1  0  0  0
 15 17  1  0  0  0  0
 18 17  1  6  0  0  0
 18 19  1  0  0  0  0
 18 24  1  0  0  0  0
 19 20  1  1  0  0  0
 19 22  1  0  0  0  0
 20 21  2  0  0  0  0
 22 23  1  0  0  0  0
 24 23  1  6  0  0  0
M  CHG  1   3  -1
M  END
>  <CHROM.1>
-72.70350362,-69.76842736,-176.79545285,150.88475857,-9.26829504,-8.35321767
9.00497805,0.93049722,0.73576288,2.55377009

>  <Name>
ligand

>  <RI>
0

>  <Rbt.Current_Directory>
/home/itssahil/PROJECTS/Mol_Feturizer/New_Systems/rnas/3SLQ

>  <Rbt.Executable>
rbdock ($Id: //depot/dev/client3/rdock/2013.1/src/exe/rbdock.cxx#4 $)

>  <Rbt.Library>
libRbt.so (2013.1, Build901 2013/11/27)

>  <Rbt.Parameter_File>
/export/apps/rDock/src/rDock_2013.1_src/data/scripts/dock_solv.prm

>  <Rbt.Receptor>
prm/pocket_docking_7.prm

>  <SCORE>
-14.2838

>  <SCORE.INTER>
-8.41404

>  <SCORE.INTER.CONST>
1

>  <SCORE.INTER.POLAR>
0

>  <SCORE.INTER.ROT>
4

>  <SCORE.INTER.SOLV>
17.8189

>  <SCORE.INTER.VDW>
-17.8157

>  <SCORE.INTER.norm>
-0.350585

>  <SCORE.INTRA>
-5.86974

>  <SCORE.INTRA.DIHEDRAL>
-11.4289

>  <SCORE.INTRA.DIHEDRAL.0>
13.2525

>  <SCORE.INTRA.POLAR>
0

>  <SCORE.INTRA.POLAR.0>
0

>  <SCORE.INTRA.REPUL>
0

>  <SCORE.INTRA.REPUL.0>
0

>  <SCORE.INTRA.SOLV>
0.0927586

>  <SCORE.INTRA.SOLV.lig_0>
-70.7221

>  <SCORE.INTRA.VDW>
-0.20168

>  <SCORE.INTRA.VDW.0>
-1.46337

>  <SCORE.INTRA.norm>
-0.244572

>  <SCORE.RESTR>
0

>  <SCORE.RESTR.CAVITY>
0

>  <SCORE.RESTR.norm>
0

>  <SCORE.SYSTEM>
0

>  <SCORE.SYSTEM.CONST>
0

>  <SCORE.SYSTEM.DIHEDRAL>
0

>  <SCORE.SYSTEM.SOLV>
0

>  <SCORE.SYSTEM.norm>
0

>  <SCORE.heavy>
24

>  <SCORE.norm>
-0.595158

>  <RMSD>
6.669

$$$$
ligand
 OpenBabel11021811483D
libRbt.so/2013.1/901 2013/11/27
 24 26  0  0  0  0  0  0  0  0999 V2000
   -8.4098  -10.3225   11.2388 P   0  0  1  0  0  0  0  0  0  0  0  0
   -7.8239  -10.7928    9.9246 O   0  0  0  0  0  0  0  0  0  0  0  0
   -9.9171  -10.3175   11.3371 O   0  5  0  0  0  0  0  0  0  0  0  0
   -7.7426  -10.9266   12.4654 O   0  0  0  0  0  0  0  0  0  0  0  0
   -8.5369   -7.8148   10.2344 C   0  0  0  0  0  0  0  0  0  0  0  0
   -8.0973   -8.7290   11.2538 O   0  0  0  0  0  0  0  0  0  0  0  0
   -8.1170   -6.3876   10.5985 C   0  0  1  0  0  0  0  0  0  0  0  0
   -8.6495   -5.9807   11.8654 O   0  0  0  0  0  0  0  0  0  0  0  0
   -6.6168   -6.1690   10.6947 C   0  0  1  0  0  0  0  0  0  0  0  0
   -6.1252   -5.7611    9.4145 O   0  0  0  0  0  0  0  0  0  0  0  0
   -6.4903   -5.0549   11.7209 C   0  0  1  0  0  0  0  0  0  0  0  0
   -6.6966   -3.7767   11.1030 O   0  0  0  0  0  0  0  0  0  0  0  0
   -7.6765   -5.2691   12.6401 C   0  0  2  0  0  0  0  0  0  0  0  0
   -9.8110   -7.8122   16.5174 N   0  0  0  0  0  0  0  0  0  0  0  0
  -10.3907   -7.0218   15.5854 C   0  0  1  0  0  0  0  0  0  0  0  0
  -11.7297   -6.8361   15.6184 N   0  0  0  0  0  0  0  0  0  0  0  0
   -9.6505   -6.4180   14.6264 N   0  0  0  0  0  0  0  0  0  0  0  0
   -8.3095   -6.6075   14.5990 C   0  0  1  0  0  0  0  0  0  0  0  0
   -7.6909   -7.4080   15.5391 C   0  0  2  0  0  0  0  0  0  0  0  0
   -8.4737   -8.0173   16.5128 C   0  0  0  0  0  0  0  0  0  0  0  0
   -7.9556   -8.7477   17.3804 O   0  0  0  0  0  0  0  0  0  0  0  0
   -6.3708   -7.4008   15.2635 N   0  0  0  0  0  0  0  0  0  0  0  0
   -6.1810   -6.6201   14.1743 C   0  0  0  0  0  0  0  0  0  0  0  0
   -7.3692   -6.1482   13.7837 N   0  0  1  0  0  0  0  0  0  0  0  0
  1  2  1  6  0  0  0
  1  3  1  0  0  0  0
  1  4  2  0  0  0  0
  1  6  1  0  0  0  0
  5  6  1  0  0  0  0
  7  5  1  1  0  0  0
  7  8  1  0  0  0  0
  7  9  1  0  0  0  0
  9 10  1  6  0  0  0
  9 11  1  0  0  0  0
 11 12  1  6  0  0  0
 11 13  1  0  0  0  0
 13  8  1  6  0  0  0
 13 24  1  0  0  0  0
 14 15  1  0  0  0  0
 14 20  1  0  0  0  0
 15 16  1  1  0  0  0
 15 17  1  0  0  0  0
 18 17  1  6  0  0  0
 18 19  1  0  0  0  0
 18 24  1  0  0  0  0
 19 20  1  1  0  0  0
 19 22  1  0  0  0  0
 20 21  2  0  0  0  0
 22 23  1  0  0  0  0
 24 23  1  6  0  0  0
M  CHG  1   3  -1
M  END
>  <CHROM.1>
57.51863169,-58.23887898,177.60658993,-55.39508454,-8.12848047,-7.54882097
12.89978088,0.84203215,-1.17013228,-2.28433535

>  <Name>
ligand

>  <RI>
0

>  <Rbt.Current_Directory>
/home/itssahil/PROJECTS/Mol_Feturizer/New_Systems/rnas/3SLQ

>  <Rbt.Executable>
rbdock ($Id: //depot/dev/client3/rdock/2013.1/src/exe/rbdock.cxx#4 $)

>  <Rbt.Library>
libRbt.so (2013.1, Build901 2013/11/27)

>  <Rbt.Parameter_File>
/export/apps/rDock/src/rDock_2013.1_src/data/scripts/dock_solv.prm

>  <Rbt.Receptor>
prm/pocket_docking_5.prm

>  <SCORE>
-13.3149

>  <SCORE.INTER>
-6.75308

>  <SCORE.INTER.CONST>
1

>  <SCORE.INTER.POLAR>
0

>  <SCORE.INTER.ROT>
4

>  <SCORE.INTER.SOLV>
12.5305

>  <SCORE.INTER.VDW>
-14.9455

>  <SCORE.INTER.norm>
-0.281378

>  <SCORE.INTRA>
-6.56181

>  <SCORE.INTRA.DIHEDRAL>
-11.9978

>  <SCORE.INTRA.DIHEDRAL.0>
13.2525

>  <SCORE.INTRA.POLAR>
0

>  <SCORE.INTRA.POLAR.0>
0

>  <SCORE.INTRA.REPUL>
0

>  <SCORE.INTRA.REPUL.0>
0

>  <SCORE.INTRA.SOLV>
0.0835213

>  <SCORE.INTRA.SOLV.lig_0>
-70.7221

>  <SCORE.INTRA.VDW>
-0.604671

>  <SCORE.INTRA.VDW.0>
-1.46337

>  <SCORE.INTRA.norm>
-0.273409

>  <SCORE.RESTR>
0

>  <SCORE.RESTR.CAVITY>
0

>  <SCORE.RESTR.norm>
0

>  <SCORE.SYSTEM>
0

>  <SCORE.SYSTEM.CONST>
0

>  <SCORE.SYSTEM.DIHEDRAL>
0

>  <SCORE.SYSTEM.SOLV>
0

>  <SCORE.SYSTEM.norm>
0

>  <SCORE.heavy>
24

>  <SCORE.norm>
-0.554787

>  <RMSD>
6.672

$$$$
ligand
 OpenBabel11021811483D
libRbt.so/2013.1/901 2013/11/27
 24 26  0  0  0  0  0  0  0  0999 V2000
  -10.6434   -8.8787    9.6203 P   0  0  1  0  0  0  0  0  0  0  0  0
  -12.0984   -8.4918    9.4630 O   0  0  0  0  0  0  0  0  0  0  0  0
  -10.2972   -9.7050   10.8366 O   0  5  0  0  0  0  0  0  0  0  0  0
  -10.0032   -9.4104    8.3467 O   0  0  0  0  0  0  0  0  0  0  0  0
   -8.4865   -7.2711    9.8977 C   0  0  0  0  0  0  0  0  0  0  0  0
   -9.9072   -7.4775    9.9832 O   0  0  0  0  0  0  0  0  0  0  0  0
   -8.1361   -5.8576   10.3719 C   0  0  1  0  0  0  0  0  0  0  0  0
   -8.3902   -5.6852   11.7718 O   0  0  0  0  0  0  0  0  0  0  0  0
   -6.6854   -5.4569   10.1659 C   0  0  1  0  0  0  0  0  0  0  0  0
   -6.5549   -4.8317    8.8857 O   0  0  0  0  0  0  0  0  0  0  0  0
   -6.4302   -4.4724   11.2954 C   0  0  1  0  0  0  0  0  0  0  0  0
   -6.9032   -3.1656   10.9395 O   0  0  0  0  0  0  0  0  0  0  0  0
   -7.3367   -4.9536   12.4109 C   0  0  2  0  0  0  0  0  0  0  0  0
   -8.2134   -8.1666   16.2794 N   0  0  0  0  0  0  0  0  0  0  0  0
   -9.0717   -7.3441   15.6342 C   0  0  1  0  0  0  0  0  0  0  0  0
  -10.3704   -7.3199   16.0098 N   0  0  0  0  0  0  0  0  0  0  0  0
   -8.6479   -6.5498   14.6234 N   0  0  0  0  0  0  0  0  0  0  0  0
   -7.3456   -6.5781   14.2522 C   0  0  1  0  0  0  0  0  0  0  0  0
   -6.4469   -7.4070   14.8946 C   0  0  2  0  0  0  0  0  0  0  0  0
   -6.9075   -8.2134   15.9288 C   0  0  0  0  0  0  0  0  0  0  0  0
   -6.1298   -8.9762   16.5354 O   0  0  0  0  0  0  0  0  0  0  0  0
   -5.2431   -7.2145   14.3178 N   0  0  0  0  0  0  0  0  0  0  0  0
   -5.3977   -6.2940   13.3377 C   0  0  0  0  0  0  0  0  0  0  0  0
   -6.6809   -5.9201   13.3114 N   0  0  1  0  0  0  0  0  0  0  0  0
  1  2  1  6  0  0  0
  1  3  1  0  0  0  0
  1  4  2  0  0  0  0
  1  6  1  0  0  0  0
  5  6  1  0  0  0  0
  7  5  1  1  0  0  0
  7  8  1  0  0  0  0
  7  9  1  0  0  0  0
  9 10  1  6  0  0  0
  9 11  1  0  0  0  0
 11 12  1  6  0  0  0
 11 13  1  0  0  0  0
 13  8  1  6  0  0  0
 13 24  1  0  0  0  0
 14 15  1  0  0  0  0
 14 20  1  0  0  0  0
 15 16  1  1  0  0  0
 15 17  1  0  0  0  0
 18 17  1  6  0  0  0
 18 19  1  0  0  0  0
 18 24  1  0  0  0  0
 19 20  1  1  0  0  0
 19 22  1  0  0  0  0
 20 21  2  0  0  0  0
 22 23  1  0  0  0  0
 24 23  1  6  0  0  0
M  CHG  1   3  -1
M  END
>  <CHROM.1>
-163.76491401,66.87406569,-177.48275821,-56.71695944,-8.21112876,-7.02202044
12.20415423,2.22080390,-0.76021474,-1.20380762

>  <Name>
ligand

>  <RI>
0

>  <Rbt.Current_Directory>
/home/itssahil/PROJECTS/Mol_Feturizer/New_Systems/rnas/3SLQ

>  <Rbt.Executable>
rbdock ($Id: //depot/dev/client3/rdock/2013.1/src/exe/rbdock.cxx#4 $)

>  <Rbt.Library>
libRbt.so (2013.1, Build901 2013/11/27)

>  <Rbt.Parameter_File>
/export/apps/rDock/src/rDock_2013.1_src/data/scripts/dock_solv.prm

>  <Rbt.Receptor>
prm/pocket_docking_4.prm

>  <SCORE>
-11.9883

>  <SCORE.INTER>
-6.36074

>  <SCORE.INTER.CONST>
1

>  <SCORE.INTER.POLAR>
0

>  <SCORE.INTER.ROT>
4

>  <SCORE.INTER.SOLV>
11.333

>  <SCORE.INTER.VDW>
-14.2848

>  <SCORE.INTER.norm>
-0.265031

>  <SCORE.INTRA>
-5.62759

>  <SCORE.INTRA.DIHEDRAL>
-11.4375

>  <SCORE.INTRA.DIHEDRAL.0>
13.2525

>  <SCORE.INTRA.POLAR>
0

>  <SCORE.INTRA.POLAR.0>
0

>  <SCORE.INTRA.REPUL>
0

>  <SCORE.INTRA.REPUL.0>
0

>  <SCORE.INTRA.SOLV>
0.465955

>  <SCORE.INTRA.SOLV.lig_0>
-70.7221

>  <SCORE.INTRA.VDW>
-0.141789

>  <SCORE.INTRA.VDW.0>
-1.46337

>  <SCORE.INTRA.norm>
-0.234483

>  <SCORE.RESTR>
0

>  <SCORE.RESTR.CAVITY>
0

>  <SCORE.RESTR.norm>
0

>  <SCORE.SYSTEM>
0

>  <SCORE.SYSTEM.CONST>
0

>  <SCORE.SYSTEM.DIHEDRAL>
0

>  <SCORE.SYSTEM.SOLV>
0

>  <SCORE.SYSTEM.norm>
0

>  <SCORE.heavy>
24

>  <SCORE.norm>
-0.499514

>  <RMSD>
6.677

$$$$
ligand
 OpenBabel11021811483D
libRbt.so/2013.1/901 2013/11/27
 24 26  0  0  0  0  0  0  0  0999 V2000
   -6.1236   -1.7845   10.2473 P   0  0  1  0  0  0  0  0  0  0  0  0
   -6.2923   -2.7369   11.4117 O   0  0  0  0  0  0  0  0  0  0  0  0
   -7.0122   -0.5629   10.2462 O   0  5  0  0  0  0  0  0  0  0  0  0
   -4.6742   -1.4575    9.9201 O   0  0  0  0  0  0  0  0  0  0  0  0
   -7.7222   -3.6408    9.1018 C   0  0  0  0  0  0  0  0  0  0  0  0
   -6.7311   -2.6053    8.9846 O   0  0  0  0  0  0  0  0  0  0  0  0
   -7.0479   -5.0151    9.0526 C   0  0  1  0  0  0  0  0  0  0  0  0
   -6.0811   -5.1737   10.0987 O   0  0  0  0  0  0  0  0  0  0  0  0
   -7.9948   -6.1954    9.1867 C   0  0  1  0  0  0  0  0  0  0  0  0
   -8.4251   -6.5944    7.8820 O   0  0  0  0  0  0  0  0  0  0  0  0
   -7.1329   -7.2633    9.8401 C   0  0  1  0  0  0  0  0  0  0  0  0
   -6.3367   -7.9382    8.8558 O   0  0  0  0  0  0  0  0  0  0  0  0
   -6.1594   -6.4750   10.6936 C   0  0  2  0  0  0  0  0  0  0  0  0
   -5.8842   -8.2604   15.4678 N   0  0  0  0  0  0  0  0  0  0  0  0
   -5.2984   -8.7261   14.3412 C   0  0  1  0  0  0  0  0  0  0  0  0
   -4.5039   -9.8180   14.4136 N   0  0  0  0  0  0  0  0  0  0  0  0
   -5.4974   -8.1159   13.1495 N   0  0  0  0  0  0  0  0  0  0  0  0
   -6.2948   -7.0229   13.0833 C   0  0  1  0  0  0  0  0  0  0  0  0
   -6.9069   -6.5267   14.2175 C   0  0  2  0  0  0  0  0  0  0  0  0
   -6.6857   -7.1711   15.4290 C   0  0  0  0  0  0  0  0  0  0  0  0
   -7.2190   -6.7563   16.4770 O   0  0  0  0  0  0  0  0  0  0  0  0
   -7.6316   -5.4527   13.8430 N   0  0  0  0  0  0  0  0  0  0  0  0
   -7.4639   -5.2863   12.5103 C   0  0  0  0  0  0  0  0  0  0  0  0
   -6.6481   -6.2478   12.0664 N   0  0  1  0  0  0  0  0  0  0  0  0
  1  2  1  1  0  0  0
  1  3  1  0  0  0  0
  1  4  2  0  0  0  0
  1  6  1  0  0  0  0
  5  6  1  0  0  0  0
  7  5  1  1  0  0  0
  7  8  1  0  0  0  0
  7  9  1  0  0  0  0
  9 10  1  6  0  0  0
  9 11  1  0  0  0  0
 11 12  1  6  0  0  0
 11 13  1  0  0  0  0
 13  8  1  6  0  0  0
 13 24  1  0  0  0  0
 14 15  1  0  0  0  0
 14 20  1  0  0  0  0
 15 16  1  6  0  0  0
 15 17  1  0  0  0  0
 18 17  1  1  0  0  0
 18 19  1  0  0  0  0
 18 24  1  0  0  0  0
 19 20  1  6  0  0  0
 19 22  1  0  0  0  0
 20 21  2  0  0  0  0
 22 23  1  0  0  0  0
 24 23  1  1  0  0  0
M  CHG  1   3  -1
M  END
>  <CHROM.1>
25.75521466,58.76271225,-99.14065369,-148.25078348,-6.54878918,-5.40682727
11.52488425,-2.04472665,1.41848088,2.85621217

>  <Name>
ligand

>  <RI>
0

>  <Rbt.Current_Directory>
/home/itssahil/PROJECTS/Mol_Feturizer/New_Systems/rnas/3SLQ

>  <Rbt.Executable>
rbdock ($Id: //depot/dev/client3/rdock/2013.1/src/exe/rbdock.cxx#4 $)

>  <Rbt.Library>
libRbt.so (2013.1, Build901 2013/11/27)

>  <Rbt.Parameter_File>
/export/apps/rDock/src/rDock_2013.1_src/data/scripts/dock_solv.prm

>  <Rbt.Receptor>
prm/pocket_docking_3.prm

>  <SCORE>
-11.8873

>  <SCORE.INTER>
-8.57352

>  <SCORE.INTER.CONST>
1

>  <SCORE.INTER.POLAR>
0

>  <SCORE.INTER.ROT>
4

>  <SCORE.INTER.SOLV>
20.3134

>  <SCORE.INTER.VDW>
-18.7535

>  <SCORE.INTER.norm>
-0.35723

>  <SCORE.INTRA>
-3.34442

>  <SCORE.INTRA.DIHEDRAL>
-5.30787

>  <SCORE.INTRA.DIHEDRAL.0>
13.2525

>  <SCORE.INTRA.POLAR>
0

>  <SCORE.INTRA.POLAR.0>
0

>  <SCORE.INTRA.REPUL>
0

>  <SCORE.INTRA.REPUL.0>
0

>  <SCORE.INTRA.SOLV>
0.620493

>  <SCORE.INTRA.SOLV.lig_0>
-70.7221

>  <SCORE.INTRA.VDW>
-1.00073

>  <SCORE.INTRA.VDW.0>
-1.46337

>  <SCORE.INTRA.norm>
-0.139351

>  <SCORE.RESTR>
0.0306686

>  <SCORE.RESTR.CAVITY>
0.0306686

>  <SCORE.RESTR.norm>
0.00127786

>  <SCORE.SYSTEM>
0

>  <SCORE.SYSTEM.CONST>
0

>  <SCORE.SYSTEM.DIHEDRAL>
0

>  <SCORE.SYSTEM.SOLV>
0

>  <SCORE.SYSTEM.norm>
0

>  <SCORE.heavy>
24

>  <SCORE.norm>
-0.495303

>  <RMSD>
6.709

$$$$
ligand
 OpenBabel11021811483D
libRbt.so/2013.1/901 2013/11/27
 24 26  0  0  0  0  0  0  0  0999 V2000
   -6.4159   -5.9067   10.8956 P   0  0  1  0  0  0  0  0  0  0  0  0
   -5.2090   -6.5721   11.5218 O   0  0  0  0  0  0  0  0  0  0  0  0
   -6.4065   -4.3965   10.8618 O   0  5  0  0  0  0  0  0  0  0  0  0
   -6.8446   -6.5218    9.5718 O   0  0  0  0  0  0  0  0  0  0  0  0
   -7.6989   -5.5375   13.2475 C   0  0  0  0  0  0  0  0  0  0  0  0
   -7.6073   -6.1809   11.9646 O   0  0  0  0  0  0  0  0  0  0  0  0
   -8.7938   -6.2029   14.0868 C   0  0  1  0  0  0  0  0  0  0  0  0
   -9.9844   -6.4359   13.3239 O   0  0  0  0  0  0  0  0  0  0  0  0
   -8.4146   -7.5502   14.6773 C   0  0  1  0  0  0  0  0  0  0  0  0
   -7.8421   -7.3437   15.9721 O   0  0  0  0  0  0  0  0  0  0  0  0
   -9.7447   -8.2803   14.7663 C   0  0  1  0  0  0  0  0  0  0  0  0
  -10.4523   -7.8930   15.9527 O   0  0  0  0  0  0  0  0  0  0  0  0
  -10.5445   -7.7247   13.6047 C   0  0  2  0  0  0  0  0  0  0  0  0
  -10.5650   -7.3364    8.5149 N   0  0  0  0  0  0  0  0  0  0  0  0
  -10.7883   -6.3852    9.4501 C   0  0  1  0  0  0  0  0  0  0  0  0
  -11.0566   -5.1205    9.0538 N   0  0  0  0  0  0  0  0  0  0  0  0
  -10.7470   -6.6829   10.7699 N   0  0  0  0  0  0  0  0  0  0  0  0
  -10.4784   -7.9518   11.1606 C   0  0  1  0  0  0  0  0  0  0  0  0
  -10.2481   -8.9433   10.2273 C   0  0  2  0  0  0  0  0  0  0  0  0
  -10.2954   -8.6114    8.8784 C   0  0  0  0  0  0  0  0  0  0  0  0
  -10.0936   -9.4761    8.0030 O   0  0  0  0  0  0  0  0  0  0  0  0
  -10.0179  -10.0856   10.9065 N   0  0  0  0  0  0  0  0  0  0  0  0
  -10.0969   -9.8029   12.2278 C   0  0  0  0  0  0  0  0  0  0  0  0
  -10.3758   -8.5025   12.3631 N   0  0  1  0  0  0  0  0  0  0  0  0
  1  2  1  1  0  0  0
  1  3  1  0  0  0  0
  1  4  2  0  0  0  0
  1  6  1  0  0  0  0
  5  6  1  0  0  0  0
  7  5  1  6  0  0  0
  7  8  1  0  0  0  0
  7  9  1  0  0  0  0
  9 10  1  1  0  0  0
  9 11  1  0  0  0  0
 11 12  1  1  0  0  0
 11 13  1  0  0  0  0
 13  8  1  6  0  0  0
 13 24  1  0  0  0  0
 14 15  1  0  0  0  0
 14 20  1  0  0  0  0
 15 16  1  6  0  0  0
 15 17  1  0  0  0  0
 18 17  1  1  0  0  0
 18 19  1  0  0  0  0
 18 24  1  0  0  0  0
 19 20  1  6  0  0  0
 19 22  1  0  0  0  0
 20 21  2  0  0  0  0
 22 23  1  0  0  0  0
 24 23  1  1  0  0  0
M  CHG  1   3  -1
M  END
>  <CHROM.1>
71.57412801,-44.58750176,-170.13839908,-35.58792416,-8.97727802,-7.19216963
11.73721119,-1.83149587,0.60673434,1.63469604

>  <Name>
ligand

>  <RI>
0

>  <Rbt.Current_Directory>
/home/itssahil/PROJECTS/Mol_Feturizer/New_Systems/rnas/3SLQ

>  <Rbt.Executable>
rbdock ($Id: //depot/dev/client3/rdock/2013.1/src/exe/rbdock.cxx#4 $)

>  <Rbt.Library>
libRbt.so (2013.1, Build901 2013/11/27)

>  <Rbt.Parameter_File>
/export/apps/rDock/src/rDock_2013.1_src/data/scripts/dock_solv.prm

>  <Rbt.Receptor>
prm/pocket_docking_4.prm

>  <SCORE>
-12.3375

>  <SCORE.INTER>
-6.25169

>  <SCORE.INTER.CONST>
1

>  <SCORE.INTER.POLAR>
0

>  <SCORE.INTER.ROT>
4

>  <SCORE.INTER.SOLV>
13.4352

>  <SCORE.INTER.VDW>
-14.9129

>  <SCORE.INTER.norm>
-0.260487

>  <SCORE.INTRA>
-6.08581

>  <SCORE.INTRA.DIHEDRAL>
-10.5344

>  <SCORE.INTRA.DIHEDRAL.0>
13.2525

>  <SCORE.INTRA.POLAR>
0

>  <SCORE.INTRA.POLAR.0>
0

>  <SCORE.INTRA.REPUL>
0

>  <SCORE.INTRA.REPUL.0>
0

>  <SCORE.INTRA.SOLV>
0.303149

>  <SCORE.INTRA.SOLV.lig_0>
-70.7221

>  <SCORE.INTRA.VDW>
-0.970176

>  <SCORE.INTRA.VDW.0>
-1.46337

>  <SCORE.INTRA.norm>
-0.253576

>  <SCORE.RESTR>
0

>  <SCORE.RESTR.CAVITY>
0

>  <SCORE.RESTR.norm>
0

>  <SCORE.SYSTEM>
0

>  <SCORE.SYSTEM.CONST>
0

>  <SCORE.SYSTEM.DIHEDRAL>
0

>  <SCORE.SYSTEM.SOLV>
0

>  <SCORE.SYSTEM.norm>
0

>  <SCORE.heavy>
24

>  <SCORE.norm>
-0.514063

>  <RMSD>
6.727

$$$$
ligand
 OpenBabel11021811483D
libRbt.so/2013.1/901 2013/11/27
 24 26  0  0  0  0  0  0  0  0999 V2000
   -8.8070   -7.6741    7.1762 P   0  0  1  0  0  0  0  0  0  0  0  0
   -9.2348   -6.2306    7.3330 O   0  0  0  0  0  0  0  0  0  0  0  0
   -9.8933   -8.7143    7.3169 O   0  5  0  0  0  0  0  0  0  0  0  0
   -7.9040   -7.9254    5.9779 O   0  0  0  0  0  0  0  0  0  0  0  0
   -6.7695   -7.2062    8.8918 C   0  0  0  0  0  0  0  0  0  0  0  0
   -7.9304   -7.9653    8.5119 O   0  0  0  0  0  0  0  0  0  0  0  0
   -7.1922   -5.8173    9.3796 C   0  0  1  0  0  0  0  0  0  0  0  0
   -8.0320   -5.8907   10.5387 O   0  0  0  0  0  0  0  0  0  0  0  0
   -6.0442   -4.8989    9.7623 C   0  0  1  0  0  0  0  0  0  0  0  0
   -5.6522   -4.1436    8.6122 O   0  0  0  0  0  0  0  0  0  0  0  0
   -6.6508   -4.0079   10.8339 C   0  0  1  0  0  0  0  0  0  0  0  0
   -7.3889   -2.9331   10.2353 O   0  0  0  0  0  0  0  0  0  0  0  0
   -7.6794   -4.8949   11.5070 C   0  0  2  0  0  0  0  0  0  0  0  0
   -9.0124   -7.3490   15.7798 N   0  0  0  0  0  0  0  0  0  0  0  0
   -9.7904   -6.7026   14.8818 C   0  0  1  0  0  0  0  0  0  0  0  0
  -11.1282   -6.6644   15.0747 N   0  0  0  0  0  0  0  0  0  0  0  0
   -9.2484   -6.0972   13.7993 N   0  0  0  0  0  0  0  0  0  0  0  0
   -7.9075   -6.1385   13.6119 C   0  0  1  0  0  0  0  0  0  0  0  0
   -7.0891   -6.7899   14.5136 C   0  0  2  0  0  0  0  0  0  0  0  0
   -7.6705   -7.4044   15.6165 C   0  0  0  0  0  0  0  0  0  0  0  0
   -6.9682   -8.0031   16.4550 O   0  0  0  0  0  0  0  0  0  0  0  0
   -5.8220   -6.6580   14.0708 N   0  0  0  0  0  0  0  0  0  0  0  0
   -5.8595   -5.9483   12.9188 C   0  0  0  0  0  0  0  0  0  0  0  0
   -7.1339   -5.6428   12.6551 N   0  0  1  0  0  0  0  0  0  0  0  0
  1  2  1  6  0  0  0
  1  3  1  0  0  0  0
  1  4  2  0  0  0  0
  1  6  1  0  0  0  0
  5  6  1  0  0  0  0
  7  5  1  1  0  0  0
  7  8  1  0  0  0  0
  7  9  1  0  0  0  0
  9 10  1  6  0  0  0
  9 11  1  0  0  0  0
 11 12  1  6  0  0  0
 11 13  1  0  0  0  0
 13  8  1  6  0  0  0
 13 24  1  0  0  0  0
 14 15  1  0  0  0  0
 14 20  1  0  0  0  0
 15 16  1  1  0  0  0
 15 17  1  0  0  0  0
 18 17  1  6  0  0  0
 18 19  1  0  0  0  0
 18 24  1  0  0  0  0
 19 20  1  1  0  0  0
 19 22  1  0  0  0  0
 20 21  2  0  0  0  0
 22 23  1  0  0  0  0
 24 23  1  6  0  0  0
M  CHG  1   3  -1
M  END
>  <CHROM.1>
-57.26236727,61.73909818,72.12190696,-85.95645059,-7.84995441,-6.40051391
11.10991178,1.58097081,-0.83167471,-1.58259275

>  <Name>
ligand

>  <RI>
0

>  <Rbt.Current_Directory>
/home/itssahil/PROJECTS/Mol_Feturizer/New_Systems/rnas/3SLQ

>  <Rbt.Executable>
rbdock ($Id: //depot/dev/client3/rdock/2013.1/src/exe/rbdock.cxx#4 $)

>  <Rbt.Library>
libRbt.so (2013.1, Build901 2013/11/27)

>  <Rbt.Parameter_File>
/export/apps/rDock/src/rDock_2013.1_src/data/scripts/dock_solv.prm

>  <Rbt.Receptor>
prm/pocket_docking_4.prm

>  <SCORE>
-15.6246

>  <SCORE.INTER>
-9.78473

>  <SCORE.INTER.CONST>
1

>  <SCORE.INTER.POLAR>
0

>  <SCORE.INTER.ROT>
4

>  <SCORE.INTER.SOLV>
22.2659

>  <SCORE.INTER.VDW>
-20.2118

>  <SCORE.INTER.norm>
-0.407697

>  <SCORE.INTRA>
-5.83991

>  <SCORE.INTRA.DIHEDRAL>
-11.3464

>  <SCORE.INTRA.DIHEDRAL.0>
13.2525

>  <SCORE.INTRA.POLAR>
0

>  <SCORE.INTRA.POLAR.0>
0

>  <SCORE.INTRA.REPUL>
0

>  <SCORE.INTRA.REPUL.0>
0

>  <SCORE.INTRA.SOLV>
0.730942

>  <SCORE.INTRA.SOLV.lig_0>
-70.7221

>  <SCORE.INTRA.VDW>
-0.532165

>  <SCORE.INTRA.VDW.0>
-1.46337

>  <SCORE.INTRA.norm>
-0.24333

>  <SCORE.RESTR>
0

>  <SCORE.RESTR.CAVITY>
0

>  <SCORE.RESTR.norm>
0

>  <SCORE.SYSTEM>
0

>  <SCORE.SYSTEM.CONST>
0

>  <SCORE.SYSTEM.DIHEDRAL>
0

>  <SCORE.SYSTEM.SOLV>
0

>  <SCORE.SYSTEM.norm>
0

>  <SCORE.heavy>
24

>  <SCORE.norm>
-0.651027

>  <RMSD>
6.732

$$$$
ligand
 OpenBabel11021811483D
libRbt.so/2013.1/901 2013/11/27
 24 26  0  0  0  0  0  0  0  0999 V2000
   -4.6611   -8.8307   15.2867 P   0  0  1  0  0  0  0  0  0  0  0  0
   -4.4414   -7.8950   16.4562 O   0  0  0  0  0  0  0  0  0  0  0  0
   -3.4340   -9.5238   14.7430 O   0  5  0  0  0  0  0  0  0  0  0  0
   -5.8404   -9.7755   15.4630 O   0  0  0  0  0  0  0  0  0  0  0  0
   -6.1128   -6.8997   14.0711 C   0  0  0  0  0  0  0  0  0  0  0  0
   -5.0197   -7.8341   14.0556 O   0  0  0  0  0  0  0  0  0  0  0  0
   -6.1713   -6.1445   12.7399 C   0  0  1  0  0  0  0  0  0  0  0  0
   -6.5336   -7.0052   11.6527 O   0  0  0  0  0  0  0  0  0  0  0  0
   -7.1640   -4.9952   12.7017 C   0  0  1  0  0  0  0  0  0  0  0  0
   -6.4998   -3.7959   13.1107 O   0  0  0  0  0  0  0  0  0  0  0  0
   -7.5732   -4.9345   11.2391 C   0  0  1  0  0  0  0  0  0  0  0  0
   -6.6045   -4.2010   10.4762 O   0  0  0  0  0  0  0  0  0  0  0  0
   -7.4694   -6.3725   10.7710 C   0  0  2  0  0  0  0  0  0  0  0  0
   -9.3659  -11.0814   11.3059 N   0  0  0  0  0  0  0  0  0  0  0  0
   -8.0825  -10.6848   11.1483 C   0  0  1  0  0  0  0  0  0  0  0  0
   -7.1023  -11.6160   11.1255 N   0  0  0  0  0  0  0  0  0  0  0  0
   -7.7701   -9.3747   11.0134 N   0  0  0  0  0  0  0  0  0  0  0  0
   -8.7566   -8.4466   11.0363 C   0  0  1  0  0  0  0  0  0  0  0  0
  -10.0758   -8.8234   11.1942 C   0  0  2  0  0  0  0  0  0  0  0  0
  -10.3700  -10.1749   11.3315 C   0  0  0  0  0  0  0  0  0  0  0  0
  -11.5476  -10.5582   11.4761 O   0  0  0  0  0  0  0  0  0  0  0  0
  -10.8182   -7.6976   11.1718 N   0  0  0  0  0  0  0  0  0  0  0  0
   -9.9753   -6.6508   11.0114 C   0  0  0  0  0  0  0  0  0  0  0  0
   -8.7278   -7.1245   10.9326 N   0  0  1  0  0  0  0  0  0  0  0  0
  1  2  1  1  0  0  0
  1  3  1  0  0  0  0
  1  4  2  0  0  0  0
  1  6  1  0  0  0  0
  5  6  1  0  0  0  0
  7  5  1  1  0  0  0
  7  8  1  0  0  0  0
  7  9  1  0  0  0  0
  9 10  1  6  0  0  0
  9 11  1  0  0  0  0
 11 12  1  6  0  0  0
 11 13  1  0  0  0  0
 13  8  1  1  0  0  0
 13 24  1  0  0  0  0
 14 15  1  0  0  0  0
 14 20  1  0  0  0  0
 15 16  1  6  0  0  0
 15 17  1  0  0  0  0
 18 17  1  1  0  0  0
 18 19  1  0  0  0  0
 18 24  1  0  0  0  0
 19 20  1  6  0  0  0
 19 22  1  0  0  0  0
 20 21  2  0  0  0  0
 22 23  1  0  0  0  0
 24 23  1  1  0  0  0
M  CHG  1   3  -1
M  END
>  <CHROM.1>
-57.51432819,67.56670841,-178.93448921,-40.89746723,-7.26202068,-7.95867682
12.54319440,-0.00972350,0.67829607,2.89227351

>  <Name>
ligand

>  <RI>
0

>  <Rbt.Current_Directory>
/home/itssahil/PROJECTS/Mol_Feturizer/New_Systems/rnas/3SLQ

>  <Rbt.Executable>
rbdock ($Id: //depot/dev/client3/rdock/2013.1/src/exe/rbdock.cxx#4 $)

>  <Rbt.Library>
libRbt.so (2013.1, Build901 2013/11/27)

>  <Rbt.Parameter_File>
/export/apps/rDock/src/rDock_2013.1_src/data/scripts/dock_solv.prm

>  <Rbt.Receptor>
prm/pocket_docking_5.prm

>  <SCORE>
-14.109

>  <SCORE.INTER>
-8.07228

>  <SCORE.INTER.CONST>
1

>  <SCORE.INTER.POLAR>
0

>  <SCORE.INTER.ROT>
4

>  <SCORE.INTER.SOLV>
11.511

>  <SCORE.INTER.VDW>
-15.4852

>  <SCORE.INTER.norm>
-0.336345

>  <SCORE.INTRA>
-6.04745

>  <SCORE.INTRA.DIHEDRAL>
-11.8144

>  <SCORE.INTRA.DIHEDRAL.0>
13.2525

>  <SCORE.INTRA.POLAR>
0

>  <SCORE.INTRA.POLAR.0>
0

>  <SCORE.INTRA.REPUL>
0

>  <SCORE.INTRA.REPUL.0>
0

>  <SCORE.INTRA.SOLV>
-0.125435

>  <SCORE.INTRA.SOLV.lig_0>
-70.7221

>  <SCORE.INTRA.VDW>
-0.0775441

>  <SCORE.INTRA.VDW.0>
-1.46337

>  <SCORE.INTRA.norm>
-0.251977

>  <SCORE.RESTR>
0.0107728

>  <SCORE.RESTR.CAVITY>
0.0107728

>  <SCORE.RESTR.norm>
0.000448868

>  <SCORE.SYSTEM>
0

>  <SCORE.SYSTEM.CONST>
0

>  <SCORE.SYSTEM.DIHEDRAL>
0

>  <SCORE.SYSTEM.SOLV>
0

>  <SCORE.SYSTEM.norm>
0

>  <SCORE.heavy>
24

>  <SCORE.norm>
-0.587873

>  <RMSD>
6.747

$$$$
ligand
 OpenBabel11021811483D
libRbt.so/2013.1/901 2013/11/27
 24 26  0  0  0  0  0  0  0  0999 V2000
  -11.4038   -7.0666   15.5712 P   0  0  1  0  0  0  0  0  0  0  0  0
  -10.9637   -8.4918   15.8294 O   0  0  0  0  0  0  0  0  0  0  0  0
  -12.7299   -6.8912   14.8696 O   0  5  0  0  0  0  0  0  0  0  0  0
  -11.2464   -6.1434   16.7702 O   0  0  0  0  0  0  0  0  0  0  0  0
  -10.3794   -7.0305   13.0687 C   0  0  0  0  0  0  0  0  0  0  0  0
  -10.3795   -6.5471   14.4231 O   0  0  0  0  0  0  0  0  0  0  0  0
  -10.0938   -8.5352   13.0528 C   0  0  1  0  0  0  0  0  0  0  0  0
  -10.3910   -9.1220   11.7795 O   0  0  0  0  0  0  0  0  0  0  0  0
   -8.6538   -8.9143   13.3532 C   0  0  1  0  0  0  0  0  0  0  0  0
   -8.5125   -9.1167   14.7624 O   0  0  0  0  0  0  0  0  0  0  0  0
   -8.4649  -10.2107   12.5824 C   0  0  1  0  0  0  0  0  0  0  0  0
   -8.9760  -11.3210   13.3335 O   0  0  0  0  0  0  0  0  0  0  0  0
   -9.3824  -10.0605   11.3852 C   0  0  2  0  0  0  0  0  0  0  0  0
  -10.1689   -8.5130    6.5848 N   0  0  0  0  0  0  0  0  0  0  0  0
  -11.0294   -9.0923    7.4528 C   0  0  1  0  0  0  0  0  0  0  0  0
  -12.3043   -9.3208    7.0643 N   0  0  0  0  0  0  0  0  0  0  0  0
  -10.6313   -9.4440    8.6977 N   0  0  0  0  0  0  0  0  0  0  0  0
   -9.3527   -9.2131    9.0807 C   0  0  1  0  0  0  0  0  0  0  0  0
   -8.4524   -8.6246    8.2146 C   0  0  2  0  0  0  0  0  0  0  0  0
   -8.8864   -8.2720    6.9420 C   0  0  0  0  0  0  0  0  0  0  0  0
   -8.1062   -7.7386    6.1288 O   0  0  0  0  0  0  0  0  0  0  0  0
   -7.2749   -8.5304    8.8655 N   0  0  0  0  0  0  0  0  0  0  0  0
   -7.4476   -9.0420   10.1066 C   0  0  0  0  0  0  0  0  0  0  0  0
   -8.7156   -9.4502   10.2198 N   0  0  1  0  0  0  0  0  0  0  0  0
  1  2  1  1  0  0  0
  1  3  1  0  0  0  0
  1  4  2  0  0  0  0
  1  6  1  0  0  0  0
  5  6  1  0  0  0  0
  7  5  1  6  0  0  0
  7  8  1  0  0  0  0
  7  9  1  0  0  0  0
  9 10  1  1  0  0  0
  9 11  1  0  0  0  0
 11 12  1  1  0  0  0
 11 13  1  0  0  0  0
 13  8  1  1  0  0  0
 13 24  1  0  0  0  0
 14 15  1  0  0  0  0
 14 20  1  0  0  0  0
 15 16  1  6  0  0  0
 15 17  1  0  0  0  0
 18 17  1  1  0  0  0
 18 19  1  0  0  0  0
 18 24  1  0  0  0  0
 19 20  1  6  0  0  0
 19 22  1  0  0  0  0
 20 21  2  0  0  0  0
 22 23  1  0  0  0  0
 24 23  1  1  0  0  0
M  CHG  1   3  -1
M  END
>  <CHROM.1>
68.97998787,166.24644231,-60.91715686,-63.72919701,-9.87230430,-8.50272292
11.62871641,1.80106535,-0.59244102,1.53659585

>  <Name>
ligand

>  <RI>
0

>  <Rbt.Current_Directory>
/home/itssahil/PROJECTS/Mol_Feturizer/New_Systems/rnas/3SLQ

>  <Rbt.Executable>
rbdock ($Id: //depot/dev/client3/rdock/2013.1/src/exe/rbdock.cxx#4 $)

>  <Rbt.Library>
libRbt.so (2013.1, Build901 2013/11/27)

>  <Rbt.Parameter_File>
/export/apps/rDock/src/rDock_2013.1_src/data/scripts/dock_solv.prm

>  <Rbt.Receptor>
prm/pocket_docking_7.prm

>  <SCORE>
-12.7851

>  <SCORE.INTER>
-7.47815

>  <SCORE.INTER.CONST>
1

>  <SCORE.INTER.POLAR>
0

>  <SCORE.INTER.ROT>
4

>  <SCORE.INTER.SOLV>
14.6547

>  <SCORE.INTER.VDW>
-16.137

>  <SCORE.INTER.norm>
-0.31159

>  <SCORE.INTRA>
-5.30697

>  <SCORE.INTRA.DIHEDRAL>
-11.262

>  <SCORE.INTRA.DIHEDRAL.0>
13.2525

>  <SCORE.INTRA.POLAR>
0

>  <SCORE.INTRA.POLAR.0>
0

>  <SCORE.INTRA.REPUL>
0

>  <SCORE.INTRA.REPUL.0>
0

>  <SCORE.INTRA.SOLV>
1.66607

>  <SCORE.INTRA.SOLV.lig_0>
-70.7221

>  <SCORE.INTRA.VDW>
-0.508998

>  <SCORE.INTRA.VDW.0>
-1.46337

>  <SCORE.INTRA.norm>
-0.221124

>  <SCORE.RESTR>
0

>  <SCORE.RESTR.CAVITY>
0

>  <SCORE.RESTR.norm>
0

>  <SCORE.SYSTEM>
0

>  <SCORE.SYSTEM.CONST>
0

>  <SCORE.SYSTEM.DIHEDRAL>
0

>  <SCORE.SYSTEM.SOLV>
0

>  <SCORE.SYSTEM.norm>
0

>  <SCORE.heavy>
24

>  <SCORE.norm>
-0.532713

>  <RMSD>
6.782

$$$$
ligand
 OpenBabel11021811483D
libRbt.so/2013.1/901 2013/11/27
 24 26  0  0  0  0  0  0  0  0999 V2000
   -5.3054   -3.1770    9.4296 P   0  0  1  0  0  0  0  0  0  0  0  0
   -6.0388   -2.8875    8.1375 O   0  0  0  0  0  0  0  0  0  0  0  0
   -3.8010   -3.2794    9.3381 O   0  5  0  0  0  0  0  0  0  0  0  0
   -5.7665   -2.3299   10.6063 O   0  0  0  0  0  0  0  0  0  0  0  0
   -5.5932   -5.7941    8.8119 C   0  0  0  0  0  0  0  0  0  0  0  0
   -5.6970   -4.7180    9.7602 O   0  0  0  0  0  0  0  0  0  0  0  0
   -6.6909   -6.8289    9.0763 C   0  0  1  0  0  0  0  0  0  0  0  0
   -6.4324   -7.5910   10.2623 O   0  0  0  0  0  0  0  0  0  0  0  0
   -8.0837   -6.2497    9.2563 C   0  0  1  0  0  0  0  0  0  0  0  0
   -8.7323   -6.1988    7.9822 O   0  0  0  0  0  0  0  0  0  0  0  0
   -8.7592   -7.2444   10.1861 C   0  0  1  0  0  0  0  0  0  0  0  0
   -9.2577   -8.3669    9.4447 O   0  0  0  0  0  0  0  0  0  0  0  0
   -7.6236   -7.7785   11.0364 C   0  0  2  0  0  0  0  0  0  0  0  0
   -6.8230   -8.2385   16.0568 N   0  0  0  0  0  0  0  0  0  0  0  0
   -7.0113   -9.2006   15.1250 C   0  0  1  0  0  0  0  0  0  0  0  0
   -6.9915  -10.4986   15.5036 N   0  0  0  0  0  0  0  0  0  0  0  0
   -7.2185   -8.8810   13.8261 N   0  0  0  0  0  0  0  0  0  0  0  0
   -7.2379   -7.5790   13.4532 C   0  0  1  0  0  0  0  0  0  0  0  0
   -7.0501   -6.5759   14.3837 C   0  0  2  0  0  0  0  0  0  0  0  0
   -6.8384   -6.9306   15.7109 C   0  0  0  0  0  0  0  0  0  0  0  0
   -6.6646   -6.0567   16.5831 O   0  0  0  0  0  0  0  0  0  0  0  0
   -7.1272   -5.4011   13.7258 N   0  0  0  0  0  0  0  0  0  0  0  0
   -7.3498   -5.6740   12.4190 C   0  0  0  0  0  0  0  0  0  0  0  0
   -7.4125   -7.0012   12.2719 N   0  0  1  0  0  0  0  0  0  0  0  0
  1  2  1  6  0  0  0
  1  3  1  0  0  0  0
  1  4  2  0  0  0  0
  1  6  1  0  0  0  0
  5  6  1  0  0  0  0
  7  5  1  1  0  0  0
  7  8  1  0  0  0  0
  7  9  1  0  0  0  0
  9 10  1  6  0  0  0
  9 11  1  0  0  0  0
 11 12  1  6  0  0  0
 11 13  1  0  0  0  0
 13  8  1  6  0  0  0
 13 24  1  0  0  0  0
 14 15  1  0  0  0  0
 14 20  1  0  0  0  0
 15 16  1  1  0  0  0
 15 17  1  0  0  0  0
 18 17  1  6  0  0  0
 18 19  1  0  0  0  0
 18 24  1  0  0  0  0
 19 20  1  1  0  0  0
 19 22  1  0  0  0  0
 20 21  2  0  0  0  0
 22 23  1  0  0  0  0
 24 23  1  6  0  0  0
M  CHG  1   3  -1
M  END
>  <CHROM.1>
49.99061604,-72.55439921,-147.67643554,-110.62740924,-6.78884741,-6.19670080
11.53890659,-1.26828720,1.02262818,1.90329361

>  <Name>
ligand

>  <RI>
0

>  <Rbt.Current_Directory>
/home/itssahil/PROJECTS/Mol_Feturizer/New_Systems/rnas/3SLQ

>  <Rbt.Executable>
rbdock ($Id: //depot/dev/client3/rdock/2013.1/src/exe/rbdock.cxx#4 $)

>  <Rbt.Library>
libRbt.so (2013.1, Build901 2013/11/27)

>  <Rbt.Parameter_File>
/export/apps/rDock/src/rDock_2013.1_src/data/scripts/dock_solv.prm

>  <Rbt.Receptor>
prm/pocket_docking_2.prm

>  <SCORE>
-3.17672

>  <SCORE.INTER>
-0.0878665

>  <SCORE.INTER.CONST>
1

>  <SCORE.INTER.POLAR>
0

>  <SCORE.INTER.ROT>
4

>  <SCORE.INTER.SOLV>
17.6829

>  <SCORE.INTER.VDW>
-12.2195

>  <SCORE.INTER.norm>
-0.0036611

>  <SCORE.INTRA>
-4.49632

>  <SCORE.INTRA.DIHEDRAL>
-7.31301

>  <SCORE.INTRA.DIHEDRAL.0>
13.2525

>  <SCORE.INTRA.POLAR>
0

>  <SCORE.INTRA.POLAR.0>
0

>  <SCORE.INTRA.REPUL>
0

>  <SCORE.INTRA.REPUL.0>
0

>  <SCORE.INTRA.SOLV>
0.0413146

>  <SCORE.INTRA.SOLV.lig_0>
-70.7221

>  <SCORE.INTRA.VDW>
-0.860476

>  <SCORE.INTRA.VDW.0>
-1.46337

>  <SCORE.INTRA.norm>
-0.187347

>  <SCORE.RESTR>
1.40747

>  <SCORE.RESTR.CAVITY>
1.40747

>  <SCORE.RESTR.norm>
0.0586447

>  <SCORE.SYSTEM>
0

>  <SCORE.SYSTEM.CONST>
0

>  <SCORE.SYSTEM.DIHEDRAL>
0

>  <SCORE.SYSTEM.SOLV>
0

>  <SCORE.SYSTEM.norm>
0

>  <SCORE.heavy>
24

>  <SCORE.norm>
-0.132363

>  <RMSD>
6.814

$$$$
ligand
 OpenBabel11021811483D
libRbt.so/2013.1/901 2013/11/27
 24 26  0  0  0  0  0  0  0  0999 V2000
   -3.7868   -8.3759   14.1496 P   0  0  1  0  0  0  0  0  0  0  0  0
   -3.9977   -7.0472   13.4556 O   0  0  0  0  0  0  0  0  0  0  0  0
   -2.5942   -9.1860   13.6985 O   0  5  0  0  0  0  0  0  0  0  0  0
   -3.9139   -8.3102   15.6642 O   0  0  0  0  0  0  0  0  0  0  0  0
   -6.3355   -9.2800   14.1513 C   0  0  0  0  0  0  0  0  0  0  0  0
   -5.0068   -9.2970   13.6014 O   0  0  0  0  0  0  0  0  0  0  0  0
   -6.9595   -7.8940   13.9629 C   0  0  1  0  0  0  0  0  0  0  0  0
   -7.4260   -7.6957   12.6224 O   0  0  0  0  0  0  0  0  0  0  0  0
   -8.1512   -7.6039   14.8592 C   0  0  1  0  0  0  0  0  0  0  0  0
   -7.6848   -6.9971   16.0679 O   0  0  0  0  0  0  0  0  0  0  0  0
   -8.9823   -6.6351   14.0340 C   0  0  1  0  0  0  0  0  0  0  0  0
   -8.4791   -5.2985   14.1707 O   0  0  0  0  0  0  0  0  0  0  0  0
   -8.7006   -7.0413   12.6010 C   0  0  2  0  0  0  0  0  0  0  0  0
  -12.1237   -7.9217    8.9181 N   0  0  0  0  0  0  0  0  0  0  0  0
  -11.3786   -6.8175    9.1525 C   0  0  1  0  0  0  0  0  0  0  0  0
  -11.4999   -5.7525    8.3281 N   0  0  0  0  0  0  0  0  0  0  0  0
  -10.5186   -6.7666   10.1966 N   0  0  0  0  0  0  0  0  0  0  0  0
  -10.4021   -7.8364   11.0192 C   0  0  1  0  0  0  0  0  0  0  0  0
  -11.1518   -8.9762   10.8045 C   0  0  2  0  0  0  0  0  0  0  0  0
  -12.0269   -9.0034    9.7249 C   0  0  0  0  0  0  0  0  0  0  0  0
  -12.7225  -10.0124    9.4952 O   0  0  0  0  0  0  0  0  0  0  0  0
  -10.8287   -9.8555   11.7747 N   0  0  0  0  0  0  0  0  0  0  0  0
   -9.8960   -9.2740   12.5646 C   0  0  0  0  0  0  0  0  0  0  0  0
   -9.6483   -8.0491   12.0898 N   0  0  1  0  0  0  0  0  0  0  0  0
  1  2  1  6  0  0  0
  1  3  1  0  0  0  0
  1  4  2  0  0  0  0
  1  6  1  0  0  0  0
  5  6  1  0  0  0  0
  7  5  1  6  0  0  0
  7  8  1  0  0  0  0
  7  9  1  0  0  0  0
  9 10  1  1  0  0  0
  9 11  1  0  0  0  0
 11 12  1  6  0  0  0
 11 13  1  0  0  0  0
 13  8  1  1  0  0  0
 13 24  1  0  0  0  0
 14 15  1  0  0  0  0
 14 20  1  0  0  0  0
 15 16  1  1  0  0  0
 15 17  1  0  0  0  0
 18 17  1  6  0  0  0
 18 19  1  0  0  0  0
 18 24  1  0  0  0  0
 19 20  1  1  0  0  0
 19 22  1  0  0  0  0
 20 21  2  0  0  0  0
 22 23  1  0  0  0  0
 24 23  1  6  0  0  0
M  CHG  1   3  -1
M  END
>  <CHROM.1>
-83.09178441,77.95792768,62.88709600,-123.45516435,-8.12636294,-7.97198929
12.55075777,-0.36808590,0.44497316,-2.37262456

>  <Name>
ligand

>  <RI>
0

>  <Rbt.Current_Directory>
/home/itssahil/PROJECTS/Mol_Feturizer/New_Systems/rnas/3SLQ

>  <Rbt.Executable>
rbdock ($Id: //depot/dev/client3/rdock/2013.1/src/exe/rbdock.cxx#4 $)

>  <Rbt.Library>
libRbt.so (2013.1, Build901 2013/11/27)

>  <Rbt.Parameter_File>
/export/apps/rDock/src/rDock_2013.1_src/data/scripts/dock_solv.prm

>  <Rbt.Receptor>
prm/pocket_docking_6.prm

>  <SCORE>
-12.6506

>  <SCORE.INTER>
-7.53809

>  <SCORE.INTER.CONST>
1

>  <SCORE.INTER.POLAR>
0

>  <SCORE.INTER.ROT>
4

>  <SCORE.INTER.SOLV>
15.5313

>  <SCORE.INTER.VDW>
-16.4691

>  <SCORE.INTER.norm>
-0.314087

>  <SCORE.INTRA>
-5.11251

>  <SCORE.INTRA.DIHEDRAL>
-10.1542

>  <SCORE.INTRA.DIHEDRAL.0>
13.2525

>  <SCORE.INTRA.POLAR>
0

>  <SCORE.INTRA.POLAR.0>
0

>  <SCORE.INTRA.REPUL>
0

>  <SCORE.INTRA.REPUL.0>
0

>  <SCORE.INTRA.SOLV>
1.50893

>  <SCORE.INTRA.SOLV.lig_0>
-70.7221

>  <SCORE.INTRA.VDW>
-0.789896

>  <SCORE.INTRA.VDW.0>
-1.46337

>  <SCORE.INTRA.norm>
-0.213021

>  <SCORE.RESTR>
0

>  <SCORE.RESTR.CAVITY>
0

>  <SCORE.RESTR.norm>
0

>  <SCORE.SYSTEM>
0

>  <SCORE.SYSTEM.CONST>
0

>  <SCORE.SYSTEM.DIHEDRAL>
0

>  <SCORE.SYSTEM.SOLV>
0

>  <SCORE.SYSTEM.norm>
0

>  <SCORE.heavy>
24

>  <SCORE.norm>
-0.527108

>  <RMSD>
6.818

$$$$
ligand
 OpenBabel11021811483D
libRbt.so/2013.1/901 2013/11/27
 24 26  0  0  0  0  0  0  0  0999 V2000
   -3.1797   -1.9280    9.0675 P   0  0  1  0  0  0  0  0  0  0  0  0
   -2.0838   -2.9271    9.3711 O   0  0  0  0  0  0  0  0  0  0  0  0
   -3.6964   -1.1237   10.2371 O   0  5  0  0  0  0  0  0  0  0  0  0
   -2.9144   -1.0730    7.8374 O   0  0  0  0  0  0  0  0  0  0  0  0
   -4.5723   -4.2461    9.1001 C   0  0  0  0  0  0  0  0  0  0  0  0
   -4.4711   -2.8571    8.7413 O   0  0  0  0  0  0  0  0  0  0  0  0
   -6.0440   -4.6684    9.1376 C   0  0  1  0  0  0  0  0  0  0  0  0
   -6.2006   -6.0211    9.5843 O   0  0  0  0  0  0  0  0  0  0  0  0
   -6.9250   -3.8309   10.0488 C   0  0  1  0  0  0  0  0  0  0  0  0
   -7.4742   -2.7470    9.2936 O   0  0  0  0  0  0  0  0  0  0  0  0
   -8.0038   -4.8076   10.4873 C   0  0  1  0  0  0  0  0  0  0  0  0
   -9.0289   -4.9058    9.4884 O   0  0  0  0  0  0  0  0  0  0  0  0
   -7.2998   -6.1500   10.4946 C   0  0  2  0  0  0  0  0  0  0  0  0
   -8.4136   -7.3027   15.3409 N   0  0  0  0  0  0  0  0  0  0  0  0
   -9.2447   -7.0162   14.3131 C   0  0  1  0  0  0  0  0  0  0  0  0
  -10.5805   -7.0229   14.5232 N   0  0  0  0  0  0  0  0  0  0  0  0
   -8.7576   -6.7242   13.0844 N   0  0  0  0  0  0  0  0  0  0  0  0
   -7.4186   -6.7184   12.8804 C   0  0  1  0  0  0  0  0  0  0  0  0
   -6.5467   -7.0056   13.9122 C   0  0  2  0  0  0  0  0  0  0  0  0
   -7.0723   -7.3030   15.1641 C   0  0  0  0  0  0  0  0  0  0  0  0
   -6.3206   -7.5679   16.1231 O   0  0  0  0  0  0  0  0  0  0  0  0
   -5.2962   -6.9173   13.4148 N   0  0  0  0  0  0  0  0  0  0  0  0
   -5.3953   -6.5908   12.1050 C   0  0  0  0  0  0  0  0  0  0  0  0
   -6.6912   -6.4757   11.7979 N   0  0  1  0  0  0  0  0  0  0  0  0
  1  2  1  1  0  0  0
  1  3  1  0  0  0  0
  1  4  2  0  0  0  0
  1  6  1  0  0  0  0
  5  6  1  0  0  0  0
  7  5  1  1  0  0  0
  7  8  1  0  0  0  0
  7  9  1  0  0  0  0
  9 10  1  6  0  0  0
  9 11  1  0  0  0  0
 11 12  1  6  0  0  0
 11 13  1  0  0  0  0
 13  8  1  6  0  0  0
 13 24  1  0  0  0  0
 14 15  1  0  0  0  0
 14 20  1  0  0  0  0
 15 16  1  1  0  0  0
 15 17  1  0  0  0  0
 18 17  1  6  0  0  0
 18 19  1  0  0  0  0
 18 24  1  0  0  0  0
 19 20  1  1  0  0  0
 19 22  1  0  0  0  0
 20 21  2  0  0  0  0
 22 23  1  0  0  0  0
 24 23  1  6  0  0  0
M  CHG  1   3  -1
M  END
>  <CHROM.1>
17.18642778,-175.82467706,158.74959752,-177.40695435,-6.16862851,-4.89510452
11.25740501,-1.01282534,0.27427440,2.14129592

>  <Name>
ligand

>  <RI>
0

>  <Rbt.Current_Directory>
/home/itssahil/PROJECTS/Mol_Feturizer/New_Systems/rnas/3SLQ

>  <Rbt.Executable>
rbdock ($Id: //depot/dev/client3/rdock/2013.1/src/exe/rbdock.cxx#4 $)

>  <Rbt.Library>
libRbt.so (2013.1, Build901 2013/11/27)

>  <Rbt.Parameter_File>
/export/apps/rDock/src/rDock_2013.1_src/data/scripts/dock_solv.prm

>  <Rbt.Receptor>
prm/pocket_docking_3.prm

>  <SCORE>
-15.817

>  <SCORE.INTER>
-12.0728

>  <SCORE.INTER.CONST>
1

>  <SCORE.INTER.POLAR>
0

>  <SCORE.INTER.ROT>
4

>  <SCORE.INTER.SOLV>
24.1865

>  <SCORE.INTER.VDW>
-22.3773

>  <SCORE.INTER.norm>
-0.503032

>  <SCORE.INTRA>
-3.74472

>  <SCORE.INTRA.DIHEDRAL>
-8.03747

>  <SCORE.INTRA.DIHEDRAL.0>
13.2525

>  <SCORE.INTRA.POLAR>
0

>  <SCORE.INTRA.POLAR.0>
0

>  <SCORE.INTRA.REPUL>
0

>  <SCORE.INTRA.REPUL.0>
0

>  <SCORE.INTRA.SOLV>
0.457911

>  <SCORE.INTRA.SOLV.lig_0>
-70.7221

>  <SCORE.INTRA.VDW>
0.045061

>  <SCORE.INTRA.VDW.0>
-1.46337

>  <SCORE.INTRA.norm>
-0.15603

>  <SCORE.RESTR>
0.00051824

>  <SCORE.RESTR.CAVITY>
0.00051824

>  <SCORE.RESTR.norm>
2.15933e-05

>  <SCORE.SYSTEM>
0

>  <SCORE.SYSTEM.CONST>
0

>  <SCORE.SYSTEM.DIHEDRAL>
0

>  <SCORE.SYSTEM.SOLV>
0

>  <SCORE.SYSTEM.norm>
0

>  <SCORE.heavy>
24

>  <SCORE.norm>
-0.65904

>  <RMSD>
6.821

$$$$
ligand
 OpenBabel11021811483D
libRbt.so/2013.1/901 2013/11/27
 24 26  0  0  0  0  0  0  0  0999 V2000
   -8.7880   -7.6681    7.2712 P   0  0  1  0  0  0  0  0  0  0  0  0
   -9.7799   -6.9608    6.3726 O   0  0  0  0  0  0  0  0  0  0  0  0
   -9.3528   -8.7219    8.1945 O   0  5  0  0  0  0  0  0  0  0  0  0
   -7.5248   -8.1271    6.5583 O   0  0  0  0  0  0  0  0  0  0  0  0
   -8.9887   -5.2415    8.4479 C   0  0  0  0  0  0  0  0  0  0  0  0
   -8.3521   -6.5266    8.3408 O   0  0  0  0  0  0  0  0  0  0  0  0
   -8.2537   -4.3806    9.4796 C   0  0  1  0  0  0  0  0  0  0  0  0
   -8.3854   -4.9071   10.8061 O   0  0  0  0  0  0  0  0  0  0  0  0
   -6.7603   -4.2361    9.2420 C   0  0  1  0  0  0  0  0  0  0  0  0
   -6.5304   -3.0823    8.4279 O   0  0  0  0  0  0  0  0  0  0  0  0
   -6.1992   -4.0507   10.6424 C   0  0  1  0  0  0  0  0  0  0  0  0
   -6.3254   -2.6832   11.0574 O   0  0  0  0  0  0  0  0  0  0  0  0
   -7.1462   -4.8419   11.5227 C   0  0  2  0  0  0  0  0  0  0  0  0
   -8.3330   -9.1645   13.9646 N   0  0  0  0  0  0  0  0  0  0  0  0
   -8.9351   -7.9545   14.0178 C   0  0  1  0  0  0  0  0  0  0  0  0
  -10.0207   -7.7919   14.8074 N   0  0  0  0  0  0  0  0  0  0  0  0
   -8.4660   -6.9110   13.2944 N   0  0  0  0  0  0  0  0  0  0  0  0
   -7.3778   -7.0801   12.5057 C   0  0  1  0  0  0  0  0  0  0  0  0
   -6.7423   -8.3040   12.4335 C   0  0  2  0  0  0  0  0  0  0  0  0
   -7.2442   -9.3598   13.1856 C   0  0  0  0  0  0  0  0  0  0  0  0
   -6.7007  -10.4813   13.1498 O   0  0  0  0  0  0  0  0  0  0  0  0
   -5.7033   -8.1653   11.5849 N   0  0  0  0  0  0  0  0  0  0  0  0
   -5.7031   -6.8876   11.1385 C   0  0  0  0  0  0  0  0  0  0  0  0
   -6.7276   -6.2440   11.7070 N   0  0  1  0  0  0  0  0  0  0  0  0
  1  2  1  6  0  0  0
  1  3  1  0  0  0  0
  1  4  2  0  0  0  0
  1  6  1  0  0  0  0
  5  6  1  0  0  0  0
  7  5  1  6  0  0  0
  7  8  1  0  0  0  0
  7  9  1  0  0  0  0
  9 10  1  6  0  0  0
  9 11  1  0  0  0  0
 11 12  1  1  0  0  0
 11 13  1  0  0  0  0
 13  8  1  6  0  0  0
 13 24  1  0  0  0  0
 14 15  1  0  0  0  0
 14 20  1  0  0  0  0
 15 16  1  1  0  0  0
 15 17  1  0  0  0  0
 18 17  1  6  0  0  0
 18 19  1  0  0  0  0
 18 24  1  0  0  0  0
 19 20  1  1  0  0  0
 19 22  1  0  0  0  0
 20 21  2  0  0  0  0
 22 23  1  0  0  0  0
 24 23  1  6  0  0  0
M  CHG  1   3  -1
M  END
>  <CHROM.1>
8.66255545,-66.67902499,-175.49633288,-68.90742116,-7.76234919,-6.68542848
10.46854737,1.74944010,-1.22397295,-0.98208243

>  <Name>
ligand

>  <RI>
0

>  <Rbt.Current_Directory>
/home/itssahil/PROJECTS/Mol_Feturizer/New_Systems/rnas/3SLQ

>  <Rbt.Executable>
rbdock ($Id: //depot/dev/client3/rdock/2013.1/src/exe/rbdock.cxx#4 $)

>  <Rbt.Library>
libRbt.so (2013.1, Build901 2013/11/27)

>  <Rbt.Parameter_File>
/export/apps/rDock/src/rDock_2013.1_src/data/scripts/dock_solv.prm

>  <Rbt.Receptor>
prm/pocket_docking_4.prm

>  <SCORE>
-10.1645

>  <SCORE.INTER>
-5.22666

>  <SCORE.INTER.CONST>
1

>  <SCORE.INTER.POLAR>
0

>  <SCORE.INTER.ROT>
4

>  <SCORE.INTER.SOLV>
18.2865

>  <SCORE.INTER.VDW>
-15.8466

>  <SCORE.INTER.norm>
-0.217777

>  <SCORE.INTRA>
-4.93783

>  <SCORE.INTRA.DIHEDRAL>
-9.52526

>  <SCORE.INTRA.DIHEDRAL.0>
13.2525

>  <SCORE.INTRA.POLAR>
0

>  <SCORE.INTRA.POLAR.0>
0

>  <SCORE.INTRA.REPUL>
0

>  <SCORE.INTRA.REPUL.0>
0

>  <SCORE.INTRA.SOLV>
-0.216008

>  <SCORE.INTRA.SOLV.lig_0>
-70.7221

>  <SCORE.INTRA.VDW>
-0.0671939

>  <SCORE.INTRA.VDW.0>
-1.46337

>  <SCORE.INTRA.norm>
-0.205743

>  <SCORE.RESTR>
0

>  <SCORE.RESTR.CAVITY>
0

>  <SCORE.RESTR.norm>
0

>  <SCORE.SYSTEM>
0

>  <SCORE.SYSTEM.CONST>
0

>  <SCORE.SYSTEM.DIHEDRAL>
0

>  <SCORE.SYSTEM.SOLV>
0

>  <SCORE.SYSTEM.norm>
0

>  <SCORE.heavy>
24

>  <SCORE.norm>
-0.42352

>  <RMSD>
6.833

$$$$
ligand
 OpenBabel11021811483D
libRbt.so/2013.1/901 2013/11/27
 24 26  0  0  0  0  0  0  0  0999 V2000
  -10.3620   -5.5035    9.2369 P   0  0  1  0  0  0  0  0  0  0  0  0
   -9.3242   -4.8823   10.1472 O   0  0  0  0  0  0  0  0  0  0  0  0
  -11.5106   -4.6135    8.8241 O   0  5  0  0  0  0  0  0  0  0  0  0
   -9.7745   -6.2840    8.0705 O   0  0  0  0  0  0  0  0  0  0  0  0
  -10.4602   -7.4439   11.1181 C   0  0  0  0  0  0  0  0  0  0  0  0
  -11.1288   -6.5681   10.1938 O   0  0  0  0  0  0  0  0  0  0  0  0
   -9.6024   -8.4543   10.3506 C   0  0  1  0  0  0  0  0  0  0  0  0
   -8.3832   -7.8690    9.8764 O   0  0  0  0  0  0  0  0  0  0  0  0
   -9.1865   -9.6764   11.1513 C   0  0  1  0  0  0  0  0  0  0  0  0
  -10.1709  -10.7001   10.9787 O   0  0  0  0  0  0  0  0  0  0  0  0
   -7.8582  -10.0695   10.5258 C   0  0  1  0  0  0  0  0  0  0  0  0
   -8.0721  -10.8467    9.3390 O   0  0  0  0  0  0  0  0  0  0  0  0
   -7.2699   -8.7523   10.0603 C   0  0  2  0  0  0  0  0  0  0  0  0
   -3.5048   -9.6371   13.3916 N   0  0  0  0  0  0  0  0  0  0  0  0
   -4.1282  -10.4947   12.5517 C   0  0  1  0  0  0  0  0  0  0  0  0
   -3.7474  -11.7921   12.5314 N   0  0  0  0  0  0  0  0  0  0  0  0
   -5.1227  -10.0719   11.7367 N   0  0  0  0  0  0  0  0  0  0  0  0
   -5.5000   -8.7712   11.7621 C   0  0  1  0  0  0  0  0  0  0  0  0
   -4.8821   -7.8740   12.6109 C   0  0  2  0  0  0  0  0  0  0  0  0
   -3.8630   -8.3333   13.4371 C   0  0  0  0  0  0  0  0  0  0  0  0
   -3.2788   -7.5569   14.2185 O   0  0  0  0  0  0  0  0  0  0  0  0
   -5.4671   -6.6741   12.4186 N   0  0  0  0  0  0  0  0  0  0  0  0
   -6.4183   -6.8266   11.4679 C   0  0  0  0  0  0  0  0  0  0  0  0
   -6.4230   -8.1059   11.0800 N   0  0  1  0  0  0  0  0  0  0  0  0
  1  2  1  1  0  0  0
  1  3  1  0  0  0  0
  1  4  2  0  0  0  0
  1  6  1  0  0  0  0
  5  6  1  0  0  0  0
  7  5  1  1  0  0  0
  7  8  1  0  0  0  0
  7  9  1  0  0  0  0
  9 10  1  6  0  0  0
  9 11  1  0  0  0  0
 11 12  1  6  0  0  0
 11 13  1  0  0  0  0
 13  8  1  1  0  0  0
 13 24  1  0  0  0  0
 14 15  1  0  0  0  0
 14 20  1  0  0  0  0
 15 16  1  1  0  0  0
 15 17  1  0  0  0  0
 18 17  1  6  0  0  0
 18 19  1  0  0  0  0
 18 24  1  0  0  0  0
 19 20  1  1  0  0  0
 19 22  1  0  0  0  0
 20 21  2  0  0  0  0
 22 23  1  0  0  0  0
 24 23  1  6  0  0  0
M  CHG  1   3  -1
M  END
>  <CHROM.1>
-43.08727377,77.24773151,-66.01065291,161.83917416,-7.58286963,-8.05654432
10.96849496,-2.73562506,0.50844475,-3.10211073

>  <Name>
ligand

>  <RI>
0

>  <Rbt.Current_Directory>
/home/itssahil/PROJECTS/Mol_Feturizer/New_Systems/rnas/3SLQ

>  <Rbt.Executable>
rbdock ($Id: //depot/dev/client3/rdock/2013.1/src/exe/rbdock.cxx#4 $)

>  <Rbt.Library>
libRbt.so (2013.1, Build901 2013/11/27)

>  <Rbt.Parameter_File>
/export/apps/rDock/src/rDock_2013.1_src/data/scripts/dock_solv.prm

>  <Rbt.Receptor>
prm/pocket_docking_8.prm

>  <SCORE>
-12.1608

>  <SCORE.INTER>
-7.50732

>  <SCORE.INTER.CONST>
1

>  <SCORE.INTER.POLAR>
0

>  <SCORE.INTER.ROT>
4

>  <SCORE.INTER.SOLV>
12.5702

>  <SCORE.INTER.VDW>
-15.4616

>  <SCORE.INTER.norm>
-0.312805

>  <SCORE.INTRA>
-4.6535

>  <SCORE.INTRA.DIHEDRAL>
-10.4445

>  <SCORE.INTRA.DIHEDRAL.0>
13.2525

>  <SCORE.INTRA.POLAR>
0

>  <SCORE.INTRA.POLAR.0>
0

>  <SCORE.INTRA.REPUL>
0

>  <SCORE.INTRA.REPUL.0>
0

>  <SCORE.INTRA.SOLV>
2.5691

>  <SCORE.INTRA.SOLV.lig_0>
-70.7221

>  <SCORE.INTRA.VDW>
-0.715771

>  <SCORE.INTRA.VDW.0>
-1.46337

>  <SCORE.INTRA.norm>
-0.193896

>  <SCORE.RESTR>
0

>  <SCORE.RESTR.CAVITY>
0

>  <SCORE.RESTR.norm>
0

>  <SCORE.SYSTEM>
0

>  <SCORE.SYSTEM.CONST>
0

>  <SCORE.SYSTEM.DIHEDRAL>
0

>  <SCORE.SYSTEM.SOLV>
0

>  <SCORE.SYSTEM.norm>
0

>  <SCORE.heavy>
24

>  <SCORE.norm>
-0.506701

>  <RMSD>
6.882

$$$$
ligand
 OpenBabel11021811483D
libRbt.so/2013.1/901 2013/11/27
 24 26  0  0  0  0  0  0  0  0999 V2000
   -9.5324   -7.6373    6.9839 P   0  0  1  0  0  0  0  0  0  0  0  0
   -8.3657   -8.0310    6.1033 O   0  0  0  0  0  0  0  0  0  0  0  0
  -10.5580   -6.7166    6.3658 O   0  5  0  0  0  0  0  0  0  0  0  0
  -10.1631   -8.8018    7.7328 O   0  0  0  0  0  0  0  0  0  0  0  0
   -9.6102   -5.6960    8.8651 C   0  0  0  0  0  0  0  0  0  0  0  0
   -8.8668   -6.6537    8.0915 O   0  0  0  0  0  0  0  0  0  0  0  0
   -8.7027   -5.0668    9.9264 C   0  0  1  0  0  0  0  0  0  0  0  0
   -8.4260   -5.9755   10.9996 O   0  0  0  0  0  0  0  0  0  0  0  0
   -7.3469   -4.6093    9.4163 C   0  0  1  0  0  0  0  0  0  0  0  0
   -7.4463   -3.2453    8.9964 O   0  0  0  0  0  0  0  0  0  0  0  0
   -6.4480   -4.7535   10.6334 C   0  0  1  0  0  0  0  0  0  0  0  0
   -6.5766   -3.6110   11.4915 O   0  0  0  0  0  0  0  0  0  0  0  0
   -7.0502   -5.9168   11.3962 C   0  0  2  0  0  0  0  0  0  0  0  0
   -3.8608   -9.5890   12.9452 N   0  0  0  0  0  0  0  0  0  0  0  0
   -4.1889   -8.4245   13.5498 C   0  0  1  0  0  0  0  0  0  0  0  0
   -3.6349   -8.1234   14.7461 N   0  0  0  0  0  0  0  0  0  0  0  0
   -5.0595   -7.5624   12.9746 N   0  0  0  0  0  0  0  0  0  0  0  0
   -5.6106   -7.8694   11.7760 C   0  0  1  0  0  0  0  0  0  0  0  0
   -5.2924   -9.0507   11.1353 C   0  0  2  0  0  0  0  0  0  0  0  0
   -4.3964   -9.9193   11.7474 C   0  0  0  0  0  0  0  0  0  0  0  0
   -4.0816  -10.9961   11.2034 O   0  0  0  0  0  0  0  0  0  0  0  0
   -5.9816   -9.0748    9.9762 N   0  0  0  0  0  0  0  0  0  0  0  0
   -6.7135   -7.9383    9.9078 C   0  0  0  0  0  0  0  0  0  0  0  0
   -6.4767   -7.2194   11.0097 N   0  0  1  0  0  0  0  0  0  0  0  0
  1  2  1  6  0  0  0
  1  3  1  0  0  0  0
  1  4  2  0  0  0  0
  1  6  1  0  0  0  0
  5  6  1  0  0  0  0
  7  5  1  6  0  0  0
  7  8  1  0  0  0  0
  7  9  1  0  0  0  0
  9 10  1  1  0  0  0
  9 11  1  0  0  0  0
 11 12  1  1  0  0  0
 11 13  1  0  0  0  0
 13  8  1  6  0  0  0
 13 24  1  0  0  0  0
 14 15  1  0  0  0  0
 14 20  1  0  0  0  0
 15 16  1  6  0  0  0
 15 17  1  0  0  0  0
 18 17  1  1  0  0  0
 18 19  1  0  0  0  0
 18 24  1  0  0  0  0
 19 20  1  6  0  0  0
 19 22  1  0  0  0  0
 20 21  2  0  0  0  0
 22 23  1  0  0  0  0
 24 23  1  1  0  0  0
M  CHG  1   3  -1
M  END
>  <CHROM.1>
158.84340432,-73.62837062,173.03342721,-140.10361804,-7.07149522,-7.17127937
10.07029852,3.12017930,-0.84514076,0.35650249

>  <Name>
ligand

>  <RI>
0

>  <Rbt.Current_Directory>
/home/itssahil/PROJECTS/Mol_Feturizer/New_Systems/rnas/3SLQ

>  <Rbt.Executable>
rbdock ($Id: //depot/dev/client3/rdock/2013.1/src/exe/rbdock.cxx#4 $)

>  <Rbt.Library>
libRbt.so (2013.1, Build901 2013/11/27)

>  <Rbt.Parameter_File>
/export/apps/rDock/src/rDock_2013.1_src/data/scripts/dock_solv.prm

>  <Rbt.Receptor>
prm/pocket_docking_5.prm

>  <SCORE>
-15.4312

>  <SCORE.INTER>
-9.93183

>  <SCORE.INTER.CONST>
1

>  <SCORE.INTER.POLAR>
0

>  <SCORE.INTER.ROT>
4

>  <SCORE.INTER.SOLV>
18.1313

>  <SCORE.INTER.VDW>
-18.9317

>  <SCORE.INTER.norm>
-0.413826

>  <SCORE.INTRA>
-5.49938

>  <SCORE.INTRA.DIHEDRAL>
-10.4909

>  <SCORE.INTRA.DIHEDRAL.0>
13.2525

>  <SCORE.INTRA.POLAR>
0

>  <SCORE.INTRA.POLAR.0>
0

>  <SCORE.INTRA.REPUL>
0

>  <SCORE.INTRA.REPUL.0>
0

>  <SCORE.INTRA.SOLV>
0.612061

>  <SCORE.INTRA.SOLV.lig_0>
-70.7221

>  <SCORE.INTRA.VDW>
-0.559967

>  <SCORE.INTRA.VDW.0>
-1.46337

>  <SCORE.INTRA.norm>
-0.229141

>  <SCORE.RESTR>
0

>  <SCORE.RESTR.CAVITY>
0

>  <SCORE.RESTR.norm>
0

>  <SCORE.SYSTEM>
0

>  <SCORE.SYSTEM.CONST>
0

>  <SCORE.SYSTEM.DIHEDRAL>
0

>  <SCORE.SYSTEM.SOLV>
0

>  <SCORE.SYSTEM.norm>
0

>  <SCORE.heavy>
24

>  <SCORE.norm>
-0.642967

>  <RMSD>
6.886

$$$$
ligand
 OpenBabel11021811483D
libRbt.so/2013.1/901 2013/11/27
 24 26  0  0  0  0  0  0  0  0999 V2000
   -8.9224   -8.7307    7.6147 P   0  0  1  0  0  0  0  0  0  0  0  0
   -8.2084   -8.5734    6.2892 O   0  0  0  0  0  0  0  0  0  0  0  0
  -10.4191   -8.5272    7.5981 O   0  5  0  0  0  0  0  0  0  0  0  0
   -8.5055   -9.9655    8.3995 O   0  0  0  0  0  0  0  0  0  0  0  0
   -8.5959   -7.3091    9.8920 C   0  0  0  0  0  0  0  0  0  0  0  0
   -8.4470   -7.4326    8.4669 O   0  0  0  0  0  0  0  0  0  0  0  0
   -8.2124   -5.8940   10.3349 C   0  0  1  0  0  0  0  0  0  0  0  0
   -8.4221   -5.6983   11.7391 O   0  0  0  0  0  0  0  0  0  0  0  0
   -6.7631   -5.5166   10.0800 C   0  0  1  0  0  0  0  0  0  0  0  0
   -6.6626   -4.9115    8.7876 O   0  0  0  0  0  0  0  0  0  0  0  0
   -6.4609   -4.5199   11.1870 C   0  0  1  0  0  0  0  0  0  0  0  0
   -6.9267   -3.2117   10.8263 O   0  0  0  0  0  0  0  0  0  0  0  0
   -7.3401   -4.9725   12.3358 C   0  0  2  0  0  0  0  0  0  0  0  0
   -8.1433   -8.1155   16.2771 N   0  0  0  0  0  0  0  0  0  0  0  0
   -9.0093   -7.2901   15.6459 C   0  0  1  0  0  0  0  0  0  0  0  0
  -10.2955   -7.2414   16.0605 N   0  0  0  0  0  0  0  0  0  0  0  0
   -8.6055   -6.5169   14.6109 N   0  0  0  0  0  0  0  0  0  0  0  0
   -7.3156   -6.5697   14.2008 C   0  0  1  0  0  0  0  0  0  0  0  0
   -6.4096   -7.4021   14.8280 C   0  0  2  0  0  0  0  0  0  0  0  0
   -6.8496   -8.1865   15.8877 C   0  0  0  0  0  0  0  0  0  0  0  0
   -6.0645   -8.9517   16.4818 O   0  0  0  0  0  0  0  0  0  0  0  0
   -5.2213   -7.2356   14.2121 N   0  0  0  0  0  0  0  0  0  0  0  0
   -5.3929   -6.3274   13.2233 C   0  0  0  0  0  0  0  0  0  0  0  0
   -6.6708   -5.9352   13.2305 N   0  0  1  0  0  0  0  0  0  0  0  0
  1  2  1  6  0  0  0
  1  3  1  0  0  0  0
  1  4  2  0  0  0  0
  1  6  1  0  0  0  0
  5  6  1  0  0  0  0
  7  5  1  1  0  0  0
  7  8  1  0  0  0  0
  7  9  1  0  0  0  0
  9 10  1  6  0  0  0
  9 11  1  0  0  0  0
 11 12  1  6  0  0  0
 11 13  1  0  0  0  0
 13  8  1  6  0  0  0
 13 24  1  0  0  0  0
 14 15  1  0  0  0  0
 14 20  1  0  0  0  0
 15 16  1  1  0  0  0
 15 17  1  0  0  0  0
 18 17  1  6  0  0  0
 18 19  1  0  0  0  0
 18 24  1  0  0  0  0
 19 20  1  1  0  0  0
 19 22  1  0  0  0  0
 20 21  2  0  0  0  0
 22 23  1  0  0  0  0
 24 23  1  6  0  0  0
M  CHG  1   3  -1
M  END
>  <CHROM.1>
-164.00013283,176.48519932,-172.63834226,-56.77552538,-7.75850143,-6.98828500
11.63477242,1.93119862,-1.08295719,-1.33048051

>  <Name>
ligand

>  <RI>
0

>  <Rbt.Current_Directory>
/home/itssahil/PROJECTS/Mol_Feturizer/New_Systems/rnas/3SLQ

>  <Rbt.Executable>
rbdock ($Id: //depot/dev/client3/rdock/2013.1/src/exe/rbdock.cxx#4 $)

>  <Rbt.Library>
libRbt.so (2013.1, Build901 2013/11/27)

>  <Rbt.Parameter_File>
/export/apps/rDock/src/rDock_2013.1_src/data/scripts/dock_solv.prm

>  <Rbt.Receptor>
prm/pocket_docking_4.prm

>  <SCORE>
-14.3291

>  <SCORE.INTER>
-8.80491

>  <SCORE.INTER.CONST>
1

>  <SCORE.INTER.POLAR>
0

>  <SCORE.INTER.ROT>
4

>  <SCORE.INTER.SOLV>
14.0944

>  <SCORE.INTER.VDW>
-16.8347

>  <SCORE.INTER.norm>
-0.366871

>  <SCORE.INTRA>
-5.52423

>  <SCORE.INTRA.DIHEDRAL>
-11.3389

>  <SCORE.INTRA.DIHEDRAL.0>
13.2525

>  <SCORE.INTRA.POLAR>
0

>  <SCORE.INTRA.POLAR.0>
0

>  <SCORE.INTRA.REPUL>
0

>  <SCORE.INTRA.REPUL.0>
0

>  <SCORE.INTRA.SOLV>
0.610157

>  <SCORE.INTRA.SOLV.lig_0>
-70.7221

>  <SCORE.INTRA.VDW>
-0.159884

>  <SCORE.INTRA.VDW.0>
-1.46337

>  <SCORE.INTRA.norm>
-0.230176

>  <SCORE.RESTR>
0

>  <SCORE.RESTR.CAVITY>
0

>  <SCORE.RESTR.norm>
0

>  <SCORE.SYSTEM>
0

>  <SCORE.SYSTEM.CONST>
0

>  <SCORE.SYSTEM.DIHEDRAL>
0

>  <SCORE.SYSTEM.SOLV>
0

>  <SCORE.SYSTEM.norm>
0

>  <SCORE.heavy>
24

>  <SCORE.norm>
-0.597047

>  <RMSD>
6.888

$$$$
ligand
 OpenBabel11021811483D
libRbt.so/2013.1/901 2013/11/27
 24 26  0  0  0  0  0  0  0  0999 V2000
   -9.0431   -8.7097    7.7125 P   0  0  1  0  0  0  0  0  0  0  0  0
  -10.5524   -8.5994    7.7518 O   0  0  0  0  0  0  0  0  0  0  0  0
   -8.4321   -9.8345    8.5144 O   0  5  0  0  0  0  0  0  0  0  0  0
   -8.4503   -8.5935    6.3162 O   0  0  0  0  0  0  0  0  0  0  0  0
   -8.7244   -7.2693    9.9790 C   0  0  0  0  0  0  0  0  0  0  0  0
   -8.5385   -7.4203    8.5610 O   0  0  0  0  0  0  0  0  0  0  0  0
   -8.3008   -5.8628   10.4130 C   0  0  1  0  0  0  0  0  0  0  0  0
   -8.4791   -5.6615   11.8207 O   0  0  0  0  0  0  0  0  0  0  0  0
   -6.8485   -5.5183   10.1300 C   0  0  1  0  0  0  0  0  0  0  0  0
   -6.7591   -4.9165    8.8351 O   0  0  0  0  0  0  0  0  0  0  0  0
   -6.5028   -4.5279   11.2299 C   0  0  1  0  0  0  0  0  0  0  0  0
   -6.9459   -3.2098   10.8767 O   0  0  0  0  0  0  0  0  0  0  0  0
   -7.3699   -4.9599   12.3958 C   0  0  2  0  0  0  0  0  0  0  0  0
   -8.1974   -8.1763   16.2722 N   0  0  0  0  0  0  0  0  0  0  0  0
   -9.0604   -7.3420   15.6487 C   0  0  1  0  0  0  0  0  0  0  0  0
  -10.3502   -7.3046   16.0529 N   0  0  0  0  0  0  0  0  0  0  0  0
   -8.6500   -6.5490   14.6315 N   0  0  0  0  0  0  0  0  0  0  0  0
   -7.3565   -6.5906   14.2315 C   0  0  1  0  0  0  0  0  0  0  0  0
   -6.4534   -7.4317   14.8513 C   0  0  2  0  0  0  0  0  0  0  0  0
   -6.9002   -8.2365   15.8928 C   0  0  0  0  0  0  0  0  0  0  0  0
   -6.1179   -9.0101   16.4796 O   0  0  0  0  0  0  0  0  0  0  0  0
   -5.2604   -7.2507   14.2488 N   0  0  0  0  0  0  0  0  0  0  0  0
   -5.4262   -6.3251   13.2753 C   0  0  0  0  0  0  0  0  0  0  0  0
   -6.7053   -5.9367   13.2785 N   0  0  1  0  0  0  0  0  0  0  0  0
  1  2  1  6  0  0  0
  1  3  1  0  0  0  0
  1  4  2  0  0  0  0
  1  6  1  0  0  0  0
  5  6  1  0  0  0  0
  7  5  1  1  0  0  0
  7  8  1  0  0  0  0
  7  9  1  0  0  0  0
  9 10  1  6  0  0  0
  9 11  1  0  0  0  0
 11 12  1  6  0  0  0
 11 13  1  0  0  0  0
 13  8  1  6  0  0  0
 13 24  1  0  0  0  0
 14 15  1  0  0  0  0
 14 20  1  0  0  0  0
 15 16  1  1  0  0  0
 15 17  1  0  0  0  0
 18 17  1  6  0  0  0
 18 19  1  0  0  0  0
 18 24  1  0  0  0  0
 19 20  1  1  0  0  0
 19 22  1  0  0  0  0
 20 21  2  0  0  0  0
 22 23  1  0  0  0  0
 24 23  1  6  0  0  0
M  CHG  1   3  -1
M  END
>  <CHROM.1>
68.49724918,179.52258010,-172.36169628,-54.35741166,-7.82738178,-6.99432928
11.68825979,1.94798096,-1.06938370,-1.31051232

>  <Name>
ligand

>  <RI>
0

>  <Rbt.Current_Directory>
/home/itssahil/PROJECTS/Mol_Feturizer/New_Systems/rnas/3SLQ

>  <Rbt.Executable>
rbdock ($Id: //depot/dev/client3/rdock/2013.1/src/exe/rbdock.cxx#4 $)

>  <Rbt.Library>
libRbt.so (2013.1, Build901 2013/11/27)

>  <Rbt.Parameter_File>
/export/apps/rDock/src/rDock_2013.1_src/data/scripts/dock_solv.prm

>  <Rbt.Receptor>
prm/pocket_docking_4.prm

>  <SCORE>
-11.8182

>  <SCORE.INTER>
-6.0313

>  <SCORE.INTER.CONST>
1

>  <SCORE.INTER.POLAR>
0

>  <SCORE.INTER.ROT>
4

>  <SCORE.INTER.SOLV>
18.2661

>  <SCORE.INTER.VDW>
-16.3762

>  <SCORE.INTER.norm>
-0.251304

>  <SCORE.INTRA>
-5.78687

>  <SCORE.INTRA.DIHEDRAL>
-11.6419

>  <SCORE.INTRA.DIHEDRAL.0>
13.2525

>  <SCORE.INTRA.POLAR>
0

>  <SCORE.INTRA.POLAR.0>
0

>  <SCORE.INTRA.REPUL>
0

>  <SCORE.INTRA.REPUL.0>
0

>  <SCORE.INTRA.SOLV>
0.156515

>  <SCORE.INTRA.SOLV.lig_0>
-70.7221

>  <SCORE.INTRA.VDW>
-0.0441835

>  <SCORE.INTRA.VDW.0>
-1.46337

>  <SCORE.INTRA.norm>
-0.24112

>  <SCORE.RESTR>
0

>  <SCORE.RESTR.CAVITY>
0

>  <SCORE.RESTR.norm>
0

>  <SCORE.SYSTEM>
0

>  <SCORE.SYSTEM.CONST>
0

>  <SCORE.SYSTEM.DIHEDRAL>
0

>  <SCORE.SYSTEM.SOLV>
0

>  <SCORE.SYSTEM.norm>
0

>  <SCORE.heavy>
24

>  <SCORE.norm>
-0.492424

>  <RMSD>
6.892

$$$$
ligand
 OpenBabel11021811483D
libRbt.so/2013.1/901 2013/11/27
 24 26  0  0  0  0  0  0  0  0999 V2000
   -6.4040   -2.5267    9.7904 P   0  0  1  0  0  0  0  0  0  0  0  0
   -6.0748   -2.3295   11.2548 O   0  0  0  0  0  0  0  0  0  0  0  0
   -7.5734   -1.7352    9.2538 O   0  5  0  0  0  0  0  0  0  0  0  0
   -5.1920   -2.4808    8.8720 O   0  0  0  0  0  0  0  0  0  0  0  0
   -8.0669   -4.5127   10.5676 C   0  0  0  0  0  0  0  0  0  0  0  0
   -7.0016   -4.0353    9.7277 O   0  0  0  0  0  0  0  0  0  0  0  0
   -8.2166   -6.0286   10.4079 C   0  0  1  0  0  0  0  0  0  0  0  0
   -6.9473   -6.6941   10.4106 O   0  0  0  0  0  0  0  0  0  0  0  0
   -9.0374   -6.7062   11.4918 C   0  0  1  0  0  0  0  0  0  0  0  0
  -10.4077   -6.7403   11.0818 O   0  0  0  0  0  0  0  0  0  0  0  0
   -8.4415   -8.1027   11.5608 C   0  0  1  0  0  0  0  0  0  0  0  0
   -8.9976   -8.9377   10.5352 O   0  0  0  0  0  0  0  0  0  0  0  0
   -6.9868   -7.8977   11.1873 C   0  0  2  0  0  0  0  0  0  0  0  0
   -6.5868   -8.6658   16.2179 N   0  0  0  0  0  0  0  0  0  0  0  0
   -7.5741   -9.0311   15.3687 C   0  0  1  0  0  0  0  0  0  0  0  0
   -8.6413   -9.7079   15.8500 N   0  0  0  0  0  0  0  0  0  0  0  0
   -7.5068   -8.7286   14.0511 N   0  0  0  0  0  0  0  0  0  0  0  0
   -6.4354   -8.0499   13.5752 C   0  0  1  0  0  0  0  0  0  0  0  0
   -5.4136   -7.6630   14.4199 C   0  0  2  0  0  0  0  0  0  0  0  0
   -5.5064   -7.9867   15.7684 C   0  0  0  0  0  0  0  0  0  0  0  0
   -4.6062   -7.6563   16.5654 O   0  0  0  0  0  0  0  0  0  0  0  0
   -4.5020   -7.0096   13.6709 N   0  0  0  0  0  0  0  0  0  0  0  0
   -4.9480   -7.0007   12.3930 C   0  0  0  0  0  0  0  0  0  0  0  0
   -6.1224   -7.6381   12.3537 N   0  0  1  0  0  0  0  0  0  0  0  0
  1  2  1  1  0  0  0
  1  3  1  0  0  0  0
  1  4  2  0  0  0  0
  1  6  1  0  0  0  0
  5  6  1  0  0  0  0
  7  5  1  1  0  0  0
  7  8  1  0  0  0  0
  7  9  1  0  0  0  0
  9 10  1  6  0  0  0
  9 11  1  0  0  0  0
 11 12  1  6  0  0  0
 11 13  1  0  0  0  0
 13  8  1  6  0  0  0
 13 24  1  0  0  0  0
 14 15  1  0  0  0  0
 14 20  1  0  0  0  0
 15 16  1  1  0  0  0
 15 17  1  0  0  0  0
 18 17  1  6  0  0  0
 18 19  1  0  0  0  0
 18 24  1  0  0  0  0
 19 20  1  1  0  0  0
 19 22  1  0  0  0  0
 20 21  2  0  0  0  0
 22 23  1  0  0  0  0
 24 23  1  6  0  0  0
M  CHG  1   3  -1
M  END
>  <CHROM.1>
52.20190662,44.01272226,-170.57665692,140.08047329,-6.95992288,-6.27147415
12.12267974,-1.58981490,0.64653756,2.39545153

>  <Name>
ligand

>  <RI>
0

>  <Rbt.Current_Directory>
/home/itssahil/PROJECTS/Mol_Feturizer/New_Systems/rnas/3SLQ

>  <Rbt.Executable>
rbdock ($Id: //depot/dev/client3/rdock/2013.1/src/exe/rbdock.cxx#4 $)

>  <Rbt.Library>
libRbt.so (2013.1, Build901 2013/11/27)

>  <Rbt.Parameter_File>
/export/apps/rDock/src/rDock_2013.1_src/data/scripts/dock_solv.prm

>  <Rbt.Receptor>
prm/pocket_docking_3.prm

>  <SCORE>
-7.99959

>  <SCORE.INTER>
-3.25736

>  <SCORE.INTER.CONST>
1

>  <SCORE.INTER.POLAR>
0

>  <SCORE.INTER.ROT>
4

>  <SCORE.INTER.SOLV>
18.9437

>  <SCORE.INTER.VDW>
-14.7528

>  <SCORE.INTER.norm>
-0.135724

>  <SCORE.INTRA>
-4.74222

>  <SCORE.INTRA.DIHEDRAL>
-10.6683

>  <SCORE.INTRA.DIHEDRAL.0>
13.2525

>  <SCORE.INTRA.POLAR>
0

>  <SCORE.INTRA.POLAR.0>
0

>  <SCORE.INTRA.REPUL>
0

>  <SCORE.INTRA.REPUL.0>
0

>  <SCORE.INTRA.SOLV>
0.00845142

>  <SCORE.INTRA.SOLV.lig_0>
-70.7221

>  <SCORE.INTRA.VDW>
0.587718

>  <SCORE.INTRA.VDW.0>
-1.46337

>  <SCORE.INTRA.norm>
-0.197593

>  <SCORE.RESTR>
0

>  <SCORE.RESTR.CAVITY>
0

>  <SCORE.RESTR.norm>
0

>  <SCORE.SYSTEM>
0

>  <SCORE.SYSTEM.CONST>
0

>  <SCORE.SYSTEM.DIHEDRAL>
0

>  <SCORE.SYSTEM.SOLV>
0

>  <SCORE.SYSTEM.norm>
0

>  <SCORE.heavy>
24

>  <SCORE.norm>
-0.333316

>  <RMSD>
6.912

$$$$
ligand
 OpenBabel11021811483D
libRbt.so/2013.1/901 2013/11/27
 24 26  0  0  0  0  0  0  0  0999 V2000
   -5.0402   -8.9169   12.3520 P   0  0  1  0  0  0  0  0  0  0  0  0
   -4.1530   -9.7647   11.4656 O   0  0  0  0  0  0  0  0  0  0  0  0
   -6.2368   -9.6089   12.9611 O   0  5  0  0  0  0  0  0  0  0  0  0
   -4.2787   -8.0657   13.3570 O   0  0  0  0  0  0  0  0  0  0  0  0
   -6.5041   -8.3324   10.1545 C   0  0  0  0  0  0  0  0  0  0  0  0
   -5.7693   -7.9031   11.3137 O   0  0  0  0  0  0  0  0  0  0  0  0
   -7.0749   -7.1159    9.4196 C   0  0  1  0  0  0  0  0  0  0  0  0
   -7.7270   -7.4867    8.1984 O   0  0  0  0  0  0  0  0  0  0  0  0
   -8.1007   -6.3186   10.2068 C   0  0  1  0  0  0  0  0  0  0  0  0
   -7.4258   -5.2932   10.9416 O   0  0  0  0  0  0  0  0  0  0  0  0
   -8.9942   -5.7332    9.1255 C   0  0  1  0  0  0  0  0  0  0  0  0
   -8.4059   -4.5457    8.5759 O   0  0  0  0  0  0  0  0  0  0  0  0
   -8.9538   -6.7682    8.0187 C   0  0  2  0  0  0  0  0  0  0  0  0
  -11.6595   -9.4679   11.4022 N   0  0  0  0  0  0  0  0  0  0  0  0
  -10.6685   -8.5719   11.6132 C   0  0  1  0  0  0  0  0  0  0  0  0
  -10.2888   -8.2946   12.8811 N   0  0  0  0  0  0  0  0  0  0  0  0
  -10.0561   -7.9538   10.5763 N   0  0  0  0  0  0  0  0  0  0  0  0
  -10.4405   -8.2363    9.3086 C   0  0  1  0  0  0  0  0  0  0  0  0
  -11.4484   -9.1481    9.0638 C   0  0  2  0  0  0  0  0  0  0  0  0
  -12.0618   -9.7684   10.1459 C   0  0  0  0  0  0  0  0  0  0  0  0
  -12.9758  -10.5980    9.9695 O   0  0  0  0  0  0  0  0  0  0  0  0
  -11.6026   -9.2236    7.7261 N   0  0  0  0  0  0  0  0  0  0  0  0
  -10.7157   -8.3723    7.1599 C   0  0  0  0  0  0  0  0  0  0  0  0
  -10.0198   -7.7806    8.1359 N   0  0  1  0  0  0  0  0  0  0  0  0
  1  2  1  6  0  0  0
  1  3  1  0  0  0  0
  1  4  2  0  0  0  0
  1  6  1  0  0  0  0
  5  6  1  0  0  0  0
  7  5  1  1  0  0  0
  7  8  1  0  0  0  0
  7  9  1  0  0  0  0
  9 10  1  6  0  0  0
  9 11  1  0  0  0  0
 11 12  1  6  0  0  0
 11 13  1  0  0  0  0
 13  8  1  1  0  0  0
 13 24  1  0  0  0  0
 14 15  1  0  0  0  0
 14 20  1  0  0  0  0
 15 16  1  6  0  0  0
 15 17  1  0  0  0  0
 18 17  1  1  0  0  0
 18 19  1  0  0  0  0
 18 24  1  0  0  0  0
 19 20  1  6  0  0  0
 19 22  1  0  0  0  0
 20 21  2  0  0  0  0
 22 23  1  0  0  0  0
 24 23  1  1  0  0  0
M  CHG  1   3  -1
M  END
>  <CHROM.1>
54.06222951,175.41163843,179.01980831,79.15588533,-8.46339259,-8.08357474
10.33526595,0.27604743,0.34991591,2.35265531

>  <Name>
ligand

>  <RI>
0

>  <Rbt.Current_Directory>
/home/itssahil/PROJECTS/Mol_Feturizer/New_Systems/rnas/3SLQ

>  <Rbt.Executable>
rbdock ($Id: //depot/dev/client3/rdock/2013.1/src/exe/rbdock.cxx#4 $)

>  <Rbt.Library>
libRbt.so (2013.1, Build901 2013/11/27)

>  <Rbt.Parameter_File>
/export/apps/rDock/src/rDock_2013.1_src/data/scripts/dock_solv.prm

>  <Rbt.Receptor>
prm/pocket_docking_6.prm

>  <SCORE>
-12.1925

>  <SCORE.INTER>
-7.56941

>  <SCORE.INTER.CONST>
1

>  <SCORE.INTER.POLAR>
0

>  <SCORE.INTER.ROT>
4

>  <SCORE.INTER.SOLV>
12.6347

>  <SCORE.INTER.VDW>
-15.5245

>  <SCORE.INTER.norm>
-0.315392

>  <SCORE.INTRA>
-4.62305

>  <SCORE.INTRA.DIHEDRAL>
-11.8967

>  <SCORE.INTRA.DIHEDRAL.0>
13.2525

>  <SCORE.INTRA.POLAR>
0

>  <SCORE.INTRA.POLAR.0>
0

>  <SCORE.INTRA.REPUL>
0

>  <SCORE.INTRA.REPUL.0>
0

>  <SCORE.INTRA.SOLV>
1.26554

>  <SCORE.INTRA.SOLV.lig_0>
-70.7221

>  <SCORE.INTRA.VDW>
0.692522

>  <SCORE.INTRA.VDW.0>
-1.46337

>  <SCORE.INTRA.norm>
-0.192627

>  <SCORE.RESTR>
0

>  <SCORE.RESTR.CAVITY>
0

>  <SCORE.RESTR.norm>
0

>  <SCORE.SYSTEM>
0

>  <SCORE.SYSTEM.CONST>
0

>  <SCORE.SYSTEM.DIHEDRAL>
0

>  <SCORE.SYSTEM.SOLV>
0

>  <SCORE.SYSTEM.norm>
0

>  <SCORE.heavy>
24

>  <SCORE.norm>
-0.508019

>  <RMSD>
6.937

$$$$
ligand
 OpenBabel11021811483D
libRbt.so/2013.1/901 2013/11/27
 24 26  0  0  0  0  0  0  0  0999 V2000
   -3.7162   -1.1484    9.7476 P   0  0  1  0  0  0  0  0  0  0  0  0
   -2.2621   -1.5490    9.8757 O   0  0  0  0  0  0  0  0  0  0  0  0
   -4.4118   -0.7323   11.0223 O   0  5  0  0  0  0  0  0  0  0  0  0
   -3.9982   -0.2039    8.5887 O   0  0  0  0  0  0  0  0  0  0  0  0
   -5.8868   -2.7561    9.6149 C   0  0  0  0  0  0  0  0  0  0  0  0
   -4.4764   -2.5473    9.4273 O   0  0  0  0  0  0  0  0  0  0  0  0
   -6.2483   -4.2055    9.2768 C   0  0  1  0  0  0  0  0  0  0  0  0
   -5.6204   -5.1349   10.1690 O   0  0  0  0  0  0  0  0  0  0  0  0
   -7.7329   -4.5223    9.3325 C   0  0  1  0  0  0  0  0  0  0  0  0
   -8.3026   -4.3008    8.0390 O   0  0  0  0  0  0  0  0  0  0  0  0
   -7.7630   -5.9943    9.7101 C   0  0  1  0  0  0  0  0  0  0  0  0
   -7.5712   -6.8149    8.5490 O   0  0  0  0  0  0  0  0  0  0  0  0
   -6.5212   -6.1786   10.5597 C   0  0  2  0  0  0  0  0  0  0  0  0
   -5.9200   -8.3001   15.1634 N   0  0  0  0  0  0  0  0  0  0  0  0
   -5.5875   -8.7832   13.9446 C   0  0  1  0  0  0  0  0  0  0  0  0
   -5.0000   -9.9978   13.8543 N   0  0  0  0  0  0  0  0  0  0  0  0
   -5.8349   -8.0695   12.8215 N   0  0  0  0  0  0  0  0  0  0  0  0
   -6.4242   -6.8537   12.9185 C   0  0  1  0  0  0  0  0  0  0  0  0
   -6.7759   -6.3366   14.1499 C   0  0  2  0  0  0  0  0  0  0  0  0
   -6.5102   -7.0891   15.2880 C   0  0  0  0  0  0  0  0  0  0  0  0
   -6.8115   -6.6597   16.4191 O   0  0  0  0  0  0  0  0  0  0  0  0
   -7.3400   -5.1314   13.9307 N   0  0  0  0  0  0  0  0  0  0  0  0
   -7.3294   -4.9075   12.5959 C   0  0  0  0  0  0  0  0  0  0  0  0
   -6.7684   -5.9631   11.9976 N   0  0  1  0  0  0  0  0  0  0  0  0
  1  2  1  1  0  0  0
  1  3  1  0  0  0  0
  1  4  2  0  0  0  0
  1  6  1  0  0  0  0
  5  6  1  0  0  0  0
  7  5  1  1  0  0  0
  7  8  1  0  0  0  0
  7  9  1  0  0  0  0
  9 10  1  6  0  0  0
  9 11  1  0  0  0  0
 11 12  1  6  0  0  0
 11 13  1  0  0  0  0
 13  8  1  6  0  0  0
 13 24  1  0  0  0  0
 14 15  1  0  0  0  0
 14 20  1  0  0  0  0
 15 16  1  6  0  0  0
 15 17  1  0  0  0  0
 18 17  1  1  0  0  0
 18 19  1  0  0  0  0
 18 24  1  0  0  0  0
 19 20  1  6  0  0  0
 19 22  1  0  0  0  0
 20 21  2  0  0  0  0
 22 23  1  0  0  0  0
 24 23  1  1  0  0  0
M  CHG  1   3  -1
M  END
>  <CHROM.1>
160.52547254,64.10871601,-177.35097536,-117.29233316,-5.87082283,-4.86014724
11.35560327,-1.18869714,0.88644514,2.16655073

>  <Name>
ligand

>  <RI>
0

>  <Rbt.Current_Directory>
/home/itssahil/PROJECTS/Mol_Feturizer/New_Systems/rnas/3SLQ

>  <Rbt.Executable>
rbdock ($Id: //depot/dev/client3/rdock/2013.1/src/exe/rbdock.cxx#4 $)

>  <Rbt.Library>
libRbt.so (2013.1, Build901 2013/11/27)

>  <Rbt.Parameter_File>
/export/apps/rDock/src/rDock_2013.1_src/data/scripts/dock_solv.prm

>  <Rbt.Receptor>
prm/pocket_docking_3.prm

>  <SCORE>
-14.0837

>  <SCORE.INTER>
-8.71477

>  <SCORE.INTER.CONST>
1

>  <SCORE.INTER.POLAR>
0

>  <SCORE.INTER.ROT>
4

>  <SCORE.INTER.SOLV>
22.4637

>  <SCORE.INTER.VDW>
-19.5644

>  <SCORE.INTER.norm>
-0.363116

>  <SCORE.INTRA>
-5.60158

>  <SCORE.INTRA.DIHEDRAL>
-11.3913

>  <SCORE.INTRA.DIHEDRAL.0>
13.2525

>  <SCORE.INTRA.POLAR>
0

>  <SCORE.INTRA.POLAR.0>
0

>  <SCORE.INTRA.REPUL>
0

>  <SCORE.INTRA.REPUL.0>
0

>  <SCORE.INTRA.SOLV>
0.438529

>  <SCORE.INTRA.SOLV.lig_0>
-70.7221

>  <SCORE.INTRA.VDW>
-0.125212

>  <SCORE.INTRA.VDW.0>
-1.46337

>  <SCORE.INTRA.norm>
-0.233399

>  <SCORE.RESTR>
0.232622

>  <SCORE.RESTR.CAVITY>
0.232622

>  <SCORE.RESTR.norm>
0.00969259

>  <SCORE.SYSTEM>
0

>  <SCORE.SYSTEM.CONST>
0

>  <SCORE.SYSTEM.DIHEDRAL>
0

>  <SCORE.SYSTEM.SOLV>
0

>  <SCORE.SYSTEM.norm>
0

>  <SCORE.heavy>
24

>  <SCORE.norm>
-0.586822

>  <RMSD>
6.968

$$$$
ligand
 OpenBabel11021811483D
libRbt.so/2013.1/901 2013/11/27
 24 26  0  0  0  0  0  0  0  0999 V2000
   -8.6309  -10.3640   11.3784 P   0  0  1  0  0  0  0  0  0  0  0  0
   -8.5770  -10.4077    9.8662 O   0  0  0  0  0  0  0  0  0  0  0  0
   -9.7446   -9.5442   11.9861 O   0  5  0  0  0  0  0  0  0  0  0  0
   -8.4713  -11.7232   12.0430 O   0  0  0  0  0  0  0  0  0  0  0  0
   -6.0175   -9.6795   11.2533 C   0  0  0  0  0  0  0  0  0  0  0  0
   -7.3369   -9.4714   11.7862 O   0  0  0  0  0  0  0  0  0  0  0  0
   -5.0196   -8.7555   11.9576 C   0  0  1  0  0  0  0  0  0  0  0  0
   -5.3913   -7.3766   11.8373 O   0  0  0  0  0  0  0  0  0  0  0  0
   -4.8577   -9.0083   13.4468 C   0  0  1  0  0  0  0  0  0  0  0  0
   -3.8005   -9.9517   13.6442 O   0  0  0  0  0  0  0  0  0  0  0  0
   -4.4927   -7.6391   13.9968 C   0  0  1  0  0  0  0  0  0  0  0  0
   -3.0906   -7.3869   13.8271 O   0  0  0  0  0  0  0  0  0  0  0  0
   -5.2044   -6.6724   13.0712 C   0  0  2  0  0  0  0  0  0  0  0  0
   -9.1182   -8.3712   15.8735 N   0  0  0  0  0  0  0  0  0  0  0  0
   -7.9338   -8.9655   15.6022 C   0  0  1  0  0  0  0  0  0  0  0  0
   -7.6749  -10.1875   16.1200 N   0  0  0  0  0  0  0  0  0  0  0  0
   -7.0109   -8.3549   14.8228 N   0  0  0  0  0  0  0  0  0  0  0  0
   -7.2764   -7.1311   14.3065 C   0  0  1  0  0  0  0  0  0  0  0  0
   -8.4780   -6.5018   14.5657 C   0  0  2  0  0  0  0  0  0  0  0  0
   -9.4086   -7.1497   15.3697 C   0  0  0  0  0  0  0  0  0  0  0  0
  -10.5059   -6.6172   15.6287 O   0  0  0  0  0  0  0  0  0  0  0  0
   -8.4560   -5.3174   13.9211 N   0  0  0  0  0  0  0  0  0  0  0  0
   -7.2653   -5.2157   13.2855 C   0  0  0  0  0  0  0  0  0  0  0  0
   -6.5617   -6.3254   13.5320 N   0  0  1  0  0  0  0  0  0  0  0  0
  1  2  1  6  0  0  0
  1  3  1  0  0  0  0
  1  4  2  0  0  0  0
  1  6  1  0  0  0  0
  5  6  1  0  0  0  0
  7  5  1  1  0  0  0
  7  8  1  0  0  0  0
  7  9  1  0  0  0  0
  9 10  1  6  0  0  0
  9 11  1  0  0  0  0
 11 12  1  6  0  0  0
 11 13  1  0  0  0  0
 13  8  1  6  0  0  0
 13 24  1  0  0  0  0
 14 15  1  0  0  0  0
 14 20  1  0  0  0  0
 15 16  1  6  0  0  0
 15 17  1  0  0  0  0
 18 17  1  1  0  0  0
 18 19  1  0  0  0  0
 18 24  1  0  0  0  0
 19 20  1  6  0  0  0
 19 22  1  0  0  0  0
 20 21  2  0  0  0  0
 22 23  1  0  0  0  0
 24 23  1  1  0  0  0
M  CHG  1   3  -1
M  END
>  <CHROM.1>
-47.89762231,-57.19259798,-174.34785934,89.46031845,-7.16798924,-8.42997231
13.29509114,1.58080635,-0.17492568,-2.38053300

>  <Name>
ligand

>  <RI>
0

>  <Rbt.Current_Directory>
/home/itssahil/PROJECTS/Mol_Feturizer/New_Systems/rnas/3SLQ

>  <Rbt.Executable>
rbdock ($Id: //depot/dev/client3/rdock/2013.1/src/exe/rbdock.cxx#4 $)

>  <Rbt.Library>
libRbt.so (2013.1, Build901 2013/11/27)

>  <Rbt.Parameter_File>
/export/apps/rDock/src/rDock_2013.1_src/data/scripts/dock_solv.prm

>  <Rbt.Receptor>
prm/pocket_docking_5.prm

>  <SCORE>
-13.731

>  <SCORE.INTER>
-7.88947

>  <SCORE.INTER.CONST>
1

>  <SCORE.INTER.POLAR>
0

>  <SCORE.INTER.ROT>
4

>  <SCORE.INTER.SOLV>
10.8793

>  <SCORE.INTER.VDW>
-15.1527

>  <SCORE.INTER.norm>
-0.328728

>  <SCORE.INTRA>
-5.84148

>  <SCORE.INTRA.DIHEDRAL>
-11.6108

>  <SCORE.INTRA.DIHEDRAL.0>
13.2525

>  <SCORE.INTRA.POLAR>
0

>  <SCORE.INTRA.POLAR.0>
0

>  <SCORE.INTRA.REPUL>
0

>  <SCORE.INTRA.REPUL.0>
0

>  <SCORE.INTRA.SOLV>
0.701178

>  <SCORE.INTRA.SOLV.lig_0>
-70.7221

>  <SCORE.INTRA.VDW>
-0.386696

>  <SCORE.INTRA.VDW.0>
-1.46337

>  <SCORE.INTRA.norm>
-0.243395

>  <SCORE.RESTR>
0

>  <SCORE.RESTR.CAVITY>
0

>  <SCORE.RESTR.norm>
0

>  <SCORE.SYSTEM>
0

>  <SCORE.SYSTEM.CONST>
0

>  <SCORE.SYSTEM.DIHEDRAL>
0

>  <SCORE.SYSTEM.SOLV>
0

>  <SCORE.SYSTEM.norm>
0

>  <SCORE.heavy>
24

>  <SCORE.norm>
-0.572123

>  <RMSD>
6.992

$$$$
ligand
 OpenBabel11021811483D
libRbt.so/2013.1/901 2013/11/27
 24 26  0  0  0  0  0  0  0  0999 V2000
   -7.6256  -11.7649   13.6801 P   0  0  1  0  0  0  0  0  0  0  0  0
   -8.1286  -12.5125   14.8965 O   0  0  0  0  0  0  0  0  0  0  0  0
   -6.1475  -11.4549   13.6476 O   0  5  0  0  0  0  0  0  0  0  0  0
   -8.1399  -12.3158   12.3585 O   0  0  0  0  0  0  0  0  0  0  0  0
   -7.7936   -9.3278   14.8402 C   0  0  0  0  0  0  0  0  0  0  0  0
   -8.2465  -10.2748   13.8573 O   0  0  0  0  0  0  0  0  0  0  0  0
   -8.6353   -8.0507   14.7596 C   0  0  1  0  0  0  0  0  0  0  0  0
   -8.6889   -7.5294   13.4256 O   0  0  0  0  0  0  0  0  0  0  0  0
  -10.0815   -8.2114   15.1958 C   0  0  1  0  0  0  0  0  0  0  0  0
  -10.1766   -7.9332   16.5959 O   0  0  0  0  0  0  0  0  0  0  0  0
  -10.8146   -7.1675   14.3692 C   0  0  1  0  0  0  0  0  0  0  0  0
  -10.7107   -5.8757   14.9845 O   0  0  0  0  0  0  0  0  0  0  0  0
  -10.0086   -7.0844   13.0882 C   0  0  2  0  0  0  0  0  0  0  0  0
  -11.7377   -7.3040    8.2904 N   0  0  0  0  0  0  0  0  0  0  0  0
  -11.3821   -6.2269    9.0271 C   0  0  1  0  0  0  0  0  0  0  0  0
  -11.4643   -4.9946    8.4764 N   0  0  0  0  0  0  0  0  0  0  0  0
  -10.9481   -6.3675   10.3015 N   0  0  0  0  0  0  0  0  0  0  0  0
  -10.8685   -7.6044   10.8478 C   0  0  1  0  0  0  0  0  0  0  0  0
  -11.2266   -8.7216   10.1191 C   0  0  2  0  0  0  0  0  0  0  0  0
  -11.6683   -8.5502    8.8124 C   0  0  0  0  0  0  0  0  0  0  0  0
  -12.0015   -9.5319    8.1196 O   0  0  0  0  0  0  0  0  0  0  0  0
  -11.0495   -9.7935   10.9183 N   0  0  0  0  0  0  0  0  0  0  0  0
  -10.5857   -9.3479   12.1092 C   0  0  0  0  0  0  0  0  0  0  0  0
  -10.4807   -8.0167   12.0475 N   0  0  1  0  0  0  0  0  0  0  0  0
  1  2  1  1  0  0  0
  1  3  1  0  0  0  0
  1  4  2  0  0  0  0
  1  6  1  0  0  0  0
  5  6  1  0  0  0  0
  7  5  1  6  0  0  0
  7  8  1  0  0  0  0
  7  9  1  0  0  0  0
  9 10  1  1  0  0  0
  9 11  1  0  0  0  0
 11 12  1  1  0  0  0
 11 13  1  0  0  0  0
 13  8  1  1  0  0  0
 13 24  1  0  0  0  0
 14 15  1  0  0  0  0
 14 20  1  0  0  0  0
 15 16  1  1  0  0  0
 15 17  1  0  0  0  0
 18 17  1  6  0  0  0
 18 19  1  0  0  0  0
 18 24  1  0  0  0  0
 19 20  1  1  0  0  0
 19 22  1  0  0  0  0
 20 21  2  0  0  0  0
 22 23  1  0  0  0  0
 24 23  1  6  0  0  0
M  CHG  1   3  -1
M  END
>  <CHROM.1>
71.73604952,-52.16664842,-177.78423547,-122.45058586,-9.75719015,-8.80752541
12.43890926,-0.32700118,1.02675240,-2.16141005

>  <Name>
ligand

>  <RI>
0

>  <Rbt.Current_Directory>
/home/itssahil/PROJECTS/Mol_Feturizer/New_Systems/rnas/3SLQ

>  <Rbt.Executable>
rbdock ($Id: //depot/dev/client3/rdock/2013.1/src/exe/rbdock.cxx#4 $)

>  <Rbt.Library>
libRbt.so (2013.1, Build901 2013/11/27)

>  <Rbt.Parameter_File>
/export/apps/rDock/src/rDock_2013.1_src/data/scripts/dock_solv.prm

>  <Rbt.Receptor>
prm/pocket_docking_6.prm

>  <SCORE>
-12.9214

>  <SCORE.INTER>
-6.3461

>  <SCORE.INTER.CONST>
1

>  <SCORE.INTER.POLAR>
0

>  <SCORE.INTER.ROT>
4

>  <SCORE.INTER.SOLV>
10.633

>  <SCORE.INTER.VDW>
-14.0417

>  <SCORE.INTER.norm>
-0.264421

>  <SCORE.INTRA>
-6.5753

>  <SCORE.INTRA.DIHEDRAL>
-11.5842

>  <SCORE.INTRA.DIHEDRAL.0>
13.2525

>  <SCORE.INTRA.POLAR>
0

>  <SCORE.INTRA.POLAR.0>
0

>  <SCORE.INTRA.REPUL>
0

>  <SCORE.INTRA.REPUL.0>
0

>  <SCORE.INTRA.SOLV>
0.2147

>  <SCORE.INTRA.SOLV.lig_0>
-70.7221

>  <SCORE.INTRA.VDW>
-0.890529

>  <SCORE.INTRA.VDW.0>
-1.46337

>  <SCORE.INTRA.norm>
-0.273971

>  <SCORE.RESTR>
0

>  <SCORE.RESTR.CAVITY>
0

>  <SCORE.RESTR.norm>
0

>  <SCORE.SYSTEM>
0

>  <SCORE.SYSTEM.CONST>
0

>  <SCORE.SYSTEM.DIHEDRAL>
0

>  <SCORE.SYSTEM.SOLV>
0

>  <SCORE.SYSTEM.norm>
0

>  <SCORE.heavy>
24

>  <SCORE.norm>
-0.538392

>  <RMSD>
6.999

$$$$
ligand
 OpenBabel11021811483D
libRbt.so/2013.1/901 2013/11/27
 24 26  0  0  0  0  0  0  0  0999 V2000
   -5.8800   -4.2960    9.4802 P   0  0  1  0  0  0  0  0  0  0  0  0
   -4.4498   -4.5607    9.0605 O   0  0  0  0  0  0  0  0  0  0  0  0
   -6.0723   -3.6262   10.8204 O   0  5  0  0  0  0  0  0  0  0  0  0
   -6.7423   -3.6826    8.3872 O   0  0  0  0  0  0  0  0  0  0  0  0
   -6.9532   -6.6769    8.7778 C   0  0  0  0  0  0  0  0  0  0  0  0
   -6.4726   -5.7759    9.7904 O   0  0  0  0  0  0  0  0  0  0  0  0
   -7.5205   -7.9404    9.4317 C   0  0  1  0  0  0  0  0  0  0  0  0
   -6.4944   -8.7324   10.0432 O   0  0  0  0  0  0  0  0  0  0  0  0
   -8.5483   -7.6881   10.5215 C   0  0  1  0  0  0  0  0  0  0  0  0
   -9.8516   -7.6631    9.9321 O   0  0  0  0  0  0  0  0  0  0  0  0
   -8.3779   -8.8820   11.4467 C   0  0  1  0  0  0  0  0  0  0  0  0
   -9.1015  -10.0143   10.9444 O   0  0  0  0  0  0  0  0  0  0  0  0
   -6.9096   -9.2363   11.3188 C   0  0  2  0  0  0  0  0  0  0  0  0
   -5.8548   -8.9592   16.3055 N   0  0  0  0  0  0  0  0  0  0  0  0
   -6.7611   -9.7284   15.6604 C   0  0  1  0  0  0  0  0  0  0  0  0
   -7.5330  -10.5781   16.3750 N   0  0  0  0  0  0  0  0  0  0  0  0
   -6.9037   -9.6575   14.3162 N   0  0  0  0  0  0  0  0  0  0  0  0
   -6.1279   -8.8039   13.6060 C   0  0  1  0  0  0  0  0  0  0  0  0
   -5.1956   -8.0055   14.2388 C   0  0  2  0  0  0  0  0  0  0  0  0
   -5.0682   -8.0980   15.6199 C   0  0  0  0  0  0  0  0  0  0  0  0
   -4.2390   -7.3951   16.2307 O   0  0  0  0  0  0  0  0  0  0  0  0
   -4.5886   -7.2684   13.2864 N   0  0  0  0  0  0  0  0  0  0  0  0
   -5.1289   -7.6102   12.0934 C   0  0  0  0  0  0  0  0  0  0  0  0
   -6.0607   -8.5447   12.3068 N   0  0  1  0  0  0  0  0  0  0  0  0
  1  2  1  6  0  0  0
  1  3  1  0  0  0  0
  1  4  2  0  0  0  0
  1  6  1  0  0  0  0
  5  6  1  0  0  0  0
  7  5  1  1  0  0  0
  7  8  1  0  0  0  0
  7  9  1  0  0  0  0
  9 10  1  6  0  0  0
  9 11  1  0  0  0  0
 11 12  1  6  0  0  0
 11 13  1  0  0  0  0
 13  8  1  6  0  0  0
 13 24  1  0  0  0  0
 14 15  1  0  0  0  0
 14 20  1  0  0  0  0
 15 16  1  1  0  0  0
 15 17  1  0  0  0  0
 18 17  1  6  0  0  0
 18 19  1  0  0  0  0
 18 24  1  0  0  0  0
 19 20  1  1  0  0  0
 19 22  1  0  0  0  0
 20 21  2  0  0  0  0
 22 23  1  0  0  0  0
 24 23  1  6  0  0  0
M  CHG  1   3  -1
M  END
>  <CHROM.1>
-81.28265512,-68.46934824,-176.34232377,-177.19884083,-6.52015192,-7.39685187
11.84916676,-1.63112621,0.78494839,2.20887526

>  <Name>
ligand

>  <RI>
0

>  <Rbt.Current_Directory>
/home/itssahil/PROJECTS/Mol_Feturizer/New_Systems/rnas/3SLQ

>  <Rbt.Executable>
rbdock ($Id: //depot/dev/client3/rdock/2013.1/src/exe/rbdock.cxx#4 $)

>  <Rbt.Library>
libRbt.so (2013.1, Build901 2013/11/27)

>  <Rbt.Parameter_File>
/export/apps/rDock/src/rDock_2013.1_src/data/scripts/dock_solv.prm

>  <Rbt.Receptor>
prm/pocket_docking_3.prm

>  <SCORE>
-10.0118

>  <SCORE.INTER>
-3.87395

>  <SCORE.INTER.CONST>
1

>  <SCORE.INTER.POLAR>
0

>  <SCORE.INTER.ROT>
4

>  <SCORE.INTER.SOLV>
15.0217

>  <SCORE.INTER.VDW>
-13.8565

>  <SCORE.INTER.norm>
-0.161414

>  <SCORE.INTRA>
-6.14646

>  <SCORE.INTRA.DIHEDRAL>
-11.0594

>  <SCORE.INTRA.DIHEDRAL.0>
13.2525

>  <SCORE.INTRA.POLAR>
0

>  <SCORE.INTRA.POLAR.0>
0

>  <SCORE.INTRA.REPUL>
0

>  <SCORE.INTRA.REPUL.0>
0

>  <SCORE.INTRA.SOLV>
0.11526

>  <SCORE.INTRA.SOLV.lig_0>
-70.7221

>  <SCORE.INTRA.VDW>
-0.674368

>  <SCORE.INTRA.VDW.0>
-1.46337

>  <SCORE.INTRA.norm>
-0.256102

>  <SCORE.RESTR>
0.00859079

>  <SCORE.RESTR.CAVITY>
0.00859079

>  <SCORE.RESTR.norm>
0.00035795

>  <SCORE.SYSTEM>
0

>  <SCORE.SYSTEM.CONST>
0

>  <SCORE.SYSTEM.DIHEDRAL>
0

>  <SCORE.SYSTEM.SOLV>
0

>  <SCORE.SYSTEM.norm>
0

>  <SCORE.heavy>
24

>  <SCORE.norm>
-0.417159

>  <RMSD>
7.004

$$$$
ligand
 OpenBabel11021811483D
libRbt.so/2013.1/901 2013/11/27
 24 26  0  0  0  0  0  0  0  0999 V2000
   -5.3492   -0.5938    9.7954 P   0  0  1  0  0  0  0  0  0  0  0  0
   -4.3232   -0.0607    8.8182 O   0  0  0  0  0  0  0  0  0  0  0  0
   -4.8448   -0.9334   11.1782 O   0  5  0  0  0  0  0  0  0  0  0  0
   -6.6486    0.1971    9.8213 O   0  0  0  0  0  0  0  0  0  0  0  0
   -6.9295   -2.7658    9.4818 C   0  0  0  0  0  0  0  0  0  0  0  0
   -5.6952   -2.0740    9.2243 O   0  0  0  0  0  0  0  0  0  0  0  0
   -6.7634   -4.2578    9.1784 C   0  0  1  0  0  0  0  0  0  0  0  0
   -5.8168   -4.8795   10.0567 O   0  0  0  0  0  0  0  0  0  0  0  0
   -8.0358   -5.0788    9.2992 C   0  0  1  0  0  0  0  0  0  0  0  0
   -8.6899   -5.1090    8.0272 O   0  0  0  0  0  0  0  0  0  0  0  0
   -7.5282   -6.4550    9.6976 C   0  0  1  0  0  0  0  0  0  0  0  0
   -7.0963   -7.1856    8.5409 O   0  0  0  0  0  0  0  0  0  0  0  0
   -6.2743   -6.1638   10.4980 C   0  0  2  0  0  0  0  0  0  0  0  0
   -7.0950   -8.7945   14.7948 N   0  0  0  0  0  0  0  0  0  0  0  0
   -6.8972   -9.2462   13.5353 C   0  0  1  0  0  0  0  0  0  0  0  0
   -6.8973  -10.5786   13.3045 N   0  0  0  0  0  0  0  0  0  0  0  0
   -6.7009   -8.3850   12.5096 N   0  0  0  0  0  0  0  0  0  0  0  0
   -6.7025   -7.0514   12.7470 C   0  0  1  0  0  0  0  0  0  0  0  0
   -6.9036   -6.5624   14.0228 C   0  0  2  0  0  0  0  0  0  0  0  0
   -7.1021   -7.4677   15.0588 C   0  0  0  0  0  0  0  0  0  0  0  0
   -7.2875   -7.0687   16.2255 O   0  0  0  0  0  0  0  0  0  0  0  0
   -6.8581   -5.2167   13.9466 N   0  0  0  0  0  0  0  0  0  0  0  0
   -6.6267   -4.8842   12.6552 C   0  0  0  0  0  0  0  0  0  0  0  0
   -6.5336   -6.0109   11.9418 N   0  0  1  0  0  0  0  0  0  0  0  0
  1  2  1  6  0  0  0
  1  3  1  0  0  0  0
  1  4  2  0  0  0  0
  1  6  1  0  0  0  0
  5  6  1  0  0  0  0
  7  5  1  1  0  0  0
  7  8  1  0  0  0  0
  7  9  1  0  0  0  0
  9 10  1  6  0  0  0
  9 11  1  0  0  0  0
 11 12  1  6  0  0  0
 11 13  1  0  0  0  0
 13  8  1  6  0  0  0
 13 24  1  0  0  0  0
 14 15  1  0  0  0  0
 14 20  1  0  0  0  0
 15 16  1  6  0  0  0
 15 17  1  0  0  0  0
 18 17  1  1  0  0  0
 18 19  1  0  0  0  0
 18 24  1  0  0  0  0
 19 20  1  6  0  0  0
 19 22  1  0  0  0  0
 20 21  2  0  0  0  0
 22 23  1  0  0  0  0
 24 23  1  1  0  0  0
M  CHG  1   3  -1
M  END
>  <CHROM.1>
-155.56379495,64.53005735,-162.65317447,-165.59379150,-6.56107350,-4.91557258
11.25827807,-1.04091584,1.25953662,2.07988299

>  <Name>
ligand

>  <RI>
0

>  <Rbt.Current_Directory>
/home/itssahil/PROJECTS/Mol_Feturizer/New_Systems/rnas/3SLQ

>  <Rbt.Executable>
rbdock ($Id: //depot/dev/client3/rdock/2013.1/src/exe/rbdock.cxx#4 $)

>  <Rbt.Library>
libRbt.so (2013.1, Build901 2013/11/27)

>  <Rbt.Parameter_File>
/export/apps/rDock/src/rDock_2013.1_src/data/scripts/dock_solv.prm

>  <Rbt.Receptor>
prm/pocket_docking_2.prm

>  <SCORE>
-11.0445

>  <SCORE.INTER>
-7.80109

>  <SCORE.INTER.CONST>
1

>  <SCORE.INTER.POLAR>
0

>  <SCORE.INTER.ROT>
4

>  <SCORE.INTER.SOLV>
23.8566

>  <SCORE.INTER.VDW>
-19.4196

>  <SCORE.INTER.norm>
-0.325045

>  <SCORE.INTRA>
-4.85236

>  <SCORE.INTRA.DIHEDRAL>
-9.71967

>  <SCORE.INTRA.DIHEDRAL.0>
13.2525

>  <SCORE.INTRA.POLAR>
0

>  <SCORE.INTRA.POLAR.0>
0

>  <SCORE.INTRA.REPUL>
0

>  <SCORE.INTRA.REPUL.0>
0

>  <SCORE.INTRA.SOLV>
0.64451

>  <SCORE.INTRA.SOLV.lig_0>
-70.7221

>  <SCORE.INTRA.VDW>
-0.314786

>  <SCORE.INTRA.VDW.0>
-1.46337

>  <SCORE.INTRA.norm>
-0.202182

>  <SCORE.RESTR>
1.60894

>  <SCORE.RESTR.CAVITY>
1.60894

>  <SCORE.RESTR.norm>
0.0670392

>  <SCORE.SYSTEM>
0

>  <SCORE.SYSTEM.CONST>
0

>  <SCORE.SYSTEM.DIHEDRAL>
0

>  <SCORE.SYSTEM.SOLV>
0

>  <SCORE.SYSTEM.norm>
0

>  <SCORE.heavy>
24

>  <SCORE.norm>
-0.460188

>  <RMSD>
7.014

$$$$
ligand
 OpenBabel11021811483D
libRbt.so/2013.1/901 2013/11/27
 24 26  0  0  0  0  0  0  0  0999 V2000
   -6.6018   -4.5864    9.7148 P   0  0  1  0  0  0  0  0  0  0  0  0
   -5.3140   -4.6538    8.9220 O   0  0  0  0  0  0  0  0  0  0  0  0
   -6.5284   -5.0431   11.1528 O   0  5  0  0  0  0  0  0  0  0  0  0
   -7.3614   -3.2784    9.5515 O   0  0  0  0  0  0  0  0  0  0  0  0
   -7.1081   -7.1367    8.9711 C   0  0  0  0  0  0  0  0  0  0  0  0
   -7.5170   -5.7613    9.0673 O   0  0  0  0  0  0  0  0  0  0  0  0
   -8.2346   -7.9731    8.3570 C   0  0  1  0  0  0  0  0  0  0  0  0
   -9.4276   -7.9270    9.1500 O   0  0  0  0  0  0  0  0  0  0  0  0
   -8.6542   -7.5501    6.9596 C   0  0  1  0  0  0  0  0  0  0  0  0
   -7.8784   -8.2779    6.0030 O   0  0  0  0  0  0  0  0  0  0  0  0
  -10.1216   -7.9418    6.9010 C   0  0  1  0  0  0  0  0  0  0  0  0
  -10.2578   -9.3344    6.5843 O   0  0  0  0  0  0  0  0  0  0  0  0
  -10.5969   -7.7922    8.3326 C   0  0  2  0  0  0  0  0  0  0  0  0
  -14.0050   -4.3217    6.7843 N   0  0  0  0  0  0  0  0  0  0  0  0
  -13.7182   -5.5364    6.2632 C   0  0  1  0  0  0  0  0  0  0  0  0
  -14.3980   -5.9648    5.1755 N   0  0  0  0  0  0  0  0  0  0  0  0
  -12.7643   -6.3229    6.8142 N   0  0  0  0  0  0  0  0  0  0  0  0
  -12.0864   -5.8879    7.9032 C   0  0  1  0  0  0  0  0  0  0  0  0
  -12.3574   -4.6513    8.4552 C   0  0  2  0  0  0  0  0  0  0  0  0
  -13.3421   -3.8633    7.8710 C   0  0  0  0  0  0  0  0  0  0  0  0
  -13.6181   -2.7403    8.3374 O   0  0  0  0  0  0  0  0  0  0  0  0
  -11.5316   -4.4950    9.5100 N   0  0  0  0  0  0  0  0  0  0  0  0
  -10.7747   -5.6126    9.6104 C   0  0  0  0  0  0  0  0  0  0  0  0
  -11.1263   -6.4477    8.6276 N   0  0  1  0  0  0  0  0  0  0  0  0
  1  2  1  6  0  0  0
  1  3  1  0  0  0  0
  1  4  2  0  0  0  0
  1  6  1  0  0  0  0
  5  6  1  0  0  0  0
  7  5  1  1  0  0  0
  7  8  1  0  0  0  0
  7  9  1  0  0  0  0
  9 10  1  6  0  0  0
  9 11  1  0  0  0  0
 11 12  1  1  0  0  0
 11 13  1  0  0  0  0
 13  8  1  1  0  0  0
 13 24  1  0  0  0  0
 14 15  1  0  0  0  0
 14 20  1  0  0  0  0
 15 16  1  6  0  0  0
 15 17  1  0  0  0  0
 18 17  1  1  0  0  0
 18 19  1  0  0  0  0
 18 24  1  0  0  0  0
 19 20  1  6  0  0  0
 19 22  1  0  0  0  0
 20 21  2  0  0  0  0
 22 23  1  0  0  0  0
 24 23  1  1  0  0  0
M  CHG  1   3  -1
M  END
>  <CHROM.1>
55.82295437,-60.38705940,177.88297448,169.16977893,-9.91723022,-5.89633719
8.23125120,0.11790242,-0.31617316,0.49005704

>  <Name>
ligand

>  <RI>
0

>  <Rbt.Current_Directory>
/home/itssahil/PROJECTS/Mol_Feturizer/New_Systems/rnas/3SLQ

>  <Rbt.Executable>
rbdock ($Id: //depot/dev/client3/rdock/2013.1/src/exe/rbdock.cxx#4 $)

>  <Rbt.Library>
libRbt.so (2013.1, Build901 2013/11/27)

>  <Rbt.Parameter_File>
/export/apps/rDock/src/rDock_2013.1_src/data/scripts/dock_solv.prm

>  <Rbt.Receptor>
prm/pocket_docking_8.prm

>  <SCORE>
-18.0188

>  <SCORE.INTER>
-11.3814

>  <SCORE.INTER.CONST>
1

>  <SCORE.INTER.POLAR>
0

>  <SCORE.INTER.ROT>
4

>  <SCORE.INTER.SOLV>
14.5023

>  <SCORE.INTER.VDW>
-18.6883

>  <SCORE.INTER.norm>
-0.474224

>  <SCORE.INTRA>
-6.63743

>  <SCORE.INTRA.DIHEDRAL>
-12.012

>  <SCORE.INTRA.DIHEDRAL.0>
13.2525

>  <SCORE.INTRA.POLAR>
0

>  <SCORE.INTRA.POLAR.0>
0

>  <SCORE.INTRA.REPUL>
0

>  <SCORE.INTRA.REPUL.0>
0

>  <SCORE.INTRA.SOLV>
0.0192638

>  <SCORE.INTRA.SOLV.lig_0>
-70.7221

>  <SCORE.INTRA.VDW>
-0.64104

>  <SCORE.INTRA.VDW.0>
-1.46337

>  <SCORE.INTRA.norm>
-0.27656

>  <SCORE.RESTR>
0

>  <SCORE.RESTR.CAVITY>
0

>  <SCORE.RESTR.norm>
0

>  <SCORE.SYSTEM>
0

>  <SCORE.SYSTEM.CONST>
0

>  <SCORE.SYSTEM.DIHEDRAL>
0

>  <SCORE.SYSTEM.SOLV>
0

>  <SCORE.SYSTEM.norm>
0

>  <SCORE.heavy>
24

>  <SCORE.norm>
-0.750784

>  <RMSD>
7.020

$$$$
ligand
 OpenBabel11021811483D
libRbt.so/2013.1/901 2013/11/27
 24 26  0  0  0  0  0  0  0  0999 V2000
   -4.7937  -11.5214   10.3155 P   0  0  1  0  0  0  0  0  0  0  0  0
   -5.9080  -12.4317    9.8450 O   0  0  0  0  0  0  0  0  0  0  0  0
   -4.6157  -11.3971   11.8103 O   0  5  0  0  0  0  0  0  0  0  0  0
   -3.4767  -11.7250    9.5815 O   0  0  0  0  0  0  0  0  0  0  0  0
   -6.5811   -9.4938   10.4016 C   0  0  0  0  0  0  0  0  0  0  0  0
   -5.3280  -10.0329    9.9465 O   0  0  0  0  0  0  0  0  0  0  0  0
   -6.7772   -8.0837    9.8368 C   0  0  1  0  0  0  0  0  0  0  0  0
   -6.8558   -8.0873    8.4058 O   0  0  0  0  0  0  0  0  0  0  0  0
   -8.0325   -7.3740   10.3148 C   0  0  1  0  0  0  0  0  0  0  0  0
   -7.7220   -6.6291   11.4961 O   0  0  0  0  0  0  0  0  0  0  0  0
   -8.3803   -6.4573    9.1533 C   0  0  1  0  0  0  0  0  0  0  0  0
   -7.6043   -5.2521    9.2145 O   0  0  0  0  0  0  0  0  0  0  0  0
   -7.8854   -7.2094    7.9338 C   0  0  2  0  0  0  0  0  0  0  0  0
  -12.6532   -7.2704    6.1115 N   0  0  0  0  0  0  0  0  0  0  0  0
  -11.9477   -6.2436    6.6383 C   0  0  1  0  0  0  0  0  0  0  0  0
  -12.5222   -5.0223    6.7211 N   0  0  0  0  0  0  0  0  0  0  0  0
  -10.6813   -6.4237    7.0810 N   0  0  0  0  0  0  0  0  0  0  0  0
  -10.1115   -7.6496    6.9960 C   0  0  1  0  0  0  0  0  0  0  0  0
  -10.8092   -8.7162    6.4642 C   0  0  2  0  0  0  0  0  0  0  0  0
  -12.1078   -8.5048    6.0158 C   0  0  0  0  0  0  0  0  0  0  0  0
  -12.7730   -9.4404    5.5290 O   0  0  0  0  0  0  0  0  0  0  0  0
   -9.9964   -9.7912    6.5164 N   0  0  0  0  0  0  0  0  0  0  0  0
   -8.8223   -9.3945    7.0607 C   0  0  0  0  0  0  0  0  0  0  0  0
   -8.9101   -8.0911    7.3442 N   0  0  1  0  0  0  0  0  0  0  0  0
  1  2  1  6  0  0  0
  1  3  1  0  0  0  0
  1  4  2  0  0  0  0
  1  6  1  0  0  0  0
  5  6  1  0  0  0  0
  7  5  1  1  0  0  0
  7  8  1  0  0  0  0
  7  9  1  0  0  0  0
  9 10  1  1  0  0  0
  9 11  1  0  0  0  0
 11 12  1  1  0  0  0
 11 13  1  0  0  0  0
 13  8  1  1  0  0  0
 13 24  1  0  0  0  0
 14 15  1  0  0  0  0
 14 20  1  0  0  0  0
 15 16  1  1  0  0  0
 15 17  1  0  0  0  0
 18 17  1  6  0  0  0
 18 19  1  0  0  0  0
 18 24  1  0  0  0  0
 19 20  1  1  0  0  0
 19 22  1  0  0  0  0
 20 21  2  0  0  0  0
 22 23  1  0  0  0  0
 24 23  1  6  0  0  0
M  CHG  1   3  -1
M  END
>  <CHROM.1>
55.98017622,63.01417786,-178.60858803,168.94229676,-8.24158568,-8.63909836
8.54533354,0.25591260,0.63823207,-2.79472277

>  <Name>
ligand

>  <RI>
0

>  <Rbt.Current_Directory>
/home/itssahil/PROJECTS/Mol_Feturizer/New_Systems/rnas/3SLQ

>  <Rbt.Executable>
rbdock ($Id: //depot/dev/client3/rdock/2013.1/src/exe/rbdock.cxx#4 $)

>  <Rbt.Library>
libRbt.so (2013.1, Build901 2013/11/27)

>  <Rbt.Parameter_File>
/export/apps/rDock/src/rDock_2013.1_src/data/scripts/dock_solv.prm

>  <Rbt.Receptor>
prm/pocket_docking_8.prm

>  <SCORE>
-16.677

>  <SCORE.INTER>
-10.5966

>  <SCORE.INTER.CONST>
1

>  <SCORE.INTER.POLAR>
0

>  <SCORE.INTER.ROT>
4

>  <SCORE.INTER.SOLV>
14.206

>  <SCORE.INTER.VDW>
-18.0664

>  <SCORE.INTER.norm>
-0.441525

>  <SCORE.INTRA>
-6.08044

>  <SCORE.INTRA.DIHEDRAL>
-11.9951

>  <SCORE.INTRA.DIHEDRAL.0>
13.2525

>  <SCORE.INTRA.POLAR>
0

>  <SCORE.INTRA.POLAR.0>
0

>  <SCORE.INTRA.REPUL>
0

>  <SCORE.INTRA.REPUL.0>
0

>  <SCORE.INTRA.SOLV>
-0.0830357

>  <SCORE.INTRA.SOLV.lig_0>
-70.7221

>  <SCORE.INTRA.VDW>
-0.041379

>  <SCORE.INTRA.VDW.0>
-1.46337

>  <SCORE.INTRA.norm>
-0.253352

>  <SCORE.RESTR>
0

>  <SCORE.RESTR.CAVITY>
0

>  <SCORE.RESTR.norm>
0

>  <SCORE.SYSTEM>
0

>  <SCORE.SYSTEM.CONST>
0

>  <SCORE.SYSTEM.DIHEDRAL>
0

>  <SCORE.SYSTEM.SOLV>
0

>  <SCORE.SYSTEM.norm>
0

>  <SCORE.heavy>
24

>  <SCORE.norm>
-0.694877

>  <RMSD>
7.045

$$$$
ligand
 OpenBabel11021811483D
libRbt.so/2013.1/901 2013/11/27
 24 26  0  0  0  0  0  0  0  0999 V2000
   -0.8540   -1.1734    9.3956 P   0  0  1  0  0  0  0  0  0  0  0  0
   -0.2824   -2.5749    9.3715 O   0  0  0  0  0  0  0  0  0  0  0  0
   -0.4299   -0.2963   10.5499 O   0  5  0  0  0  0  0  0  0  0  0  0
   -0.7881   -0.4550    8.0561 O   0  0  0  0  0  0  0  0  0  0  0  0
   -3.2603   -2.3687    9.0881 C   0  0  0  0  0  0  0  0  0  0  0  0
   -2.4233   -1.4014    9.7454 O   0  0  0  0  0  0  0  0  0  0  0  0
   -4.7129   -1.8830    9.0836 C   0  0  1  0  0  0  0  0  0  0  0  0
   -5.5755   -2.7842    8.3780 O   0  0  0  0  0  0  0  0  0  0  0  0
   -5.3333   -1.7143   10.4599 C   0  0  1  0  0  0  0  0  0  0  0  0
   -5.1086   -0.3744   10.9081 O   0  0  0  0  0  0  0  0  0  0  0  0
   -6.8096   -1.9793   10.2134 C   0  0  1  0  0  0  0  0  0  0  0  0
   -7.4551   -0.7998    9.7129 O   0  0  0  0  0  0  0  0  0  0  0  0
   -6.8159   -2.9742    9.0699 C   0  0  2  0  0  0  0  0  0  0  0  0
   -9.7217   -7.1438    9.5472 N   0  0  0  0  0  0  0  0  0  0  0  0
  -10.0493   -5.9168    9.0818 C   0  0  1  0  0  0  0  0  0  0  0  0
  -11.3125   -5.6880    8.6569 N   0  0  0  0  0  0  0  0  0  0  0  0
   -9.1331   -4.9215    9.0372 N   0  0  0  0  0  0  0  0  0  0  0  0
   -7.8695   -5.1567    9.4649 C   0  0  1  0  0  0  0  0  0  0  0  0
   -7.5078   -6.3995    9.9465 C   0  0  2  0  0  0  0  0  0  0  0  0
   -8.4671   -7.4047    9.9810 C   0  0  0  0  0  0  0  0  0  0  0  0
   -8.1827   -8.5411   10.4084 O   0  0  0  0  0  0  0  0  0  0  0  0
   -6.2075   -6.3289   10.2975 N   0  0  0  0  0  0  0  0  0  0  0  0
   -5.7759   -5.0740   10.0314 C   0  0  0  0  0  0  0  0  0  0  0  0
   -6.7980   -4.3770    9.5250 N   0  0  1  0  0  0  0  0  0  0  0  0
  1  2  1  6  0  0  0
  1  3  1  0  0  0  0
  1  4  2  0  0  0  0
  1  6  1  0  0  0  0
  5  6  1  0  0  0  0
  7  5  1  1  0  0  0
  7  8  1  0  0  0  0
  7  9  1  0  0  0  0
  9 10  1  6  0  0  0
  9 11  1  0  0  0  0
 11 12  1  6  0  0  0
 11 13  1  0  0  0  0
 13  8  1  6  0  0  0
 13 24  1  0  0  0  0
 14 15  1  0  0  0  0
 14 20  1  0  0  0  0
 15 16  1  1  0  0  0
 15 17  1  0  0  0  0
 18 17  1  6  0  0  0
 18 19  1  0  0  0  0
 18 24  1  0  0  0  0
 19 20  1  1  0  0  0
 19 22  1  0  0  0  0
 20 21  2  0  0  0  0
 22 23  1  0  0  0  0
 24 23  1  6  0  0  0
M  CHG  1   3  -1
M  END
>  <CHROM.1>
-47.59310221,177.04258256,-150.87192041,-138.87515623,-5.47766881,-3.42065659
9.57265742,-0.60838464,0.01799692,3.10205556

>  <Name>
ligand

>  <RI>
0

>  <Rbt.Current_Directory>
/home/itssahil/PROJECTS/Mol_Feturizer/New_Systems/rnas/3SLQ

>  <Rbt.Executable>
rbdock ($Id: //depot/dev/client3/rdock/2013.1/src/exe/rbdock.cxx#4 $)

>  <Rbt.Library>
libRbt.so (2013.1, Build901 2013/11/27)

>  <Rbt.Parameter_File>
/export/apps/rDock/src/rDock_2013.1_src/data/scripts/dock_solv.prm

>  <Rbt.Receptor>
prm/pocket_docking_4.prm

>  <SCORE>
-13.846

>  <SCORE.INTER>
-9.71542

>  <SCORE.INTER.CONST>
1

>  <SCORE.INTER.POLAR>
0

>  <SCORE.INTER.ROT>
4

>  <SCORE.INTER.SOLV>
25.1047

>  <SCORE.INTER.VDW>
-21.1119

>  <SCORE.INTER.norm>
-0.404809

>  <SCORE.INTRA>
-4.55979

>  <SCORE.INTRA.DIHEDRAL>
-8.31927

>  <SCORE.INTRA.DIHEDRAL.0>
13.2525

>  <SCORE.INTRA.POLAR>
0

>  <SCORE.INTRA.POLAR.0>
0

>  <SCORE.INTRA.REPUL>
0

>  <SCORE.INTRA.REPUL.0>
0

>  <SCORE.INTRA.SOLV>
0.0384056

>  <SCORE.INTRA.SOLV.lig_0>
-70.7221

>  <SCORE.INTRA.VDW>
-0.419356

>  <SCORE.INTRA.VDW.0>
-1.46337

>  <SCORE.INTRA.norm>
-0.189991

>  <SCORE.RESTR>
0.429237

>  <SCORE.RESTR.CAVITY>
0.429237

>  <SCORE.RESTR.norm>
0.0178849

>  <SCORE.SYSTEM>
0

>  <SCORE.SYSTEM.CONST>
0

>  <SCORE.SYSTEM.DIHEDRAL>
0

>  <SCORE.SYSTEM.SOLV>
0

>  <SCORE.SYSTEM.norm>
0

>  <SCORE.heavy>
24

>  <SCORE.norm>
-0.576915

>  <RMSD>
7.056

$$$$
ligand
 OpenBabel11021811483D
libRbt.so/2013.1/901 2013/11/27
 24 26  0  0  0  0  0  0  0  0999 V2000
   -6.0537   -3.5960    9.4641 P   0  0  1  0  0  0  0  0  0  0  0  0
   -6.4579   -2.9079   10.7504 O   0  0  0  0  0  0  0  0  0  0  0  0
   -5.4540   -2.7159    8.3928 O   0  5  0  0  0  0  0  0  0  0  0  0
   -5.2731   -4.8854    9.6708 O   0  0  0  0  0  0  0  0  0  0  0  0
   -8.4982   -4.7523    9.4350 C   0  0  0  0  0  0  0  0  0  0  0  0
   -7.4699   -3.9931    8.7758 O   0  0  0  0  0  0  0  0  0  0  0  0
   -9.6717   -4.9806    8.4777 C   0  0  1  0  0  0  0  0  0  0  0  0
   -9.2884   -5.7625    7.3393 O   0  0  0  0  0  0  0  0  0  0  0  0
  -10.8620   -5.7008    9.0880 C   0  0  1  0  0  0  0  0  0  0  0  0
  -11.7645   -4.7299    9.6261 O   0  0  0  0  0  0  0  0  0  0  0  0
  -11.4725   -6.4335    7.9045 C   0  0  1  0  0  0  0  0  0  0  0  0
  -12.3171   -5.5530    7.1496 O   0  0  0  0  0  0  0  0  0  0  0  0
  -10.2856   -6.7381    7.0121 C   0  0  2  0  0  0  0  0  0  0  0  0
   -7.8715   -9.3854   10.6481 N   0  0  0  0  0  0  0  0  0  0  0  0
   -8.3328   -8.1142   10.6736 C   0  0  1  0  0  0  0  0  0  0  0  0
   -8.1726   -7.3766   11.7956 N   0  0  0  0  0  0  0  0  0  0  0  0
   -8.9488   -7.5753    9.5955 N   0  0  0  0  0  0  0  0  0  0  0  0
   -9.1057   -8.3190    8.4744 C   0  0  1  0  0  0  0  0  0  0  0  0
   -8.6430   -9.6190    8.4198 C   0  0  2  0  0  0  0  0  0  0  0  0
   -8.0148  -10.1493    9.5407 C   0  0  0  0  0  0  0  0  0  0  0  0
   -7.5822  -11.3186    9.5339 O   0  0  0  0  0  0  0  0  0  0  0  0
   -8.9338  -10.0954    7.1921 N   0  0  0  0  0  0  0  0  0  0  0  0
   -9.5678   -9.1143    6.5084 C   0  0  0  0  0  0  0  0  0  0  0  0
   -9.6646   -8.0438    7.3032 N   0  0  1  0  0  0  0  0  0  0  0  0
  1  2  1  1  0  0  0
  1  3  1  0  0  0  0
  1  4  2  0  0  0  0
  1  6  1  0  0  0  0
  5  6  1  0  0  0  0
  7  5  1  1  0  0  0
  7  8  1  0  0  0  0
  7  9  1  0  0  0  0
  9 10  1  6  0  0  0
  9 11  1  0  0  0  0
 11 12  1  6  0  0  0
 11 13  1  0  0  0  0
 13  8  1  1  0  0  0
 13 24  1  0  0  0  0
 14 15  1  0  0  0  0
 14 20  1  0  0  0  0
 15 16  1  6  0  0  0
 15 17  1  0  0  0  0
 18 17  1  1  0  0  0
 18 19  1  0  0  0  0
 18 24  1  0  0  0  0
 19 20  1  6  0  0  0
 19 22  1  0  0  0  0
 20 21  2  0  0  0  0
 22 23  1  0  0  0  0
 24 23  1  1  0  0  0
M  CHG  1   3  -1
M  END
>  <CHROM.1>
-53.99539794,63.14974399,-178.09638489,52.55541457,-8.56514156,-6.46935772
8.90814822,-1.09203378,0.44134645,3.09704992

>  <Name>
ligand

>  <RI>
0

>  <Rbt.Current_Directory>
/home/itssahil/PROJECTS/Mol_Feturizer/New_Systems/rnas/3SLQ

>  <Rbt.Executable>
rbdock ($Id: //depot/dev/client3/rdock/2013.1/src/exe/rbdock.cxx#4 $)

>  <Rbt.Library>
libRbt.so (2013.1, Build901 2013/11/27)

>  <Rbt.Parameter_File>
/export/apps/rDock/src/rDock_2013.1_src/data/scripts/dock_solv.prm

>  <Rbt.Receptor>
prm/pocket_docking_6.prm

>  <SCORE>
-16.6709

>  <SCORE.INTER>
-11.5183

>  <SCORE.INTER.CONST>
1

>  <SCORE.INTER.POLAR>
0

>  <SCORE.INTER.ROT>
4

>  <SCORE.INTER.SOLV>
21.0669

>  <SCORE.INTER.VDW>
-20.9678

>  <SCORE.INTER.norm>
-0.479928

>  <SCORE.INTRA>
-5.15268

>  <SCORE.INTRA.DIHEDRAL>
-11.9458

>  <SCORE.INTRA.DIHEDRAL.0>
13.2525

>  <SCORE.INTRA.POLAR>
0

>  <SCORE.INTRA.POLAR.0>
0

>  <SCORE.INTRA.REPUL>
0

>  <SCORE.INTRA.REPUL.0>
0

>  <SCORE.INTRA.SOLV>
2.20929

>  <SCORE.INTRA.SOLV.lig_0>
-70.7221

>  <SCORE.INTRA.VDW>
-0.2844

>  <SCORE.INTRA.VDW.0>
-1.46337

>  <SCORE.INTRA.norm>
-0.214695

>  <SCORE.RESTR>
0

>  <SCORE.RESTR.CAVITY>
0

>  <SCORE.RESTR.norm>
0

>  <SCORE.SYSTEM>
0

>  <SCORE.SYSTEM.CONST>
0

>  <SCORE.SYSTEM.DIHEDRAL>
0

>  <SCORE.SYSTEM.SOLV>
0

>  <SCORE.SYSTEM.norm>
0

>  <SCORE.heavy>
24

>  <SCORE.norm>
-0.694623

>  <RMSD>
7.057

$$$$
ligand
 OpenBabel11021811483D
libRbt.so/2013.1/901 2013/11/27
 24 26  0  0  0  0  0  0  0  0999 V2000
   -6.0183   -3.6988    9.3122 P   0  0  1  0  0  0  0  0  0  0  0  0
   -5.3401   -5.0521    9.3177 O   0  0  0  0  0  0  0  0  0  0  0  0
   -6.4255   -3.1475   10.6583 O   0  5  0  0  0  0  0  0  0  0  0  0
   -5.3267   -2.6635    8.4377 O   0  0  0  0  0  0  0  0  0  0  0  0
   -8.5131   -4.7425    9.3051 C   0  0  0  0  0  0  0  0  0  0  0  0
   -7.4715   -3.9966    8.6515 O   0  0  0  0  0  0  0  0  0  0  0  0
   -9.6653   -4.9939    8.3279 C   0  0  1  0  0  0  0  0  0  0  0  0
   -9.2600   -5.8115    7.2227 O   0  0  0  0  0  0  0  0  0  0  0  0
  -10.8734   -5.6896    8.9315 C   0  0  1  0  0  0  0  0  0  0  0  0
  -11.7828   -4.6985    9.4190 O   0  0  0  0  0  0  0  0  0  0  0  0
  -11.4603   -6.4546    7.7566 C   0  0  1  0  0  0  0  0  0  0  0  0
  -12.2823   -5.5932    6.9562 O   0  0  0  0  0  0  0  0  0  0  0  0
  -10.2548   -6.7917    6.9017 C   0  0  2  0  0  0  0  0  0  0  0  0
   -7.8828   -9.3188   10.6493 N   0  0  0  0  0  0  0  0  0  0  0  0
   -8.3317   -8.0432   10.6232 C   0  0  1  0  0  0  0  0  0  0  0  0
   -8.1691   -7.2641   11.7164 N   0  0  0  0  0  0  0  0  0  0  0  0
   -8.9376   -7.5406    9.5221 N   0  0  0  0  0  0  0  0  0  0  0  0
   -9.0969   -8.3258    8.4299 C   0  0  1  0  0  0  0  0  0  0  0  0
   -8.6468   -9.6314    8.4281 C   0  0  2  0  0  0  0  0  0  0  0  0
   -8.0287  -10.1237    9.5717 C   0  0  0  0  0  0  0  0  0  0  0  0
   -7.6076  -11.2966    9.6124 O   0  0  0  0  0  0  0  0  0  0  0  0
   -8.9369  -10.1524    7.2184 N   0  0  0  0  0  0  0  0  0  0  0  0
   -9.5582   -9.1925    6.4941 C   0  0  0  0  0  0  0  0  0  0  0  0
   -9.6479   -8.0910    7.2462 N   0  0  1  0  0  0  0  0  0  0  0  0
  1  2  1  1  0  0  0
  1  3  1  0  0  0  0
  1  4  2  0  0  0  0
  1  6  1  0  0  0  0
  5  6  1  0  0  0  0
  7  5  1  1  0  0  0
  7  8  1  0  0  0  0
  7  9  1  0  0  0  0
  9 10  1  6  0  0  0
  9 11  1  0  0  0  0
 11 12  1  6  0  0  0
 11 13  1  0  0  0  0
 13  8  1  1  0  0  0
 13 24  1  0  0  0  0
 14 15  1  0  0  0  0
 14 20  1  0  0  0  0
 15 16  1  6  0  0  0
 15 17  1  0  0  0  0
 18 17  1  1  0  0  0
 18 19  1  0  0  0  0
 18 24  1  0  0  0  0
 19 20  1  6  0  0  0
 19 22  1  0  0  0  0
 20 21  2  0  0  0  0
 22 23  1  0  0  0  0
 24 23  1  1  0  0  0
M  CHG  1   3  -1
M  END
>  <CHROM.1>
70.11426823,63.73736928,-172.26107952,51.34231492,-8.55552909,-6.49417805
8.81614187,-1.07122077,0.44888949,3.06865724

>  <Name>
ligand

>  <RI>
0

>  <Rbt.Current_Directory>
/home/itssahil/PROJECTS/Mol_Feturizer/New_Systems/rnas/3SLQ

>  <Rbt.Executable>
rbdock ($Id: //depot/dev/client3/rdock/2013.1/src/exe/rbdock.cxx#4 $)

>  <Rbt.Library>
libRbt.so (2013.1, Build901 2013/11/27)

>  <Rbt.Parameter_File>
/export/apps/rDock/src/rDock_2013.1_src/data/scripts/dock_solv.prm

>  <Rbt.Receptor>
prm/pocket_docking_5.prm

>  <SCORE>
-17.6053

>  <SCORE.INTER>
-12.7649

>  <SCORE.INTER.CONST>
1

>  <SCORE.INTER.POLAR>
0

>  <SCORE.INTER.ROT>
4

>  <SCORE.INTER.SOLV>
19.5079

>  <SCORE.INTER.VDW>
-21.2792

>  <SCORE.INTER.norm>
-0.53187

>  <SCORE.INTRA>
-4.84046

>  <SCORE.INTRA.DIHEDRAL>
-11.5526

>  <SCORE.INTRA.DIHEDRAL.0>
13.2525

>  <SCORE.INTRA.POLAR>
0

>  <SCORE.INTRA.POLAR.0>
0

>  <SCORE.INTRA.REPUL>
0

>  <SCORE.INTRA.REPUL.0>
0

>  <SCORE.INTRA.SOLV>
2.26635

>  <SCORE.INTRA.SOLV.lig_0>
-70.7221

>  <SCORE.INTRA.VDW>
-0.197359

>  <SCORE.INTRA.VDW.0>
-1.46337

>  <SCORE.INTRA.norm>
-0.201686

>  <SCORE.RESTR>
0

>  <SCORE.RESTR.CAVITY>
0

>  <SCORE.RESTR.norm>
0

>  <SCORE.SYSTEM>
0

>  <SCORE.SYSTEM.CONST>
0

>  <SCORE.SYSTEM.DIHEDRAL>
0

>  <SCORE.SYSTEM.SOLV>
0

>  <SCORE.SYSTEM.norm>
0

>  <SCORE.heavy>
24

>  <SCORE.norm>
-0.733556

>  <RMSD>
7.063

$$$$
ligand
 OpenBabel11021811483D
libRbt.so/2013.1/901 2013/11/27
 24 26  0  0  0  0  0  0  0  0999 V2000
   -6.7097   -4.3112    9.5519 P   0  0  1  0  0  0  0  0  0  0  0  0
   -7.5095   -3.0697    9.2197 O   0  0  0  0  0  0  0  0  0  0  0  0
   -5.4105   -4.4920    8.8029 O   0  5  0  0  0  0  0  0  0  0  0  0
   -6.5704   -4.5770   11.0434 O   0  0  0  0  0  0  0  0  0  0  0  0
   -7.1838   -6.8990    8.9255 C   0  0  0  0  0  0  0  0  0  0  0  0
   -7.5943   -5.5206    8.9258 O   0  0  0  0  0  0  0  0  0  0  0  0
   -8.3038   -7.7757    8.3574 C   0  0  1  0  0  0  0  0  0  0  0  0
   -9.4813   -7.7337    9.1733 O   0  0  0  0  0  0  0  0  0  0  0  0
   -8.7606   -7.4000    6.9582 C   0  0  1  0  0  0  0  0  0  0  0  0
   -7.9883   -8.1367    6.0055 O   0  0  0  0  0  0  0  0  0  0  0  0
  -10.2199   -7.8245    6.9404 C   0  0  1  0  0  0  0  0  0  0  0  0
  -10.3318   -9.2278    6.6639 O   0  0  0  0  0  0  0  0  0  0  0  0
  -10.6695   -7.6462    8.3770 C   0  0  2  0  0  0  0  0  0  0  0  0
  -13.9731   -4.1701    6.6279 N   0  0  0  0  0  0  0  0  0  0  0  0
  -13.6471   -5.3792    6.1168 C   0  0  1  0  0  0  0  0  0  0  0  0
  -14.2486   -5.7992    4.9809 N   0  0  0  0  0  0  0  0  0  0  0  0
  -12.7312   -6.1684    6.7254 N   0  0  0  0  0  0  0  0  0  0  0  0
  -12.1317   -5.7418    7.8627 C   0  0  1  0  0  0  0  0  0  0  0  0
  -12.4441   -4.5111    8.4058 C   0  0  2  0  0  0  0  0  0  0  0  0
  -13.3886   -3.7201    7.7620 C   0  0  0  0  0  0  0  0  0  0  0  0
  -13.6998   -2.6022    8.2184 O   0  0  0  0  0  0  0  0  0  0  0  0
  -11.6939   -4.3625    9.5167 N   0  0  0  0  0  0  0  0  0  0  0  0
  -10.9422   -5.4790    9.6592 C   0  0  0  0  0  0  0  0  0  0  0  0
  -11.2223   -6.3058    8.6468 N   0  0  1  0  0  0  0  0  0  0  0  0
  1  2  1  6  0  0  0
  1  3  1  0  0  0  0
  1  4  2  0  0  0  0
  1  6  1  0  0  0  0
  5  6  1  0  0  0  0
  7  5  1  1  0  0  0
  7  8  1  0  0  0  0
  7  9  1  0  0  0  0
  9 10  1  6  0  0  0
  9 11  1  0  0  0  0
 11 12  1  1  0  0  0
 11 13  1  0  0  0  0
 13  8  1  1  0  0  0
 13 24  1  0  0  0  0
 14 15  1  0  0  0  0
 14 20  1  0  0  0  0
 15 16  1  6  0  0  0
 15 17  1  0  0  0  0
 18 17  1  1  0  0  0
 18 19  1  0  0  0  0
 18 24  1  0  0  0  0
 19 20  1  6  0  0  0
 19 22  1  0  0  0  0
 20 21  2  0  0  0  0
 22 23  1  0  0  0  0
 24 23  1  1  0  0  0
M  CHG  1   3  -1
M  END
>  <CHROM.1>
175.98844496,-63.48989653,175.53659977,163.52350081,-9.98412995,-5.71214619
8.15969698,0.12221425,-0.31413689,0.45820469

>  <Name>
ligand

>  <RI>
0

>  <Rbt.Current_Directory>
/home/itssahil/PROJECTS/Mol_Feturizer/New_Systems/rnas/3SLQ

>  <Rbt.Executable>
rbdock ($Id: //depot/dev/client3/rdock/2013.1/src/exe/rbdock.cxx#4 $)

>  <Rbt.Library>
libRbt.so (2013.1, Build901 2013/11/27)

>  <Rbt.Parameter_File>
/export/apps/rDock/src/rDock_2013.1_src/data/scripts/dock_solv.prm

>  <Rbt.Receptor>
prm/blind_docking_40.prm

>  <SCORE>
-17.8301

>  <SCORE.INTER>
-11.6501

>  <SCORE.INTER.CONST>
1

>  <SCORE.INTER.POLAR>
0

>  <SCORE.INTER.ROT>
4

>  <SCORE.INTER.SOLV>
16.3547

>  <SCORE.INTER.VDW>
-19.485

>  <SCORE.INTER.norm>
-0.485422

>  <SCORE.INTRA>
-6.18001

>  <SCORE.INTRA.DIHEDRAL>
-11.8991

>  <SCORE.INTRA.DIHEDRAL.0>
13.2525

>  <SCORE.INTRA.POLAR>
0

>  <SCORE.INTRA.POLAR.0>
0

>  <SCORE.INTRA.REPUL>
0

>  <SCORE.INTRA.REPUL.0>
0

>  <SCORE.INTRA.SOLV>
0.572858

>  <SCORE.INTRA.SOLV.lig_0>
-70.7221

>  <SCORE.INTRA.VDW>
-0.516904

>  <SCORE.INTRA.VDW.0>
-1.46337

>  <SCORE.INTRA.norm>
-0.257501

>  <SCORE.RESTR>
0

>  <SCORE.RESTR.CAVITY>
0

>  <SCORE.RESTR.norm>
0

>  <SCORE.SYSTEM>
0

>  <SCORE.SYSTEM.CONST>
0

>  <SCORE.SYSTEM.DIHEDRAL>
0

>  <SCORE.SYSTEM.SOLV>
0

>  <SCORE.SYSTEM.norm>
0

>  <SCORE.heavy>
24

>  <SCORE.norm>
-0.742922

>  <RMSD>
7.074

$$$$
ligand
 OpenBabel11021811483D
libRbt.so/2013.1/901 2013/11/27
 24 26  0  0  0  0  0  0  0  0999 V2000
   -6.3096  -10.4520   11.3141 P   0  0  1  0  0  0  0  0  0  0  0  0
   -5.6809   -9.7640   10.1212 O   0  0  0  0  0  0  0  0  0  0  0  0
   -7.3381  -11.5155   11.0094 O   0  5  0  0  0  0  0  0  0  0  0  0
   -5.3100  -10.8876   12.3751 O   0  0  0  0  0  0  0  0  0  0  0  0
   -6.7363   -8.1011   12.5808 C   0  0  0  0  0  0  0  0  0  0  0  0
   -7.2461   -9.3017   11.9752 O   0  0  0  0  0  0  0  0  0  0  0  0
   -7.8959   -7.2517   13.1096 C   0  0  1  0  0  0  0  0  0  0  0  0
   -8.7604   -6.8115   12.0546 O   0  0  0  0  0  0  0  0  0  0  0  0
   -8.7962   -7.9542   14.1115 C   0  0  1  0  0  0  0  0  0  0  0  0
   -8.2969   -7.7142   15.4305 O   0  0  0  0  0  0  0  0  0  0  0  0
  -10.1456   -7.2885   13.8967 C   0  0  1  0  0  0  0  0  0  0  0  0
  -10.2143   -6.0486   14.6152 O   0  0  0  0  0  0  0  0  0  0  0  0
  -10.1401   -6.9180   12.4269 C   0  0  2  0  0  0  0  0  0  0  0  0
  -12.2678   -7.7556    7.8632 N   0  0  0  0  0  0  0  0  0  0  0  0
  -11.8529   -6.5937    8.4176 C   0  0  1  0  0  0  0  0  0  0  0  0
  -11.9832   -5.4448    7.7166 N   0  0  0  0  0  0  0  0  0  0  0  0
  -11.3126   -6.5682    9.6583 N   0  0  0  0  0  0  0  0  0  0  0  0
  -11.1854   -7.7224   10.3558 C   0  0  1  0  0  0  0  0  0  0  0  0
  -11.6020   -8.9228    9.8149 C   0  0  2  0  0  0  0  0  0  0  0  0
  -12.1527   -8.9222    8.5387 C   0  0  0  0  0  0  0  0  0  0  0  0
  -12.5418   -9.9838    8.0131 O   0  0  0  0  0  0  0  0  0  0  0  0
  -11.3564   -9.8808   10.7319 N   0  0  0  0  0  0  0  0  0  0  0  0
  -10.7944   -9.2857   11.8098 C   0  0  0  0  0  0  0  0  0  0  0  0
  -10.6970   -7.9755   11.5629 N   0  0  1  0  0  0  0  0  0  0  0  0
  1  2  1  6  0  0  0
  1  3  1  0  0  0  0
  1  4  2  0  0  0  0
  1  6  1  0  0  0  0
  5  6  1  0  0  0  0
  7  5  1  6  0  0  0
  7  8  1  0  0  0  0
  7  9  1  0  0  0  0
  9 10  1  1  0  0  0
  9 11  1  0  0  0  0
 11 12  1  1  0  0  0
 11 13  1  0  0  0  0
 13  8  1  6  0  0  0
 13 24  1  0  0  0  0
 14 15  1  0  0  0  0
 14 20  1  0  0  0  0
 15 16  1  1  0  0  0
 15 17  1  0  0  0  0
 18 17  1  6  0  0  0
 18 19  1  0  0  0  0
 18 24  1  0  0  0  0
 19 20  1  1  0  0  0
 19 22  1  0  0  0  0
 20 21  2  0  0  0  0
 22 23  1  0  0  0  0
 24 23  1  6  0  0  0
M  CHG  1   3  -1
M  END
>  <CHROM.1>
-65.98367841,-63.14692705,-179.50942887,-87.33799584,-9.33725034,-8.43984259
11.28228704,-0.34506403,0.57998761,-2.12997199

>  <Name>
ligand

>  <RI>
0

>  <Rbt.Current_Directory>
/home/itssahil/PROJECTS/Mol_Feturizer/New_Systems/rnas/3SLQ

>  <Rbt.Executable>
rbdock ($Id: //depot/dev/client3/rdock/2013.1/src/exe/rbdock.cxx#4 $)

>  <Rbt.Library>
libRbt.so (2013.1, Build901 2013/11/27)

>  <Rbt.Parameter_File>
/export/apps/rDock/src/rDock_2013.1_src/data/scripts/dock_solv.prm

>  <Rbt.Receptor>
prm/pocket_docking_6.prm

>  <SCORE>
-13.7125

>  <SCORE.INTER>
-6.99073

>  <SCORE.INTER.CONST>
1

>  <SCORE.INTER.POLAR>
0

>  <SCORE.INTER.ROT>
4

>  <SCORE.INTER.SOLV>
7.68196

>  <SCORE.INTER.VDW>
-13.4878

>  <SCORE.INTER.norm>
-0.291281

>  <SCORE.INTRA>
-6.72173

>  <SCORE.INTRA.DIHEDRAL>
-11.9769

>  <SCORE.INTRA.DIHEDRAL.0>
13.2525

>  <SCORE.INTRA.POLAR>
0

>  <SCORE.INTRA.POLAR.0>
0

>  <SCORE.INTRA.REPUL>
0

>  <SCORE.INTRA.REPUL.0>
0

>  <SCORE.INTRA.SOLV>
0.014982

>  <SCORE.INTRA.SOLV.lig_0>
-70.7221

>  <SCORE.INTRA.VDW>
-0.740747

>  <SCORE.INTRA.VDW.0>
-1.46337

>  <SCORE.INTRA.norm>
-0.280072

>  <SCORE.RESTR>
0

>  <SCORE.RESTR.CAVITY>
0

>  <SCORE.RESTR.norm>
0

>  <SCORE.SYSTEM>
0

>  <SCORE.SYSTEM.CONST>
0

>  <SCORE.SYSTEM.DIHEDRAL>
0

>  <SCORE.SYSTEM.SOLV>
0

>  <SCORE.SYSTEM.norm>
0

>  <SCORE.heavy>
24

>  <SCORE.norm>
-0.571353

>  <RMSD>
7.086

$$$$
ligand
 OpenBabel11021811483D
libRbt.so/2013.1/901 2013/11/27
 24 26  0  0  0  0  0  0  0  0999 V2000
   -6.6558   -6.5131    9.5974 P   0  0  1  0  0  0  0  0  0  0  0  0
   -6.0327   -7.3494   10.6946 O   0  0  0  0  0  0  0  0  0  0  0  0
   -6.1704   -5.0871    9.4838 O   0  5  0  0  0  0  0  0  0  0  0  0
   -6.7330   -7.2169    8.2508 O   0  0  0  0  0  0  0  0  0  0  0  0
   -8.5222   -5.8179   11.4269 C   0  0  0  0  0  0  0  0  0  0  0  0
   -8.1792   -6.2775   10.1080 O   0  0  0  0  0  0  0  0  0  0  0  0
   -8.9694   -7.0010   12.2907 C   0  0  1  0  0  0  0  0  0  0  0  0
   -9.9189   -7.8310   11.6098 O   0  0  0  0  0  0  0  0  0  0  0  0
   -7.8504   -7.9309   12.7275 C   0  0  1  0  0  0  0  0  0  0  0  0
   -7.3373   -7.4796   13.9844 O   0  0  0  0  0  0  0  0  0  0  0  0
   -8.5449   -9.2764   12.8598 C   0  0  1  0  0  0  0  0  0  0  0  0
   -9.2052   -9.3785   14.1294 O   0  0  0  0  0  0  0  0  0  0  0  0
   -9.6471   -9.2221   11.8207 C   0  0  2  0  0  0  0  0  0  0  0  0
  -10.5967   -8.8986    6.8157 N   0  0  0  0  0  0  0  0  0  0  0  0
  -11.2047   -8.2707    7.8479 C   0  0  1  0  0  0  0  0  0  0  0  0
  -12.2173   -7.4115    7.5934 N   0  0  0  0  0  0  0  0  0  0  0  0
  -10.8139   -8.4917    9.1249 N   0  0  0  0  0  0  0  0  0  0  0  0
   -9.7993   -9.3541    9.3735 C   0  0  1  0  0  0  0  0  0  0  0  0
   -9.1617  -10.0101    8.3389 C   0  0  2  0  0  0  0  0  0  0  0  0
   -9.5815   -9.7651    7.0367 C   0  0  0  0  0  0  0  0  0  0  0  0
   -9.0333  -10.3364    6.0734 O   0  0  0  0  0  0  0  0  0  0  0  0
   -8.2123  -10.7948    8.8883 N   0  0  0  0  0  0  0  0  0  0  0  0
   -8.2586  -10.6206   10.2297 C   0  0  0  0  0  0  0  0  0  0  0  0
   -9.2270   -9.7415   10.5058 N   0  0  1  0  0  0  0  0  0  0  0  0
  1  2  1  1  0  0  0
  1  3  1  0  0  0  0
  1  4  2  0  0  0  0
  1  6  1  0  0  0  0
  5  6  1  0  0  0  0
  7  5  1  6  0  0  0
  7  8  1  0  0  0  0
  7  9  1  0  0  0  0
  9 10  1  1  0  0  0
  9 11  1  0  0  0  0
 11 12  1  1  0  0  0
 11 13  1  0  0  0  0
 13  8  1  6  0  0  0
 13 24  1  0  0  0  0
 14 15  1  0  0  0  0
 14 20  1  0  0  0  0
 15 16  1  1  0  0  0
 15 17  1  0  0  0  0
 18 17  1  6  0  0  0
 18 19  1  0  0  0  0
 18 24  1  0  0  0  0
 19 20  1  1  0  0  0
 19 22  1  0  0  0  0
 20 21  2  0  0  0  0
 22 23  1  0  0  0  0
 24 23  1  6  0  0  0
M  CHG  1   3  -1
M  END
>  <CHROM.1>
49.51121368,-47.49346080,-101.03960139,-39.04901842,-8.65837689,-8.18123217
10.05052690,-0.98348744,-0.79620599,-1.47840757

>  <Name>
ligand

>  <RI>
0

>  <Rbt.Current_Directory>
/home/itssahil/PROJECTS/Mol_Feturizer/New_Systems/rnas/3SLQ

>  <Rbt.Executable>
rbdock ($Id: //depot/dev/client3/rdock/2013.1/src/exe/rbdock.cxx#4 $)

>  <Rbt.Library>
libRbt.so (2013.1, Build901 2013/11/27)

>  <Rbt.Parameter_File>
/export/apps/rDock/src/rDock_2013.1_src/data/scripts/dock_solv.prm

>  <Rbt.Receptor>
prm/pocket_docking_7.prm

>  <SCORE>
-11.1306

>  <SCORE.INTER>
-6.9734

>  <SCORE.INTER.CONST>
1

>  <SCORE.INTER.POLAR>
0

>  <SCORE.INTER.ROT>
4

>  <SCORE.INTER.SOLV>
14.3723

>  <SCORE.INTER.VDW>
-15.7064

>  <SCORE.INTER.norm>
-0.290558

>  <SCORE.INTRA>
-4.15718

>  <SCORE.INTRA.DIHEDRAL>
-5.7477

>  <SCORE.INTRA.DIHEDRAL.0>
13.2525

>  <SCORE.INTRA.POLAR>
0

>  <SCORE.INTRA.POLAR.0>
0

>  <SCORE.INTRA.REPUL>
0

>  <SCORE.INTRA.REPUL.0>
0

>  <SCORE.INTRA.SOLV>
1.17667

>  <SCORE.INTRA.SOLV.lig_0>
-70.7221

>  <SCORE.INTRA.VDW>
-1.87167

>  <SCORE.INTRA.VDW.0>
-1.46337

>  <SCORE.INTRA.norm>
-0.173216

>  <SCORE.RESTR>
0

>  <SCORE.RESTR.CAVITY>
0

>  <SCORE.RESTR.norm>
0

>  <SCORE.SYSTEM>
0

>  <SCORE.SYSTEM.CONST>
0

>  <SCORE.SYSTEM.DIHEDRAL>
0

>  <SCORE.SYSTEM.SOLV>
0

>  <SCORE.SYSTEM.norm>
0

>  <SCORE.heavy>
24

>  <SCORE.norm>
-0.463774

>  <RMSD>
7.101

$$$$
ligand
 OpenBabel11021811483D
libRbt.so/2013.1/901 2013/11/27
 24 26  0  0  0  0  0  0  0  0999 V2000
   -3.3690   -1.3327    9.0842 P   0  0  1  0  0  0  0  0  0  0  0  0
   -4.2398   -0.4970    9.9979 O   0  0  0  0  0  0  0  0  0  0  0  0
   -3.1525   -0.7959    7.6889 O   0  5  0  0  0  0  0  0  0  0  0  0
   -2.0824   -1.8217    9.7323 O   0  0  0  0  0  0  0  0  0  0  0  0
   -5.5390   -2.9136    9.4093 C   0  0  0  0  0  0  0  0  0  0  0  0
   -4.2798   -2.6401    8.7707 O   0  0  0  0  0  0  0  0  0  0  0  0
   -6.0288   -4.3110    9.0180 C   0  0  1  0  0  0  0  0  0  0  0  0
   -5.2694   -5.3428    9.6605 O   0  0  0  0  0  0  0  0  0  0  0  0
   -7.4810   -4.5969    9.3602 C   0  0  1  0  0  0  0  0  0  0  0  0
   -8.3004   -4.2285    8.2468 O   0  0  0  0  0  0  0  0  0  0  0  0
   -7.4972   -6.0991    9.5912 C   0  0  1  0  0  0  0  0  0  0  0  0
   -7.5922   -6.7986    8.3422 O   0  0  0  0  0  0  0  0  0  0  0  0
   -6.1137   -6.4001   10.1325 C   0  0  2  0  0  0  0  0  0  0  0  0
   -4.5612   -8.9613   14.2660 N   0  0  0  0  0  0  0  0  0  0  0  0
   -4.5062   -9.3189   12.9627 C   0  0  1  0  0  0  0  0  0  0  0  0
   -3.9684  -10.5137   12.6286 N   0  0  0  0  0  0  0  0  0  0  0  0
   -4.9806   -8.4996   11.9954 N   0  0  0  0  0  0  0  0  0  0  0  0
   -5.5187   -7.3043   12.3365 C   0  0  1  0  0  0  0  0  0  0  0  0
   -5.5892   -6.9144   13.6595 C   0  0  2  0  0  0  0  0  0  0  0  0
   -5.0942   -7.7734   14.6336 C   0  0  0  0  0  0  0  0  0  0  0  0
   -5.1384   -7.4605   15.8398 O   0  0  0  0  0  0  0  0  0  0  0  0
   -6.1711   -5.6980   13.6870 N   0  0  0  0  0  0  0  0  0  0  0  0
   -6.4459   -5.3432   12.4101 C   0  0  0  0  0  0  0  0  0  0  0  0
   -6.0416   -6.3298   11.6038 N   0  0  1  0  0  0  0  0  0  0  0  0
  1  2  1  1  0  0  0
  1  3  1  0  0  0  0
  1  4  2  0  0  0  0
  1  6  1  0  0  0  0
  5  6  1  0  0  0  0
  7  5  1  1  0  0  0
  7  8  1  0  0  0  0
  7  9  1  0  0  0  0
  9 10  1  6  0  0  0
  9 11  1  0  0  0  0
 11 12  1  6  0  0  0
 11 13  1  0  0  0  0
 13  8  1  6  0  0  0
 13 24  1  0  0  0  0
 14 15  1  0  0  0  0
 14 20  1  0  0  0  0
 15 16  1  1  0  0  0
 15 17  1  0  0  0  0
 18 17  1  6  0  0  0
 18 19  1  0  0  0  0
 18 24  1  0  0  0  0
 19 20  1  1  0  0  0
 19 22  1  0  0  0  0
 20 21  2  0  0  0  0
 22 23  1  0  0  0  0
 24 23  1  6  0  0  0
M  CHG  1   3  -1
M  END
>  <CHROM.1>
-6.88108971,73.02422721,-172.44712959,-115.45044181,-5.24390945,-5.16594820
10.85012738,-1.40667543,0.70472565,2.41234496

>  <Name>
ligand

>  <RI>
0

>  <Rbt.Current_Directory>
/home/itssahil/PROJECTS/Mol_Feturizer/New_Systems/rnas/3SLQ

>  <Rbt.Executable>
rbdock ($Id: //depot/dev/client3/rdock/2013.1/src/exe/rbdock.cxx#4 $)

>  <Rbt.Library>
libRbt.so (2013.1, Build901 2013/11/27)

>  <Rbt.Parameter_File>
/export/apps/rDock/src/rDock_2013.1_src/data/scripts/dock_solv.prm

>  <Rbt.Receptor>
prm/pocket_docking_4.prm

>  <SCORE>
-16.1399

>  <SCORE.INTER>
-11.5711

>  <SCORE.INTER.CONST>
1

>  <SCORE.INTER.POLAR>
0

>  <SCORE.INTER.ROT>
4

>  <SCORE.INTER.SOLV>
23.8513

>  <SCORE.INTER.VDW>
-21.9312

>  <SCORE.INTER.norm>
-0.482129

>  <SCORE.INTRA>
-4.56877

>  <SCORE.INTRA.DIHEDRAL>
-8.86644

>  <SCORE.INTRA.DIHEDRAL.0>
13.2525

>  <SCORE.INTRA.POLAR>
0

>  <SCORE.INTRA.POLAR.0>
0

>  <SCORE.INTRA.REPUL>
0

>  <SCORE.INTRA.REPUL.0>
0

>  <SCORE.INTRA.SOLV>
-0.40278

>  <SCORE.INTRA.SOLV.lig_0>
-70.7221

>  <SCORE.INTRA.VDW>
0.0658446

>  <SCORE.INTRA.VDW.0>
-1.46337

>  <SCORE.INTRA.norm>
-0.190365

>  <SCORE.RESTR>
0

>  <SCORE.RESTR.CAVITY>
0

>  <SCORE.RESTR.norm>
0

>  <SCORE.SYSTEM>
0

>  <SCORE.SYSTEM.CONST>
0

>  <SCORE.SYSTEM.DIHEDRAL>
0

>  <SCORE.SYSTEM.SOLV>
0

>  <SCORE.SYSTEM.norm>
0

>  <SCORE.heavy>
24

>  <SCORE.norm>
-0.672495

>  <RMSD>
7.102

$$$$
ligand
 OpenBabel11021811483D
libRbt.so/2013.1/901 2013/11/27
 24 26  0  0  0  0  0  0  0  0999 V2000
  -10.9694   -5.5684    7.5317 P   0  0  1  0  0  0  0  0  0  0  0  0
   -9.9319   -6.0404    6.5356 O   0  0  0  0  0  0  0  0  0  0  0  0
  -11.5215   -4.1789    7.3170 O   0  5  0  0  0  0  0  0  0  0  0  0
  -12.0545   -6.5930    7.8275 O   0  0  0  0  0  0  0  0  0  0  0  0
   -8.7603   -4.8921    8.9374 C   0  0  0  0  0  0  0  0  0  0  0  0
  -10.1222   -5.3526    8.9002 O   0  0  0  0  0  0  0  0  0  0  0  0
   -8.2787   -4.8069   10.3888 C   0  0  1  0  0  0  0  0  0  0  0  0
   -8.4324   -6.0547   11.0769 O   0  0  0  0  0  0  0  0  0  0  0  0
   -6.8181   -4.4240   10.5548 C   0  0  1  0  0  0  0  0  0  0  0  0
   -6.7217   -3.0006   10.6614 O   0  0  0  0  0  0  0  0  0  0  0  0
   -6.4221   -5.1081   11.8531 C   0  0  1  0  0  0  0  0  0  0  0  0
   -6.8194   -4.3149   12.9806 O   0  0  0  0  0  0  0  0  0  0  0  0
   -7.2907   -6.3498   11.8911 C   0  0  2  0  0  0  0  0  0  0  0  0
   -3.7056   -9.9148   12.5946 N   0  0  0  0  0  0  0  0  0  0  0  0
   -4.0703   -8.8921   13.4011 C   0  0  1  0  0  0  0  0  0  0  0  0
   -3.4415   -8.7308   14.5873 N   0  0  0  0  0  0  0  0  0  0  0  0
   -5.0511   -8.0334   13.0364 N   0  0  0  0  0  0  0  0  0  0  0  0
   -5.6768   -8.1999   11.8467 C   0  0  1  0  0  0  0  0  0  0  0  0
   -5.3237   -9.2345   11.0027 C   0  0  2  0  0  0  0  0  0  0  0  0
   -4.3141  -10.1029   11.4009 C   0  0  0  0  0  0  0  0  0  0  0  0
   -3.9642  -11.0500   10.6692 O   0  0  0  0  0  0  0  0  0  0  0  0
   -6.1052   -9.1412    9.9076 N   0  0  0  0  0  0  0  0  0  0  0  0
   -6.9262   -8.0783   10.0760 C   0  0  0  0  0  0  0  0  0  0  0  0
   -6.6528   -7.5200   11.2594 N   0  0  1  0  0  0  0  0  0  0  0  0
  1  2  1  6  0  0  0
  1  3  1  0  0  0  0
  1  4  2  0  0  0  0
  1  6  1  0  0  0  0
  5  6  1  0  0  0  0
  7  5  1  6  0  0  0
  7  8  1  0  0  0  0
  7  9  1  0  0  0  0
  9 10  1  1  0  0  0
  9 11  1  0  0  0  0
 11 12  1  1  0  0  0
 11 13  1  0  0  0  0
 13  8  1  6  0  0  0
 13 24  1  0  0  0  0
 14 15  1  0  0  0  0
 14 20  1  0  0  0  0
 15 16  1  6  0  0  0
 15 17  1  0  0  0  0
 18 17  1  1  0  0  0
 18 19  1  0  0  0  0
 18 24  1  0  0  0  0
 19 20  1  6  0  0  0
 19 22  1  0  0  0  0
 20 21  2  0  0  0  0
 22 23  1  0  0  0  0
 24 23  1  1  0  0  0
M  CHG  1   3  -1
M  END
>  <CHROM.1>
34.32328575,55.46604361,-179.91989668,-169.76990932,-7.36663556,-6.75022241
10.44331955,2.95582742,-0.74799694,0.44675400

>  <Name>
ligand

>  <RI>
0

>  <Rbt.Current_Directory>
/home/itssahil/PROJECTS/Mol_Feturizer/New_Systems/rnas/3SLQ

>  <Rbt.Executable>
rbdock ($Id: //depot/dev/client3/rdock/2013.1/src/exe/rbdock.cxx#4 $)

>  <Rbt.Library>
libRbt.so (2013.1, Build901 2013/11/27)

>  <Rbt.Parameter_File>
/export/apps/rDock/src/rDock_2013.1_src/data/scripts/dock_solv.prm

>  <Rbt.Receptor>
prm/pocket_docking_7.prm

>  <SCORE>
-13.5631

>  <SCORE.INTER>
-7.87124

>  <SCORE.INTER.CONST>
1

>  <SCORE.INTER.POLAR>
0

>  <SCORE.INTER.ROT>
4

>  <SCORE.INTER.SOLV>
17.0052

>  <SCORE.INTER.VDW>
-17.1826

>  <SCORE.INTER.norm>
-0.327968

>  <SCORE.INTRA>
-5.69185

>  <SCORE.INTRA.DIHEDRAL>
-11.0405

>  <SCORE.INTRA.DIHEDRAL.0>
13.2525

>  <SCORE.INTRA.POLAR>
0

>  <SCORE.INTRA.POLAR.0>
0

>  <SCORE.INTRA.REPUL>
0

>  <SCORE.INTRA.REPUL.0>
0

>  <SCORE.INTRA.SOLV>
-0.19707

>  <SCORE.INTRA.SOLV.lig_0>
-70.7221

>  <SCORE.INTRA.VDW>
-0.0730578

>  <SCORE.INTRA.VDW.0>
-1.46337

>  <SCORE.INTRA.norm>
-0.23716

>  <SCORE.RESTR>
0

>  <SCORE.RESTR.CAVITY>
0

>  <SCORE.RESTR.norm>
0

>  <SCORE.SYSTEM>
0

>  <SCORE.SYSTEM.CONST>
0

>  <SCORE.SYSTEM.DIHEDRAL>
0

>  <SCORE.SYSTEM.SOLV>
0

>  <SCORE.SYSTEM.norm>
0

>  <SCORE.heavy>
24

>  <SCORE.norm>
-0.565128

>  <RMSD>
7.109

$$$$
ligand
 OpenBabel11021811483D
libRbt.so/2013.1/901 2013/11/27
 24 26  0  0  0  0  0  0  0  0999 V2000
   -6.6756   -4.4881    9.5794 P   0  0  1  0  0  0  0  0  0  0  0  0
   -7.8239   -4.0452    8.6981 O   0  0  0  0  0  0  0  0  0  0  0  0
   -5.3098   -4.5201    8.9351 O   0  5  0  0  0  0  0  0  0  0  0  0
   -6.6624   -3.8349   10.9534 O   0  0  0  0  0  0  0  0  0  0  0  0
   -7.2411   -6.9944    8.7355 C   0  0  0  0  0  0  0  0  0  0  0  0
   -6.9465   -6.0739    9.8005 O   0  0  0  0  0  0  0  0  0  0  0  0
   -7.3432   -8.4181    9.2909 C   0  0  1  0  0  0  0  0  0  0  0  0
   -6.1259   -8.8336    9.9231 O   0  0  0  0  0  0  0  0  0  0  0  0
   -8.4343   -8.6214   10.3282 C   0  0  1  0  0  0  0  0  0  0  0  0
   -9.6365   -9.0210    9.6635 O   0  0  0  0  0  0  0  0  0  0  0  0
   -7.8835   -9.7366   11.2018 C   0  0  1  0  0  0  0  0  0  0  0  0
   -8.1339  -11.0154   10.6016 O   0  0  0  0  0  0  0  0  0  0  0  0
   -6.3819   -9.5370   11.1450 C   0  0  2  0  0  0  0  0  0  0  0  0
   -5.7693   -9.2048   16.2017 N   0  0  0  0  0  0  0  0  0  0  0  0
   -6.3228  -10.1961   15.4665 C   0  0  1  0  0  0  0  0  0  0  0  0
   -6.8002  -11.2949   16.0937 N   0  0  0  0  0  0  0  0  0  0  0  0
   -6.4042  -10.1011   14.1188 N   0  0  0  0  0  0  0  0  0  0  0  0
   -5.9248   -8.9976   13.4964 C   0  0  1  0  0  0  0  0  0  0  0  0
   -5.3560   -7.9696   14.2223 C   0  0  2  0  0  0  0  0  0  0  0  0
   -5.2837   -8.0920   15.6050 C   0  0  0  0  0  0  0  0  0  0  0  0
   -4.7782   -7.1872   16.2982 O   0  0  0  0  0  0  0  0  0  0  0  0
   -4.9817   -7.0186   13.3422 N   0  0  0  0  0  0  0  0  0  0  0  0
   -5.3053   -7.4538   12.1021 C   0  0  0  0  0  0  0  0  0  0  0  0
   -5.8755   -8.6576   12.2151 N   0  0  1  0  0  0  0  0  0  0  0  0
  1  2  1  6  0  0  0
  1  3  1  0  0  0  0
  1  4  2  0  0  0  0
  1  6  1  0  0  0  0
  5  6  1  0  0  0  0
  7  5  1  1  0  0  0
  7  8  1  0  0  0  0
  7  9  1  0  0  0  0
  9 10  1  6  0  0  0
  9 11  1  0  0  0  0
 11 12  1  6  0  0  0
 11 13  1  0  0  0  0
 13  8  1  6  0  0  0
 13 24  1  0  0  0  0
 14 15  1  0  0  0  0
 14 20  1  0  0  0  0
 15 16  1  1  0  0  0
 15 17  1  0  0  0  0
 18 17  1  6  0  0  0
 18 19  1  0  0  0  0
 18 24  1  0  0  0  0
 19 20  1  1  0  0  0
 19 22  1  0  0  0  0
 20 21  2  0  0  0  0
 22 23  1  0  0  0  0
 24 23  1  6  0  0  0
M  CHG  1   3  -1
M  END
>  <CHROM.1>
48.63393945,-59.57830316,176.11009934,-178.85350544,-6.59578433,-7.72471607
11.77802301,-1.87571104,1.05320602,2.44362267

>  <Name>
ligand

>  <RI>
0

>  <Rbt.Current_Directory>
/home/itssahil/PROJECTS/Mol_Feturizer/New_Systems/rnas/3SLQ

>  <Rbt.Executable>
rbdock ($Id: //depot/dev/client3/rdock/2013.1/src/exe/rbdock.cxx#4 $)

>  <Rbt.Library>
libRbt.so (2013.1, Build901 2013/11/27)

>  <Rbt.Parameter_File>
/export/apps/rDock/src/rDock_2013.1_src/data/scripts/dock_solv.prm

>  <Rbt.Receptor>
prm/pocket_docking_4.prm

>  <SCORE>
-10.8182

>  <SCORE.INTER>
-4.17798

>  <SCORE.INTER.CONST>
1

>  <SCORE.INTER.POLAR>
0

>  <SCORE.INTER.ROT>
4

>  <SCORE.INTER.SOLV>
14.5127

>  <SCORE.INTER.VDW>
-13.8895

>  <SCORE.INTER.norm>
-0.174082

>  <SCORE.INTRA>
-6.64018

>  <SCORE.INTRA.DIHEDRAL>
-11.7715

>  <SCORE.INTRA.DIHEDRAL.0>
13.2525

>  <SCORE.INTRA.POLAR>
0

>  <SCORE.INTRA.POLAR.0>
0

>  <SCORE.INTRA.REPUL>
0

>  <SCORE.INTRA.REPUL.0>
0

>  <SCORE.INTRA.SOLV>
0.0266384

>  <SCORE.INTRA.SOLV.lig_0>
-70.7221

>  <SCORE.INTRA.VDW>
-0.767757

>  <SCORE.INTRA.VDW.0>
-1.46337

>  <SCORE.INTRA.norm>
-0.276674

>  <SCORE.RESTR>
0

>  <SCORE.RESTR.CAVITY>
0

>  <SCORE.RESTR.norm>
0

>  <SCORE.SYSTEM>
0

>  <SCORE.SYSTEM.CONST>
0

>  <SCORE.SYSTEM.DIHEDRAL>
0

>  <SCORE.SYSTEM.SOLV>
0

>  <SCORE.SYSTEM.norm>
0

>  <SCORE.heavy>
24

>  <SCORE.norm>
-0.450757

>  <RMSD>
7.117

$$$$
ligand
 OpenBabel11021811483D
libRbt.so/2013.1/901 2013/11/27
 24 26  0  0  0  0  0  0  0  0999 V2000
   -7.4676  -11.3716   11.2771 P   0  0  1  0  0  0  0  0  0  0  0  0
   -8.7645  -11.4216   10.4980 O   0  0  0  0  0  0  0  0  0  0  0  0
   -6.5559  -12.5681   11.1387 O   0  5  0  0  0  0  0  0  0  0  0  0
   -6.7245  -10.0494   11.1580 O   0  0  0  0  0  0  0  0  0  0  0  0
   -7.2167  -10.9772   13.9408 C   0  0  0  0  0  0  0  0  0  0  0  0
   -7.9389  -11.5239   12.8237 O   0  0  0  0  0  0  0  0  0  0  0  0
   -7.7717   -9.5938   14.2929 C   0  0  1  0  0  0  0  0  0  0  0  0
   -7.9740   -8.7864   13.1262 O   0  0  0  0  0  0  0  0  0  0  0  0
   -9.1061   -9.6076   15.0188 C   0  0  1  0  0  0  0  0  0  0  0  0
   -8.8660   -9.6372   16.4288 O   0  0  0  0  0  0  0  0  0  0  0  0
   -9.7512   -8.2996   14.5907 C   0  0  1  0  0  0  0  0  0  0  0  0
   -9.2613   -7.2128   15.3888 O   0  0  0  0  0  0  0  0  0  0  0  0
   -9.2112   -8.0664   13.1936 C   0  0  2  0  0  0  0  0  0  0  0  0
  -11.7336   -6.9505    8.8984 N   0  0  0  0  0  0  0  0  0  0  0  0
  -11.0120   -6.1405    9.7062 C   0  0  1  0  0  0  0  0  0  0  0  0
  -10.8912   -4.8313    9.3901 N   0  0  0  0  0  0  0  0  0  0  0  0
  -10.4134   -6.6224   10.8205 N   0  0  0  0  0  0  0  0  0  0  0  0
  -10.5386   -7.9346   11.1321 C   0  0  1  0  0  0  0  0  0  0  0  0
  -11.2709   -8.7841   10.3263 C   0  0  2  0  0  0  0  0  0  0  0  0
  -11.8749   -8.2647    9.1872 C   0  0  0  0  0  0  0  0  0  0  0  0
  -12.5450   -8.9967    8.4324 O   0  0  0  0  0  0  0  0  0  0  0  0
  -11.2204  -10.0095   10.8875 N   0  0  0  0  0  0  0  0  0  0  0  0
  -10.4682   -9.9188   12.0090 C   0  0  0  0  0  0  0  0  0  0  0  0
  -10.0616   -8.6522   12.1407 N   0  0  1  0  0  0  0  0  0  0  0  0
  1  2  1  6  0  0  0
  1  3  1  0  0  0  0
  1  4  2  0  0  0  0
  1  6  1  0  0  0  0
  5  6  1  0  0  0  0
  7  5  1  6  0  0  0
  7  8  1  0  0  0  0
  7  9  1  0  0  0  0
  9 10  1  1  0  0  0
  9 11  1  0  0  0  0
 11 12  1  1  0  0  0
 11 13  1  0  0  0  0
 13  8  1  1  0  0  0
 13 24  1  0  0  0  0
 14 15  1  0  0  0  0
 14 20  1  0  0  0  0
 15 16  1  1  0  0  0
 15 17  1  0  0  0  0
 18 17  1  6  0  0  0
 18 19  1  0  0  0  0
 18 24  1  0  0  0  0
 19 20  1  1  0  0  0
 19 22  1  0  0  0  0
 20 21  2  0  0  0  0
 22 23  1  0  0  0  0
 24 23  1  6  0  0  0
M  CHG  1   3  -1
M  END
>  <CHROM.1>
-151.70326304,-45.10926786,93.64106369,-119.79821781,-9.34958116,-9.19156027
11.91351010,-0.35273306,0.90430515,-2.01867557

>  <Name>
ligand

>  <RI>
0

>  <Rbt.Current_Directory>
/home/itssahil/PROJECTS/Mol_Feturizer/New_Systems/rnas/3SLQ

>  <Rbt.Executable>
rbdock ($Id: //depot/dev/client3/rdock/2013.1/src/exe/rbdock.cxx#4 $)

>  <Rbt.Library>
libRbt.so (2013.1, Build901 2013/11/27)

>  <Rbt.Parameter_File>
/export/apps/rDock/src/rDock_2013.1_src/data/scripts/dock_solv.prm

>  <Rbt.Receptor>
prm/pocket_docking_5.prm

>  <SCORE>
-9.77521

>  <SCORE.INTER>
-6.64298

>  <SCORE.INTER.CONST>
1

>  <SCORE.INTER.POLAR>
0

>  <SCORE.INTER.ROT>
4

>  <SCORE.INTER.SOLV>
12.1957

>  <SCORE.INTER.VDW>
-14.7606

>  <SCORE.INTER.norm>
-0.276791

>  <SCORE.INTRA>
-3.13805

>  <SCORE.INTRA.DIHEDRAL>
-5.91169

>  <SCORE.INTRA.DIHEDRAL.0>
13.2525

>  <SCORE.INTRA.POLAR>
0

>  <SCORE.INTRA.POLAR.0>
0

>  <SCORE.INTRA.REPUL>
0

>  <SCORE.INTRA.REPUL.0>
0

>  <SCORE.INTRA.SOLV>
3.74397

>  <SCORE.INTRA.SOLV.lig_0>
-70.7221

>  <SCORE.INTRA.VDW>
-2.05419

>  <SCORE.INTRA.VDW.0>
-1.46337

>  <SCORE.INTRA.norm>
-0.130752

>  <SCORE.RESTR>
0.00582619

>  <SCORE.RESTR.CAVITY>
0.00582619

>  <SCORE.RESTR.norm>
0.000242758

>  <SCORE.SYSTEM>
0

>  <SCORE.SYSTEM.CONST>
0

>  <SCORE.SYSTEM.DIHEDRAL>
0

>  <SCORE.SYSTEM.SOLV>
0

>  <SCORE.SYSTEM.norm>
0

>  <SCORE.heavy>
24

>  <SCORE.norm>
-0.4073

>  <RMSD>
7.168

$$$$
ligand
 OpenBabel11021811483D
libRbt.so/2013.1/901 2013/11/27
 24 26  0  0  0  0  0  0  0  0999 V2000
   -6.0384  -11.0149   11.1414 P   0  0  1  0  0  0  0  0  0  0  0  0
   -7.2582  -11.8547   10.8278 O   0  0  0  0  0  0  0  0  0  0  0  0
   -5.2733  -11.3844   12.3904 O   0  5  0  0  0  0  0  0  0  0  0  0
   -5.1299  -10.7724    9.9454 O   0  0  0  0  0  0  0  0  0  0  0  0
   -5.8719   -8.3916   11.7768 C   0  0  0  0  0  0  0  0  0  0  0  0
   -6.6587   -9.5786   11.5766 O   0  0  0  0  0  0  0  0  0  0  0  0
   -6.7681   -7.2486   12.2627 C   0  0  1  0  0  0  0  0  0  0  0  0
   -7.8583   -7.0056   11.3647 O   0  0  0  0  0  0  0  0  0  0  0  0
   -7.4009   -7.4695   13.6260 C   0  0  1  0  0  0  0  0  0  0  0  0
   -6.5342   -6.9352   14.6310 O   0  0  0  0  0  0  0  0  0  0  0  0
   -8.7017   -6.6881   13.5391 C   0  0  1  0  0  0  0  0  0  0  0  0
   -8.4713   -5.2974   13.8059 O   0  0  0  0  0  0  0  0  0  0  0  0
   -9.0816   -6.7734   12.0741 C   0  0  2  0  0  0  0  0  0  0  0  0
  -12.4674   -8.5626    8.6990 N   0  0  0  0  0  0  0  0  0  0  0  0
  -11.8269   -7.3716    8.7245 C   0  0  1  0  0  0  0  0  0  0  0  0
  -12.0629   -6.4743    7.7409 N   0  0  0  0  0  0  0  0  0  0  0  0
  -10.9580   -7.0695    9.7175 N   0  0  0  0  0  0  0  0  0  0  0  0
  -10.7262   -7.9723   10.7004 C   0  0  1  0  0  0  0  0  0  0  0  0
  -11.3677   -9.1953   10.7002 C   0  0  2  0  0  0  0  0  0  0  0  0
  -12.2544   -9.4815    9.6688 C   0  0  0  0  0  0  0  0  0  0  0  0
  -12.8547  -10.5737    9.6306 O   0  0  0  0  0  0  0  0  0  0  0  0
  -10.9460   -9.8677   11.7906 N   0  0  0  0  0  0  0  0  0  0  0  0
  -10.0595   -9.0804   12.4435 C   0  0  0  0  0  0  0  0  0  0  0  0
   -9.9376   -7.9343   11.7663 N   0  0  1  0  0  0  0  0  0  0  0  0
  1  2  1  6  0  0  0
  1  3  1  0  0  0  0
  1  4  2  0  0  0  0
  1  6  1  0  0  0  0
  5  6  1  0  0  0  0
  7  5  1  6  0  0  0
  7  8  1  0  0  0  0
  7  9  1  0  0  0  0
  9 10  1  1  0  0  0
  9 11  1  0  0  0  0
 11 12  1  6  0  0  0
 11 13  1  0  0  0  0
 13  8  1  6  0  0  0
 13 24  1  0  0  0  0
 14 15  1  0  0  0  0
 14 20  1  0  0  0  0
 15 16  1  1  0  0  0
 15 17  1  0  0  0  0
 18 17  1  6  0  0  0
 18 19  1  0  0  0  0
 18 24  1  0  0  0  0
 19 20  1  1  0  0  0
 19 22  1  0  0  0  0
 20 21  2  0  0  0  0
 22 23  1  0  0  0  0
 24 23  1  6  0  0  0
M  CHG  1   3  -1
M  END
>  <CHROM.1>
-170.44582934,-55.81703539,-176.54351605,-87.42820586,-8.75936812,-8.66317116
11.29418486,-0.04770510,0.45572312,-2.58610112

>  <Name>
ligand

>  <RI>
0

>  <Rbt.Current_Directory>
/home/itssahil/PROJECTS/Mol_Feturizer/New_Systems/rnas/3SLQ

>  <Rbt.Executable>
rbdock ($Id: //depot/dev/client3/rdock/2013.1/src/exe/rbdock.cxx#4 $)

>  <Rbt.Library>
libRbt.so (2013.1, Build901 2013/11/27)

>  <Rbt.Parameter_File>
/export/apps/rDock/src/rDock_2013.1_src/data/scripts/dock_solv.prm

>  <Rbt.Receptor>
prm/pocket_docking_6.prm

>  <SCORE>
-14.2569

>  <SCORE.INTER>
-7.88657

>  <SCORE.INTER.CONST>
1

>  <SCORE.INTER.POLAR>
0

>  <SCORE.INTER.ROT>
4

>  <SCORE.INTER.SOLV>
10.6861

>  <SCORE.INTER.VDW>
-15.0864

>  <SCORE.INTER.norm>
-0.328607

>  <SCORE.INTRA>
-6.37033

>  <SCORE.INTRA.DIHEDRAL>
-11.8011

>  <SCORE.INTRA.DIHEDRAL.0>
13.2525

>  <SCORE.INTRA.POLAR>
0

>  <SCORE.INTRA.POLAR.0>
0

>  <SCORE.INTRA.REPUL>
0

>  <SCORE.INTRA.REPUL.0>
0

>  <SCORE.INTRA.SOLV>
0.595179

>  <SCORE.INTRA.SOLV.lig_0>
-70.7221

>  <SCORE.INTRA.VDW>
-0.767349

>  <SCORE.INTRA.VDW.0>
-1.46337

>  <SCORE.INTRA.norm>
-0.26543

>  <SCORE.RESTR>
0

>  <SCORE.RESTR.CAVITY>
0

>  <SCORE.RESTR.norm>
0

>  <SCORE.SYSTEM>
0

>  <SCORE.SYSTEM.CONST>
0

>  <SCORE.SYSTEM.DIHEDRAL>
0

>  <SCORE.SYSTEM.SOLV>
0

>  <SCORE.SYSTEM.norm>
0

>  <SCORE.heavy>
24

>  <SCORE.norm>
-0.594037

>  <RMSD>
7.181

$$$$
ligand
 OpenBabel11021811483D
libRbt.so/2013.1/901 2013/11/27
 24 26  0  0  0  0  0  0  0  0999 V2000
  -10.9952   -7.4682   15.1753 P   0  0  1  0  0  0  0  0  0  0  0  0
  -12.3117   -7.8139   14.5130 O   0  0  0  0  0  0  0  0  0  0  0  0
  -11.0304   -6.3560   16.1969 O   0  5  0  0  0  0  0  0  0  0  0  0
  -10.2049   -8.6782   15.6506 O   0  0  0  0  0  0  0  0  0  0  0  0
  -10.2831   -7.0871   12.5944 C   0  0  0  0  0  0  0  0  0  0  0  0
  -10.1374   -6.7660   13.9886 O   0  0  0  0  0  0  0  0  0  0  0  0
  -10.0412   -8.5837   12.3766 C   0  0  1  0  0  0  0  0  0  0  0  0
  -11.2660   -9.2985   12.1699 O   0  0  0  0  0  0  0  0  0  0  0  0
   -9.1630   -8.9209   11.1837 C   0  0  1  0  0  0  0  0  0  0  0  0
   -7.7998   -8.9784   11.6138 O   0  0  0  0  0  0  0  0  0  0  0  0
   -9.6691  -10.2874   10.7515 C   0  0  1  0  0  0  0  0  0  0  0  0
   -9.0775  -11.3193   11.5537 O   0  0  0  0  0  0  0  0  0  0  0  0
  -11.1394  -10.2654   11.1198 C   0  0  2  0  0  0  0  0  0  0  0  0
  -11.9100   -6.2880    8.0144 N   0  0  0  0  0  0  0  0  0  0  0  0
  -10.9902   -6.4485    8.9930 C   0  0  1  0  0  0  0  0  0  0  0  0
  -10.1074   -5.4540    9.2382 N   0  0  0  0  0  0  0  0  0  0  0  0
  -10.9439   -7.5859    9.7253 N   0  0  0  0  0  0  0  0  0  0  0  0
  -11.8313   -8.5783    9.4753 C   0  0  1  0  0  0  0  0  0  0  0  0
  -12.7822   -8.4408    8.4833 C   0  0  2  0  0  0  0  0  0  0  0  0
  -12.8081   -7.2634    7.7450 C   0  0  0  0  0  0  0  0  0  0  0  0
  -13.6501   -7.0980    6.8404 O   0  0  0  0  0  0  0  0  0  0  0  0
  -13.5158   -9.5724    8.4734 N   0  0  0  0  0  0  0  0  0  0  0  0
  -13.0237  -10.3915    9.4320 C   0  0  0  0  0  0  0  0  0  0  0  0
  -12.0005   -9.7719   10.0289 N   0  0  1  0  0  0  0  0  0  0  0  0
  1  2  1  6  0  0  0
  1  3  1  0  0  0  0
  1  4  2  0  0  0  0
  1  6  1  0  0  0  0
  5  6  1  0  0  0  0
  7  5  1  6  0  0  0
  7  8  1  0  0  0  0
  7  9  1  0  0  0  0
  9 10  1  1  0  0  0
  9 11  1  0  0  0  0
 11 12  1  1  0  0  0
 11 13  1  0  0  0  0
 13  8  1  1  0  0  0
 13 24  1  0  0  0  0
 14 15  1  0  0  0  0
 14 20  1  0  0  0  0
 15 16  1  1  0  0  0
 15 17  1  0  0  0  0
 18 17  1  6  0  0  0
 18 19  1  0  0  0  0
 18 24  1  0  0  0  0
 19 20  1  1  0  0  0
 19 22  1  0  0  0  0
 20 21  2  0  0  0  0
 22 23  1  0  0  0  0
 24 23  1  6  0  0  0
M  CHG  1   3  -1
M  END
>  <CHROM.1>
-30.18360567,103.99429813,-56.98850727,57.99411750,-11.06627518,-8.22917471
11.39090501,0.94890250,-1.07723713,0.97811398

>  <Name>
ligand

>  <RI>
0

>  <Rbt.Current_Directory>
/home/itssahil/PROJECTS/Mol_Feturizer/New_Systems/rnas/3SLQ

>  <Rbt.Executable>
rbdock ($Id: //depot/dev/client3/rdock/2013.1/src/exe/rbdock.cxx#4 $)

>  <Rbt.Library>
libRbt.so (2013.1, Build901 2013/11/27)

>  <Rbt.Parameter_File>
/export/apps/rDock/src/rDock_2013.1_src/data/scripts/dock_solv.prm

>  <Rbt.Receptor>
prm/pocket_docking_6.prm

>  <SCORE>
-12.3823

>  <SCORE.INTER>
-10.7212

>  <SCORE.INTER.CONST>
1

>  <SCORE.INTER.POLAR>
0

>  <SCORE.INTER.ROT>
4

>  <SCORE.INTER.SOLV>
13.264

>  <SCORE.INTER.VDW>
-17.8354

>  <SCORE.INTER.norm>
-0.446715

>  <SCORE.INTRA>
-1.66115

>  <SCORE.INTRA.DIHEDRAL>
-6.41399

>  <SCORE.INTRA.DIHEDRAL.0>
13.2525

>  <SCORE.INTRA.POLAR>
0

>  <SCORE.INTRA.POLAR.0>
0

>  <SCORE.INTRA.REPUL>
0

>  <SCORE.INTRA.REPUL.0>
0

>  <SCORE.INTRA.SOLV>
3.59954

>  <SCORE.INTRA.SOLV.lig_0>
-70.7221

>  <SCORE.INTRA.VDW>
-0.25393

>  <SCORE.INTRA.VDW.0>
-1.46337

>  <SCORE.INTRA.norm>
-0.0692147

>  <SCORE.RESTR>
0

>  <SCORE.RESTR.CAVITY>
0

>  <SCORE.RESTR.norm>
0

>  <SCORE.SYSTEM>
0

>  <SCORE.SYSTEM.CONST>
0

>  <SCORE.SYSTEM.DIHEDRAL>
0

>  <SCORE.SYSTEM.SOLV>
0

>  <SCORE.SYSTEM.norm>
0

>  <SCORE.heavy>
24

>  <SCORE.norm>
-0.51593

>  <RMSD>
7.252

$$$$
ligand
 OpenBabel11021811483D
libRbt.so/2013.1/901 2013/11/27
 24 26  0  0  0  0  0  0  0  0999 V2000
   -6.6984   -3.3929    9.5470 P   0  0  1  0  0  0  0  0  0  0  0  0
   -7.4507   -2.2724   10.2326 O   0  0  0  0  0  0  0  0  0  0  0  0
   -5.6754   -2.9803    8.5150 O   0  5  0  0  0  0  0  0  0  0  0  0
   -6.1772   -4.4606   10.4972 O   0  0  0  0  0  0  0  0  0  0  0  0
   -8.9213   -4.8685    9.1051 C   0  0  0  0  0  0  0  0  0  0  0  0
   -7.8201   -4.0915    8.6031 O   0  0  0  0  0  0  0  0  0  0  0  0
   -9.8393   -5.2779    7.9495 C   0  0  1  0  0  0  0  0  0  0  0  0
   -9.2056   -6.2155    7.0700 O   0  0  0  0  0  0  0  0  0  0  0  0
  -11.1448   -5.9296    8.3721 C   0  0  1  0  0  0  0  0  0  0  0  0
  -12.1411   -4.9143    8.5249 O   0  0  0  0  0  0  0  0  0  0  0  0
  -11.4663   -6.8555    7.2104 C   0  0  1  0  0  0  0  0  0  0  0  0
  -12.1037   -6.1288    6.1502 O   0  0  0  0  0  0  0  0  0  0  0  0
  -10.1056   -7.2596    6.6784 C   0  0  2  0  0  0  0  0  0  0  0  0
   -8.8850   -9.3263   11.1834 N   0  0  0  0  0  0  0  0  0  0  0  0
   -9.3562   -8.0894   10.9049 C   0  0  1  0  0  0  0  0  0  0  0  0
   -9.5656   -7.2195   11.9187 N   0  0  0  0  0  0  0  0  0  0  0  0
   -9.6184   -7.7148    9.6309 N   0  0  0  0  0  0  0  0  0  0  0  0
   -9.4060   -8.5905    8.6196 C   0  0  1  0  0  0  0  0  0  0  0  0
   -8.9239   -9.8592    8.8749 C   0  0  2  0  0  0  0  0  0  0  0  0
   -8.6634  -10.2196   10.1918 C   0  0  0  0  0  0  0  0  0  0  0  0
   -8.2273  -11.3550   10.4664 O   0  0  0  0  0  0  0  0  0  0  0  0
   -8.8109  -10.4899    7.6882 N   0  0  0  0  0  0  0  0  0  0  0  0
   -9.2210   -9.6325    6.7246 C   0  0  0  0  0  0  0  0  0  0  0  0
   -9.5800   -8.4849    7.3088 N   0  0  1  0  0  0  0  0  0  0  0  0
  1  2  1  1  0  0  0
  1  3  1  0  0  0  0
  1  4  2  0  0  0  0
  1  6  1  0  0  0  0
  5  6  1  0  0  0  0
  7  5  1  1  0  0  0
  7  8  1  0  0  0  0
  7  9  1  0  0  0  0
  9 10  1  6  0  0  0
  9 11  1  0  0  0  0
 11 12  1  6  0  0  0
 11 13  1  0  0  0  0
 13  8  1  1  0  0  0
 13 24  1  0  0  0  0
 14 15  1  0  0  0  0
 14 20  1  0  0  0  0
 15 16  1  6  0  0  0
 15 17  1  0  0  0  0
 18 17  1  1  0  0  0
 18 19  1  0  0  0  0
 18 24  1  0  0  0  0
 19 20  1  6  0  0  0
 19 22  1  0  0  0  0
 20 21  2  0  0  0  0
 22 23  1  0  0  0  0
 24 23  1  1  0  0  0
M  CHG  1   3  -1
M  END
>  <CHROM.1>
-70.28132297,68.05712861,175.46134522,57.62911400,-8.96924953,-6.60127215
8.87055004,-1.10064437,0.71692986,2.90603067

>  <Name>
ligand

>  <RI>
0

>  <Rbt.Current_Directory>
/home/itssahil/PROJECTS/Mol_Feturizer/New_Systems/rnas/3SLQ

>  <Rbt.Executable>
rbdock ($Id: //depot/dev/client3/rdock/2013.1/src/exe/rbdock.cxx#4 $)

>  <Rbt.Library>
libRbt.so (2013.1, Build901 2013/11/27)

>  <Rbt.Parameter_File>
/export/apps/rDock/src/rDock_2013.1_src/data/scripts/dock_solv.prm

>  <Rbt.Receptor>
prm/pocket_docking_5.prm

>  <SCORE>
-17.2987

>  <SCORE.INTER>
-12.3439

>  <SCORE.INTER.CONST>
1

>  <SCORE.INTER.POLAR>
0

>  <SCORE.INTER.ROT>
4

>  <SCORE.INTER.SOLV>
19.1229

>  <SCORE.INTER.VDW>
-20.8703

>  <SCORE.INTER.norm>
-0.514331

>  <SCORE.INTRA>
-4.95478

>  <SCORE.INTRA.DIHEDRAL>
-11.5551

>  <SCORE.INTRA.DIHEDRAL.0>
13.2525

>  <SCORE.INTRA.POLAR>
0

>  <SCORE.INTRA.POLAR.0>
0

>  <SCORE.INTRA.REPUL>
0

>  <SCORE.INTRA.REPUL.0>
0

>  <SCORE.INTRA.SOLV>
1.88186

>  <SCORE.INTRA.SOLV.lig_0>
-70.7221

>  <SCORE.INTRA.VDW>
-0.118152

>  <SCORE.INTRA.VDW.0>
-1.46337

>  <SCORE.INTRA.norm>
-0.206449

>  <SCORE.RESTR>
0

>  <SCORE.RESTR.CAVITY>
0

>  <SCORE.RESTR.norm>
0

>  <SCORE.SYSTEM>
0

>  <SCORE.SYSTEM.CONST>
0

>  <SCORE.SYSTEM.DIHEDRAL>
0

>  <SCORE.SYSTEM.SOLV>
0

>  <SCORE.SYSTEM.norm>
0

>  <SCORE.heavy>
24

>  <SCORE.norm>
-0.72078

>  <RMSD>
7.283

$$$$
ligand
 OpenBabel11021811483D
libRbt.so/2013.1/901 2013/11/27
 24 26  0  0  0  0  0  0  0  0999 V2000
   -7.7050   -6.1174   13.3983 P   0  0  1  0  0  0  0  0  0  0  0  0
   -8.2599   -4.9075   14.1192 O   0  0  0  0  0  0  0  0  0  0  0  0
   -6.3753   -5.9334   12.7055 O   0  5  0  0  0  0  0  0  0  0  0  0
   -7.7738   -7.4047   14.2062 O   0  0  0  0  0  0  0  0  0  0  0  0
   -8.4668   -7.2323   11.0552 C   0  0  0  0  0  0  0  0  0  0  0  0
   -8.6928   -6.2943   12.1216 O   0  0  0  0  0  0  0  0  0  0  0  0
   -8.6074   -8.6635   11.5819 C   0  0  1  0  0  0  0  0  0  0  0  0
   -9.9633   -8.9756   11.9257 O   0  0  0  0  0  0  0  0  0  0  0  0
   -8.1708   -9.7466   10.6103 C   0  0  1  0  0  0  0  0  0  0  0  0
   -6.7848  -10.0293   10.8243 O   0  0  0  0  0  0  0  0  0  0  0  0
   -9.0458  -10.9303   10.9891 C   0  0  1  0  0  0  0  0  0  0  0  0
   -8.4879  -11.6292   12.1109 O   0  0  0  0  0  0  0  0  0  0  0  0
  -10.3259  -10.2921   11.4911 C   0  0  2  0  0  0  0  0  0  0  0  0
  -11.1034   -7.9662    7.0142 N   0  0  0  0  0  0  0  0  0  0  0  0
  -10.0141   -7.9451    7.8157 C   0  0  1  0  0  0  0  0  0  0  0  0
   -8.9309   -7.2291    7.4381 N   0  0  0  0  0  0  0  0  0  0  0  0
   -9.9961   -8.6279    8.9843 N   0  0  0  0  0  0  0  0  0  0  0  0
  -11.0845   -9.3428    9.3574 C   0  0  1  0  0  0  0  0  0  0  0  0
  -12.2109   -9.3807    8.5593 C   0  0  2  0  0  0  0  0  0  0  0  0
  -12.2036   -8.6716    7.3638 C   0  0  0  0  0  0  0  0  0  0  0  0
  -13.1997   -8.6787    6.6138 O   0  0  0  0  0  0  0  0  0  0  0  0
  -13.1187  -10.1566    9.1862 N   0  0  0  0  0  0  0  0  0  0  0  0
  -12.5619  -10.5929   10.3401 C   0  0  0  0  0  0  0  0  0  0  0  0
  -11.3263  -10.0900   10.4265 N   0  0  1  0  0  0  0  0  0  0  0  0
  1  2  1  1  0  0  0
  1  3  1  0  0  0  0
  1  4  2  0  0  0  0
  1  6  1  0  0  0  0
  5  6  1  0  0  0  0
  7  5  1  6  0  0  0
  7  8  1  0  0  0  0
  7  9  1  0  0  0  0
  9 10  1  1  0  0  0
  9 11  1  0  0  0  0
 11 12  1  1  0  0  0
 11 13  1  0  0  0  0
 13  8  1  6  0  0  0
 13 24  1  0  0  0  0
 14 15  1  0  0  0  0
 14 20  1  0  0  0  0
 15 16  1  1  0  0  0
 15 17  1  0  0  0  0
 18 17  1  6  0  0  0
 18 19  1  0  0  0  0
 18 24  1  0  0  0  0
 19 20  1  1  0  0  0
 19 22  1  0  0  0  0
 20 21  2  0  0  0  0
 22 23  1  0  0  0  0
 24 23  1  6  0  0  0
M  CHG  1   3  -1
M  END
>  <CHROM.1>
172.59353685,69.09735325,67.17631720,55.54294790,-9.57641774,-8.43979172
10.67216417,0.08194428,-0.92075480,-0.37309967

>  <Name>
ligand

>  <RI>
0

>  <Rbt.Current_Directory>
/home/itssahil/PROJECTS/Mol_Feturizer/New_Systems/rnas/3SLQ

>  <Rbt.Executable>
rbdock ($Id: //depot/dev/client3/rdock/2013.1/src/exe/rbdock.cxx#4 $)

>  <Rbt.Library>
libRbt.so (2013.1, Build901 2013/11/27)

>  <Rbt.Parameter_File>
/export/apps/rDock/src/rDock_2013.1_src/data/scripts/dock_solv.prm

>  <Rbt.Receptor>
prm/pocket_docking_8.prm

>  <SCORE>
-13.999

>  <SCORE.INTER>
-10.2895

>  <SCORE.INTER.CONST>
1

>  <SCORE.INTER.POLAR>
0

>  <SCORE.INTER.ROT>
4

>  <SCORE.INTER.SOLV>
10.4047

>  <SCORE.INTER.VDW>
-16.5946

>  <SCORE.INTER.norm>
-0.428728

>  <SCORE.INTRA>
-3.70947

>  <SCORE.INTRA.DIHEDRAL>
-11.425

>  <SCORE.INTRA.DIHEDRAL.0>
13.2525

>  <SCORE.INTRA.POLAR>
0

>  <SCORE.INTRA.POLAR.0>
0

>  <SCORE.INTRA.REPUL>
0

>  <SCORE.INTRA.REPUL.0>
0

>  <SCORE.INTRA.SOLV>
4.84203

>  <SCORE.INTRA.SOLV.lig_0>
-70.7221

>  <SCORE.INTRA.VDW>
-0.41798

>  <SCORE.INTRA.VDW.0>
-1.46337

>  <SCORE.INTRA.norm>
-0.154561

>  <SCORE.RESTR>
0

>  <SCORE.RESTR.CAVITY>
0

>  <SCORE.RESTR.norm>
0

>  <SCORE.SYSTEM>
0

>  <SCORE.SYSTEM.CONST>
0

>  <SCORE.SYSTEM.DIHEDRAL>
0

>  <SCORE.SYSTEM.SOLV>
0

>  <SCORE.SYSTEM.norm>
0

>  <SCORE.heavy>
24

>  <SCORE.norm>
-0.58329

>  <RMSD>
7.283

$$$$
ligand
 OpenBabel11021811483D
libRbt.so/2013.1/901 2013/11/27
 24 26  0  0  0  0  0  0  0  0999 V2000
   -6.5098   -2.2068    9.7004 P   0  0  1  0  0  0  0  0  0  0  0  0
   -5.4951   -2.3452    8.5857 O   0  0  0  0  0  0  0  0  0  0  0  0
   -5.9600   -1.8970   11.0728 O   0  5  0  0  0  0  0  0  0  0  0  0
   -7.7113   -1.3457    9.3403 O   0  0  0  0  0  0  0  0  0  0  0  0
   -6.1928   -4.8574   10.1336 C   0  0  0  0  0  0  0  0  0  0  0  0
   -7.0500   -3.7221    9.9225 O   0  0  0  0  0  0  0  0  0  0  0  0
   -7.0382   -6.1209   10.3194 C   0  0  1  0  0  0  0  0  0  0  0  0
   -6.2302   -7.2641   10.6264 O   0  0  0  0  0  0  0  0  0  0  0  0
   -8.0720   -6.0391   11.4295 C   0  0  1  0  0  0  0  0  0  0  0  0
   -9.3011   -5.5522   10.8827 O   0  0  0  0  0  0  0  0  0  0  0  0
   -8.2012   -7.4804   11.8946 C   0  0  1  0  0  0  0  0  0  0  0  0
   -9.0929   -8.2071   11.0372 O   0  0  0  0  0  0  0  0  0  0  0  0
   -6.8238   -8.0661   11.6550 C   0  0  2  0  0  0  0  0  0  0  0  0
   -6.2534   -9.4388   16.5383 N   0  0  0  0  0  0  0  0  0  0  0  0
   -7.2592   -9.7195   15.6787 C   0  0  1  0  0  0  0  0  0  0  0  0
   -8.2976  -10.4749   16.1024 N   0  0  0  0  0  0  0  0  0  0  0  0
   -7.2386   -9.2554   14.4074 N   0  0  0  0  0  0  0  0  0  0  0  0
   -6.1959   -8.4986   13.9891 C   0  0  1  0  0  0  0  0  0  0  0  0
   -5.1562   -8.1951   14.8458 C   0  0  2  0  0  0  0  0  0  0  0  0
   -5.2009   -8.6846   16.1460 C   0  0  0  0  0  0  0  0  0  0  0  0
   -4.2831   -8.4341   16.9520 O   0  0  0  0  0  0  0  0  0  0  0  0
   -4.2812   -7.4334   14.1581 N   0  0  0  0  0  0  0  0  0  0  0  0
   -4.7666   -7.2774   12.9043 C   0  0  0  0  0  0  0  0  0  0  0  0
   -5.9290   -7.9322   12.8196 N   0  0  1  0  0  0  0  0  0  0  0  0
  1  2  1  6  0  0  0
  1  3  1  0  0  0  0
  1  4  2  0  0  0  0
  1  6  1  0  0  0  0
  5  6  1  0  0  0  0
  7  5  1  1  0  0  0
  7  8  1  0  0  0  0
  7  9  1  0  0  0  0
  9 10  1  6  0  0  0
  9 11  1  0  0  0  0
 11 12  1  6  0  0  0
 11 13  1  0  0  0  0
 13  8  1  6  0  0  0
 13 24  1  0  0  0  0
 14 15  1  0  0  0  0
 14 20  1  0  0  0  0
 15 16  1  1  0  0  0
 15 17  1  0  0  0  0
 18 17  1  6  0  0  0
 18 19  1  0  0  0  0
 18 24  1  0  0  0  0
 19 20  1  1  0  0  0
 19 22  1  0  0  0  0
 20 21  2  0  0  0  0
 22 23  1  0  0  0  0
 24 23  1  6  0  0  0
M  CHG  1   3  -1
M  END
>  <CHROM.1>
51.92879863,-175.91619071,179.42764637,176.99706267,-6.62869469,-6.33573135
12.29707253,-1.65032354,0.62215582,2.45209357

>  <Name>
ligand

>  <RI>
0

>  <Rbt.Current_Directory>
/home/itssahil/PROJECTS/Mol_Feturizer/New_Systems/rnas/3SLQ

>  <Rbt.Executable>
rbdock ($Id: //depot/dev/client3/rdock/2013.1/src/exe/rbdock.cxx#4 $)

>  <Rbt.Library>
libRbt.so (2013.1, Build901 2013/11/27)

>  <Rbt.Parameter_File>
/export/apps/rDock/src/rDock_2013.1_src/data/scripts/dock_solv.prm

>  <Rbt.Receptor>
prm/pocket_docking_3.prm

>  <SCORE>
-8.87612

>  <SCORE.INTER>
-2.86529

>  <SCORE.INTER.CONST>
1

>  <SCORE.INTER.POLAR>
0

>  <SCORE.INTER.ROT>
4

>  <SCORE.INTER.SOLV>
19.466

>  <SCORE.INTER.VDW>
-14.6655

>  <SCORE.INTER.norm>
-0.119387

>  <SCORE.INTRA>
-6.01308

>  <SCORE.INTRA.DIHEDRAL>
-11.8898

>  <SCORE.INTRA.DIHEDRAL.0>
13.2525

>  <SCORE.INTRA.POLAR>
0

>  <SCORE.INTRA.POLAR.0>
0

>  <SCORE.INTRA.REPUL>
0

>  <SCORE.INTRA.REPUL.0>
0

>  <SCORE.INTRA.SOLV>
0.0882688

>  <SCORE.INTRA.SOLV.lig_0>
-70.7221

>  <SCORE.INTRA.VDW>
-0.112327

>  <SCORE.INTRA.VDW.0>
-1.46337

>  <SCORE.INTRA.norm>
-0.250545

>  <SCORE.RESTR>
0.00224147

>  <SCORE.RESTR.CAVITY>
0.00224147

>  <SCORE.RESTR.norm>
9.33944e-05

>  <SCORE.SYSTEM>
0

>  <SCORE.SYSTEM.CONST>
0

>  <SCORE.SYSTEM.DIHEDRAL>
0

>  <SCORE.SYSTEM.SOLV>
0

>  <SCORE.SYSTEM.norm>
0

>  <SCORE.heavy>
24

>  <SCORE.norm>
-0.369838

>  <RMSD>
7.306

$$$$
ligand
 OpenBabel11021811483D
libRbt.so/2013.1/901 2013/11/27
 24 26  0  0  0  0  0  0  0  0999 V2000
   -6.6225   -3.5654    9.4101 P   0  0  1  0  0  0  0  0  0  0  0  0
   -5.6616   -2.9918    8.3907 O   0  0  0  0  0  0  0  0  0  0  0  0
   -6.1714   -4.8160   10.1272 O   0  5  0  0  0  0  0  0  0  0  0  0
   -7.2163   -2.5291   10.3525 O   0  0  0  0  0  0  0  0  0  0  0  0
   -8.9751   -4.8491    9.0481 C   0  0  0  0  0  0  0  0  0  0  0  0
   -7.8388   -4.1522    8.5082 O   0  0  0  0  0  0  0  0  0  0  0  0
   -9.9222   -5.2568    7.9156 C   0  0  1  0  0  0  0  0  0  0  0  0
   -9.3056   -6.1807    7.0099 O   0  0  0  0  0  0  0  0  0  0  0  0
  -11.2091   -5.9244    8.3696 C   0  0  1  0  0  0  0  0  0  0  0  0
  -12.2097   -4.9197    8.5600 O   0  0  0  0  0  0  0  0  0  0  0  0
  -11.5554   -6.8429    7.2091 C   0  0  1  0  0  0  0  0  0  0  0  0
  -12.2297   -6.1129    6.1743 O   0  0  0  0  0  0  0  0  0  0  0  0
  -10.2070   -7.2296    6.6347 C   0  0  2  0  0  0  0  0  0  0  0  0
   -9.0289   -9.4020   11.1012 N   0  0  0  0  0  0  0  0  0  0  0  0
   -9.5389   -8.1746   10.8507 C   0  0  1  0  0  0  0  0  0  0  0  0
   -9.8077   -7.3479   11.8865 N   0  0  0  0  0  0  0  0  0  0  0  0
   -9.7813   -7.7667    9.5830 N   0  0  0  0  0  0  0  0  0  0  0  0
   -9.5093   -8.5992    8.5496 C   0  0  1  0  0  0  0  0  0  0  0  0
   -8.9867   -9.8572    8.7761 C   0  0  2  0  0  0  0  0  0  0  0  0
   -8.7477  -10.2524   10.0872 C   0  0  0  0  0  0  0  0  0  0  0  0
   -8.2765  -11.3796   10.3361 O   0  0  0  0  0  0  0  0  0  0  0  0
   -8.8186  -10.4426    7.5728 N   0  0  0  0  0  0  0  0  0  0  0  0
   -9.2352   -9.5685    6.6271 C   0  0  0  0  0  0  0  0  0  0  0  0
   -9.6524   -8.4555    7.2387 N   0  0  1  0  0  0  0  0  0  0  0  0
  1  2  1  6  0  0  0
  1  3  1  0  0  0  0
  1  4  2  0  0  0  0
  1  6  1  0  0  0  0
  5  6  1  0  0  0  0
  7  5  1  1  0  0  0
  7  8  1  0  0  0  0
  7  9  1  0  0  0  0
  9 10  1  6  0  0  0
  9 11  1  0  0  0  0
 11 12  1  6  0  0  0
 11 13  1  0  0  0  0
 13  8  1  1  0  0  0
 13 24  1  0  0  0  0
 14 15  1  0  0  0  0
 14 20  1  0  0  0  0
 15 16  1  6  0  0  0
 15 17  1  0  0  0  0
 18 17  1  1  0  0  0
 18 19  1  0  0  0  0
 18 24  1  0  0  0  0
 19 20  1  6  0  0  0
 19 22  1  0  0  0  0
 20 21  2  0  0  0  0
 22 23  1  0  0  0  0
 24 23  1  1  0  0  0
M  CHG  1   3  -1
M  END
>  <CHROM.1>
177.41711317,63.33703360,179.90176205,61.47453811,-9.02195731,-6.65203869
8.79823427,-1.07885861,0.66374559,2.89643542

>  <Name>
ligand

>  <RI>
0

>  <Rbt.Current_Directory>
/home/itssahil/PROJECTS/Mol_Feturizer/New_Systems/rnas/3SLQ

>  <Rbt.Executable>
rbdock ($Id: //depot/dev/client3/rdock/2013.1/src/exe/rbdock.cxx#4 $)

>  <Rbt.Library>
libRbt.so (2013.1, Build901 2013/11/27)

>  <Rbt.Parameter_File>
/export/apps/rDock/src/rDock_2013.1_src/data/scripts/dock_solv.prm

>  <Rbt.Receptor>
prm/pocket_docking_7.prm

>  <SCORE>
-17.761

>  <SCORE.INTER>
-12.955

>  <SCORE.INTER.CONST>
1

>  <SCORE.INTER.POLAR>
0

>  <SCORE.INTER.ROT>
4

>  <SCORE.INTER.SOLV>
18.4481

>  <SCORE.INTER.VDW>
-21.0527

>  <SCORE.INTER.norm>
-0.539792

>  <SCORE.INTRA>
-4.80601

>  <SCORE.INTRA.DIHEDRAL>
-11.9997

>  <SCORE.INTRA.DIHEDRAL.0>
13.2525

>  <SCORE.INTRA.POLAR>
0

>  <SCORE.INTRA.POLAR.0>
0

>  <SCORE.INTRA.REPUL>
0

>  <SCORE.INTRA.REPUL.0>
0

>  <SCORE.INTRA.SOLV>
2.27165

>  <SCORE.INTRA.SOLV.lig_0>
-70.7221

>  <SCORE.INTRA.VDW>
0.0580344

>  <SCORE.INTRA.VDW.0>
-1.46337

>  <SCORE.INTRA.norm>
-0.20025

>  <SCORE.RESTR>
0

>  <SCORE.RESTR.CAVITY>
0

>  <SCORE.RESTR.norm>
0

>  <SCORE.SYSTEM>
0

>  <SCORE.SYSTEM.CONST>
0

>  <SCORE.SYSTEM.DIHEDRAL>
0

>  <SCORE.SYSTEM.SOLV>
0

>  <SCORE.SYSTEM.norm>
0

>  <SCORE.heavy>
24

>  <SCORE.norm>
-0.740043

>  <RMSD>
7.319

$$$$
ligand
 OpenBabel11021811483D
libRbt.so/2013.1/901 2013/11/27
 24 26  0  0  0  0  0  0  0  0999 V2000
   -6.9571   -6.7732   13.0545 P   0  0  1  0  0  0  0  0  0  0  0  0
   -5.8827   -5.9083   12.4306 O   0  0  0  0  0  0  0  0  0  0  0  0
   -6.8050   -7.0730   14.5272 O   0  5  0  0  0  0  0  0  0  0  0  0
   -8.3744   -6.3656   12.6807 O   0  0  0  0  0  0  0  0  0  0  0  0
   -5.4599   -8.9702   12.5590 C   0  0  0  0  0  0  0  0  0  0  0  0
   -6.6916   -8.2420   12.4146 O   0  0  0  0  0  0  0  0  0  0  0  0
   -5.5896  -10.3482   11.9033 C   0  0  1  0  0  0  0  0  0  0  0  0
   -6.6983  -11.0883   12.4297 O   0  0  0  0  0  0  0  0  0  0  0  0
   -5.7917  -10.3218   10.3979 C   0  0  1  0  0  0  0  0  0  0  0  0
   -4.5131  -10.3716    9.7580 O   0  0  0  0  0  0  0  0  0  0  0  0
   -6.5981  -11.5822   10.1306 C   0  0  1  0  0  0  0  0  0  0  0  0
   -5.7339  -12.7248   10.0540 O   0  0  0  0  0  0  0  0  0  0  0  0
   -7.4186  -11.7649   11.3920 C   0  0  2  0  0  0  0  0  0  0  0  0
  -10.4709   -9.0557    8.3260 N   0  0  0  0  0  0  0  0  0  0  0  0
   -9.2312   -9.5432    8.0917 C   0  0  1  0  0  0  0  0  0  0  0  0
   -8.6534   -9.3260    6.8885 N   0  0  0  0  0  0  0  0  0  0  0  0
   -8.5664  -10.2413    9.0418 N   0  0  0  0  0  0  0  0  0  0  0  0
   -9.1502  -10.4550   10.2453 C   0  0  1  0  0  0  0  0  0  0  0  0
  -10.4143   -9.9673   10.5125 C   0  0  2  0  0  0  0  0  0  0  0  0
  -11.0761   -9.2544    9.5196 C   0  0  0  0  0  0  0  0  0  0  0  0
  -12.2186   -8.7965    9.7192 O   0  0  0  0  0  0  0  0  0  0  0  0
  -10.7230  -10.3277   11.7749 N   0  0  0  0  0  0  0  0  0  0  0  0
   -9.6765  -11.0279   12.2716 C   0  0  0  0  0  0  0  0  0  0  0  0
   -8.7316  -11.0963   11.3285 N   0  0  1  0  0  0  0  0  0  0  0  0
  1  2  1  6  0  0  0
  1  3  1  0  0  0  0
  1  4  2  0  0  0  0
  1  6  1  0  0  0  0
  5  6  1  0  0  0  0
  7  5  1  1  0  0  0
  7  8  1  0  0  0  0
  7  9  1  0  0  0  0
  9 10  1  6  0  0  0
  9 11  1  0  0  0  0
 11 12  1  1  0  0  0
 11 13  1  0  0  0  0
 13  8  1  1  0  0  0
 13 24  1  0  0  0  0
 14 15  1  0  0  0  0
 14 20  1  0  0  0  0
 15 16  1  1  0  0  0
 15 17  1  0  0  0  0
 18 17  1  6  0  0  0
 18 19  1  0  0  0  0
 18 24  1  0  0  0  0
 19 20  1  1  0  0  0
 19 22  1  0  0  0  0
 20 21  2  0  0  0  0
 22 23  1  0  0  0  0
 24 23  1  6  0  0  0
M  CHG  1   3  -1
M  END
>  <CHROM.1>
59.38579163,-55.75664325,176.56351268,117.80671801,-7.85236829,-9.41060034
11.05647863,0.82490160,-0.38047592,0.65260686

>  <Name>
ligand

>  <RI>
0

>  <Rbt.Current_Directory>
/home/itssahil/PROJECTS/Mol_Feturizer/New_Systems/rnas/3SLQ

>  <Rbt.Executable>
rbdock ($Id: //depot/dev/client3/rdock/2013.1/src/exe/rbdock.cxx#4 $)

>  <Rbt.Library>
libRbt.so (2013.1, Build901 2013/11/27)

>  <Rbt.Parameter_File>
/export/apps/rDock/src/rDock_2013.1_src/data/scripts/dock_solv.prm

>  <Rbt.Receptor>
prm/pocket_docking_6.prm

>  <SCORE>
-15.0089

>  <SCORE.INTER>
-9.79006

>  <SCORE.INTER.CONST>
1

>  <SCORE.INTER.POLAR>
0

>  <SCORE.INTER.ROT>
4

>  <SCORE.INTER.SOLV>
18.7467

>  <SCORE.INTER.VDW>
-19.0423

>  <SCORE.INTER.norm>
-0.407919

>  <SCORE.INTRA>
-5.21879

>  <SCORE.INTRA.DIHEDRAL>
-11.9255

>  <SCORE.INTRA.DIHEDRAL.0>
13.2525

>  <SCORE.INTRA.POLAR>
0

>  <SCORE.INTRA.POLAR.0>
0

>  <SCORE.INTRA.REPUL>
0

>  <SCORE.INTRA.REPUL.0>
0

>  <SCORE.INTRA.SOLV>
0.267071

>  <SCORE.INTRA.SOLV.lig_0>
-70.7221

>  <SCORE.INTRA.VDW>
0.610425

>  <SCORE.INTRA.VDW.0>
-1.46337

>  <SCORE.INTRA.norm>
-0.21745

>  <SCORE.RESTR>
0

>  <SCORE.RESTR.CAVITY>
0

>  <SCORE.RESTR.norm>
0

>  <SCORE.SYSTEM>
0

>  <SCORE.SYSTEM.CONST>
0

>  <SCORE.SYSTEM.DIHEDRAL>
0

>  <SCORE.SYSTEM.SOLV>
0

>  <SCORE.SYSTEM.norm>
0

>  <SCORE.heavy>
24

>  <SCORE.norm>
-0.625369

>  <RMSD>
7.340

$$$$
ligand
 OpenBabel11021811483D
libRbt.so/2013.1/901 2013/11/27
 24 26  0  0  0  0  0  0  0  0999 V2000
   -5.9118  -13.5332   11.4964 P   0  0  1  0  0  0  0  0  0  0  0  0
   -5.1159  -13.6741   10.2164 O   0  0  0  0  0  0  0  0  0  0  0  0
   -7.1864  -14.3389   11.5854 O   0  5  0  0  0  0  0  0  0  0  0  0
   -5.0707  -13.6219   12.7611 O   0  0  0  0  0  0  0  0  0  0  0  0
   -6.8432  -11.3573   10.1883 C   0  0  0  0  0  0  0  0  0  0  0  0
   -6.5085  -12.0250   11.4172 O   0  0  0  0  0  0  0  0  0  0  0  0
   -7.2998   -9.9250   10.4814 C   0  0  1  0  0  0  0  0  0  0  0  0
   -7.3290   -9.1202    9.2958 O   0  0  0  0  0  0  0  0  0  0  0  0
   -8.6870   -9.8096   11.0898 C   0  0  1  0  0  0  0  0  0  0  0  0
   -8.5714   -9.8394   12.5154 O   0  0  0  0  0  0  0  0  0  0  0  0
   -9.1735   -8.4561   10.5983 C   0  0  1  0  0  0  0  0  0  0  0  0
   -8.6578   -7.4052   11.4279 O   0  0  0  0  0  0  0  0  0  0  0  0
   -8.4979   -8.2924    9.2513 C   0  0  2  0  0  0  0  0  0  0  0  0
  -12.5694   -7.2893    6.3406 N   0  0  0  0  0  0  0  0  0  0  0  0
  -12.0539   -6.5803    7.3706 C   0  0  1  0  0  0  0  0  0  0  0  0
  -12.6472   -5.4215    7.7363 N   0  0  0  0  0  0  0  0  0  0  0  0
  -10.9580   -7.0150    8.0356 N   0  0  0  0  0  0  0  0  0  0  0  0
  -10.3685   -8.1769    7.6650 C   0  0  1  0  0  0  0  0  0  0  0  0
  -10.8746   -8.9219    6.6180 C   0  0  2  0  0  0  0  0  0  0  0  0
  -12.0003   -8.4532    5.9509 C   0  0  0  0  0  0  0  0  0  0  0  0
  -12.4897   -9.0948    5.0003 O   0  0  0  0  0  0  0  0  0  0  0  0
  -10.0921  -10.0128    6.4891 N   0  0  0  0  0  0  0  0  0  0  0  0
   -9.1219   -9.9380    7.4298 C   0  0  0  0  0  0  0  0  0  0  0  0
   -9.3047   -8.8161    8.1334 N   0  0  1  0  0  0  0  0  0  0  0  0
  1  2  1  6  0  0  0
  1  3  1  0  0  0  0
  1  4  2  0  0  0  0
  1  6  1  0  0  0  0
  5  6  1  0  0  0  0
  7  5  1  6  0  0  0
  7  8  1  0  0  0  0
  7  9  1  0  0  0  0
  9 10  1  1  0  0  0
  9 11  1  0  0  0  0
 11 12  1  1  0  0  0
 11 13  1  0  0  0  0
 13  8  1  1  0  0  0
 13 24  1  0  0  0  0
 14 15  1  0  0  0  0
 14 20  1  0  0  0  0
 15 16  1  1  0  0  0
 15 17  1  0  0  0  0
 18 17  1  6  0  0  0
 18 19  1  0  0  0  0
 18 24  1  0  0  0  0
 19 20  1  1  0  0  0
 19 22  1  0  0  0  0
 20 21  2  0  0  0  0
 22 23  1  0  0  0  0
 24 23  1  6  0  0  0
M  CHG  1   3  -1
M  END
>  <CHROM.1>
31.06222387,165.70114954,-176.73234153,-169.84525085,-8.79639071,-9.92410307
9.35084161,0.08703451,0.90540990,-2.39602712

>  <Name>
ligand

>  <RI>
0

>  <Rbt.Current_Directory>
/home/itssahil/PROJECTS/Mol_Feturizer/New_Systems/rnas/3SLQ

>  <Rbt.Executable>
rbdock ($Id: //depot/dev/client3/rdock/2013.1/src/exe/rbdock.cxx#4 $)

>  <Rbt.Library>
libRbt.so (2013.1, Build901 2013/11/27)

>  <Rbt.Parameter_File>
/export/apps/rDock/src/rDock_2013.1_src/data/scripts/dock_solv.prm

>  <Rbt.Receptor>
prm/pocket_docking_7.prm

>  <SCORE>
-11.6497

>  <SCORE.INTER>
-6.38453

>  <SCORE.INTER.CONST>
1

>  <SCORE.INTER.POLAR>
0

>  <SCORE.INTER.ROT>
4

>  <SCORE.INTER.SOLV>
9.45049

>  <SCORE.INTER.VDW>
-13.6732

>  <SCORE.INTER.norm>
-0.266022

>  <SCORE.INTRA>
-5.26827

>  <SCORE.INTRA.DIHEDRAL>
-10.1526

>  <SCORE.INTRA.DIHEDRAL.0>
13.2525

>  <SCORE.INTRA.POLAR>
0

>  <SCORE.INTRA.POLAR.0>
0

>  <SCORE.INTRA.REPUL>
0

>  <SCORE.INTRA.REPUL.0>
0

>  <SCORE.INTRA.SOLV>
-0.177105

>  <SCORE.INTRA.SOLV.lig_0>
-70.7221

>  <SCORE.INTRA.VDW>
-0.103393

>  <SCORE.INTRA.VDW.0>
-1.46337

>  <SCORE.INTRA.norm>
-0.219511

>  <SCORE.RESTR>
0.0030826

>  <SCORE.RESTR.CAVITY>
0.0030826

>  <SCORE.RESTR.norm>
0.000128442

>  <SCORE.SYSTEM>
0

>  <SCORE.SYSTEM.CONST>
0

>  <SCORE.SYSTEM.DIHEDRAL>
0

>  <SCORE.SYSTEM.SOLV>
0

>  <SCORE.SYSTEM.norm>
0

>  <SCORE.heavy>
24

>  <SCORE.norm>
-0.485405

>  <RMSD>
7.340

$$$$
ligand
 OpenBabel11021811483D
libRbt.so/2013.1/901 2013/11/27
 24 26  0  0  0  0  0  0  0  0999 V2000
   -6.1440   -2.4148   10.0134 P   0  0  1  0  0  0  0  0  0  0  0  0
   -6.3227   -2.3640   11.5157 O   0  0  0  0  0  0  0  0  0  0  0  0
   -7.3663   -2.1040    9.1820 O   0  5  0  0  0  0  0  0  0  0  0  0
   -4.8964   -1.7014    9.5140 O   0  0  0  0  0  0  0  0  0  0  0  0
   -7.0290   -4.9529    9.7162 C   0  0  0  0  0  0  0  0  0  0  0  0
   -5.9549   -3.9968    9.6992 O   0  0  0  0  0  0  0  0  0  0  0  0
   -6.4676   -6.3633    9.9196 C   0  0  1  0  0  0  0  0  0  0  0  0
   -5.8919   -6.5267   11.2219 O   0  0  0  0  0  0  0  0  0  0  0  0
   -7.4859   -7.4817    9.7780 C   0  0  1  0  0  0  0  0  0  0  0  0
   -7.5099   -7.9163    8.4152 O   0  0  0  0  0  0  0  0  0  0  0  0
   -6.9473   -8.5644   10.6988 C   0  0  1  0  0  0  0  0  0  0  0  0
   -5.9292   -9.3274   10.0356 O   0  0  0  0  0  0  0  0  0  0  0  0
   -6.2408   -7.7926   11.7956 C   0  0  2  0  0  0  0  0  0  0  0  0
   -7.0620   -8.8347   16.7247 N   0  0  0  0  0  0  0  0  0  0  0  0
   -6.1258   -9.3334   15.8854 C   0  0  1  0  0  0  0  0  0  0  0  0
   -5.2385  -10.2412   16.3513 N   0  0  0  0  0  0  0  0  0  0  0  0
   -6.0677   -8.9368   14.5925 N   0  0  0  0  0  0  0  0  0  0  0  0
   -6.9597   -8.0276   14.1317 C   0  0  1  0  0  0  0  0  0  0  0  0
   -7.9272   -7.5031   14.9660 C   0  0  2  0  0  0  0  0  0  0  0  0
   -7.9650   -7.9262   16.2895 C   0  0  0  0  0  0  0  0  0  0  0  0
   -8.8222   -7.4781   17.0764 O   0  0  0  0  0  0  0  0  0  0  0  0
   -8.6615   -6.6408   14.2338 N   0  0  0  0  0  0  0  0  0  0  0  0
   -8.1535   -6.6284   12.9793 C   0  0  0  0  0  0  0  0  0  0  0  0
   -7.1201   -7.4752   12.9363 N   0  0  1  0  0  0  0  0  0  0  0  0
  1  2  1  1  0  0  0
  1  3  1  0  0  0  0
  1  4  2  0  0  0  0
  1  6  1  0  0  0  0
  5  6  1  0  0  0  0
  7  5  1  1  0  0  0
  7  8  1  0  0  0  0
  7  9  1  0  0  0  0
  9 10  1  6  0  0  0
  9 11  1  0  0  0  0
 11 12  1  6  0  0  0
 11 13  1  0  0  0  0
 13  8  1  6  0  0  0
 13 24  1  0  0  0  0
 14 15  1  0  0  0  0
 14 20  1  0  0  0  0
 15 16  1  6  0  0  0
 15 17  1  0  0  0  0
 18 17  1  1  0  0  0
 18 19  1  0  0  0  0
 18 24  1  0  0  0  0
 19 20  1  6  0  0  0
 19 22  1  0  0  0  0
 20 21  2  0  0  0  0
 22 23  1  0  0  0  0
 24 23  1  1  0  0  0
M  CHG  1   3  -1
M  END
>  <CHROM.1>
74.83868626,67.04585914,-158.17521605,-133.19542170,-6.78461232,-6.37351332
12.17005767,0.77492890,1.43327419,-0.04330951

>  <Name>
ligand

>  <RI>
0

>  <Rbt.Current_Directory>
/home/itssahil/PROJECTS/Mol_Feturizer/New_Systems/rnas/3SLQ

>  <Rbt.Executable>
rbdock ($Id: //depot/dev/client3/rdock/2013.1/src/exe/rbdock.cxx#4 $)

>  <Rbt.Library>
libRbt.so (2013.1, Build901 2013/11/27)

>  <Rbt.Parameter_File>
/export/apps/rDock/src/rDock_2013.1_src/data/scripts/dock_solv.prm

>  <Rbt.Receptor>
prm/pocket_docking_3.prm

>  <SCORE>
-8.78238

>  <SCORE.INTER>
-3.82626

>  <SCORE.INTER.CONST>
1

>  <SCORE.INTER.POLAR>
0

>  <SCORE.INTER.ROT>
4

>  <SCORE.INTER.SOLV>
18.8063

>  <SCORE.INTER.VDW>
-15.0863

>  <SCORE.INTER.norm>
-0.159428

>  <SCORE.INTRA>
-4.96164

>  <SCORE.INTRA.DIHEDRAL>
-9.40845

>  <SCORE.INTRA.DIHEDRAL.0>
13.2525

>  <SCORE.INTRA.POLAR>
0

>  <SCORE.INTRA.POLAR.0>
0

>  <SCORE.INTRA.REPUL>
0

>  <SCORE.INTRA.REPUL.0>
0

>  <SCORE.INTRA.SOLV>
0.100993

>  <SCORE.INTRA.SOLV.lig_0>
-70.7221

>  <SCORE.INTRA.VDW>
-0.307912

>  <SCORE.INTRA.VDW.0>
-1.46337

>  <SCORE.INTRA.norm>
-0.206735

>  <SCORE.RESTR>
0.00552108

>  <SCORE.RESTR.CAVITY>
0.00552108

>  <SCORE.RESTR.norm>
0.000230045

>  <SCORE.SYSTEM>
0

>  <SCORE.SYSTEM.CONST>
0

>  <SCORE.SYSTEM.DIHEDRAL>
0

>  <SCORE.SYSTEM.SOLV>
0

>  <SCORE.SYSTEM.norm>
0

>  <SCORE.heavy>
24

>  <SCORE.norm>
-0.365933

>  <RMSD>
7.371

$$$$
ligand
 OpenBabel11021811483D
libRbt.so/2013.1/901 2013/11/27
 24 26  0  0  0  0  0  0  0  0999 V2000
   -9.2326   -9.1382   10.1020 P   0  0  1  0  0  0  0  0  0  0  0  0
   -8.6071  -10.4335    9.6304 O   0  0  0  0  0  0  0  0  0  0  0  0
   -9.5463   -8.1173    9.0337 O   0  5  0  0  0  0  0  0  0  0  0  0
  -10.3748   -9.3259   11.0893 O   0  0  0  0  0  0  0  0  0  0  0  0
   -6.7811   -8.0110   10.2843 C   0  0  0  0  0  0  0  0  0  0  0  0
   -8.0269   -8.3917   10.8935 O   0  0  0  0  0  0  0  0  0  0  0  0
   -5.8194   -7.4816   11.3523 C   0  0  1  0  0  0  0  0  0  0  0  0
   -6.3057   -6.2781   11.9599 O   0  0  0  0  0  0  0  0  0  0  0  0
   -5.5498   -8.4404   12.4995 C   0  0  1  0  0  0  0  0  0  0  0  0
   -4.4113   -9.2432   12.1741 O   0  0  0  0  0  0  0  0  0  0  0  0
   -5.2624   -7.5141   13.6698 C   0  0  1  0  0  0  0  0  0  0  0  0
   -3.8973   -7.0739   13.6389 O   0  0  0  0  0  0  0  0  0  0  0  0
   -6.1022   -6.2863   13.3783 C   0  0  2  0  0  0  0  0  0  0  0  0
   -8.9762   -8.9043   16.6863 N   0  0  0  0  0  0  0  0  0  0  0  0
   -7.6898   -9.1046   16.3196 C   0  0  1  0  0  0  0  0  0  0  0  0
   -6.9972  -10.1255   16.8732 N   0  0  0  0  0  0  0  0  0  0  0  0
   -7.0918   -8.3000   15.4101 N   0  0  0  0  0  0  0  0  0  0  0  0
   -7.7911   -7.2794   14.8585 C   0  0  1  0  0  0  0  0  0  0  0  0
   -9.1064   -7.0528   15.2132 C   0  0  2  0  0  0  0  0  0  0  0  0
   -9.6971   -7.8928   16.1500 C   0  0  0  0  0  0  0  0  0  0  0  0
  -10.8823   -7.7236   16.4983 O   0  0  0  0  0  0  0  0  0  0  0  0
   -9.5334   -5.9876   14.5048 N   0  0  0  0  0  0  0  0  0  0  0  0
   -8.5029   -5.5628   13.7370 C   0  0  0  0  0  0  0  0  0  0  0  0
   -7.4530   -6.3581   13.9660 N   0  0  1  0  0  0  0  0  0  0  0  0
  1  2  1  6  0  0  0
  1  3  1  0  0  0  0
  1  4  2  0  0  0  0
  1  6  1  0  0  0  0
  5  6  1  0  0  0  0
  7  5  1  6  0  0  0
  7  8  1  0  0  0  0
  7  9  1  0  0  0  0
  9 10  1  6  0  0  0
  9 11  1  0  0  0  0
 11 12  1  6  0  0  0
 11 13  1  0  0  0  0
 13  8  1  6  0  0  0
 13 24  1  0  0  0  0
 14 15  1  0  0  0  0
 14 20  1  0  0  0  0
 15 16  1  6  0  0  0
 15 17  1  0  0  0  0
 18 17  1  1  0  0  0
 18 19  1  0  0  0  0
 18 24  1  0  0  0  0
 19 20  1  6  0  0  0
 19 22  1  0  0  0  0
 20 21  2  0  0  0  0
 22 23  1  0  0  0  0
 24 23  1  1  0  0  0
M  CHG  1   3  -1
M  END
>  <CHROM.1>
60.51573428,-64.33128874,-173.42921901,127.16601529,-7.72821849,-8.01488631
13.06258436,1.55295277,-0.17079845,-1.71866196

>  <Name>
ligand

>  <RI>
0

>  <Rbt.Current_Directory>
/home/itssahil/PROJECTS/Mol_Feturizer/New_Systems/rnas/3SLQ

>  <Rbt.Executable>
rbdock ($Id: //depot/dev/client3/rdock/2013.1/src/exe/rbdock.cxx#4 $)

>  <Rbt.Library>
libRbt.so (2013.1, Build901 2013/11/27)

>  <Rbt.Parameter_File>
/export/apps/rDock/src/rDock_2013.1_src/data/scripts/dock_solv.prm

>  <Rbt.Receptor>
prm/pocket_docking_4.prm

>  <SCORE>
-11.5774

>  <SCORE.INTER>
-6.4366

>  <SCORE.INTER.CONST>
1

>  <SCORE.INTER.POLAR>
0

>  <SCORE.INTER.ROT>
4

>  <SCORE.INTER.SOLV>
8.67349

>  <SCORE.INTER.VDW>
-13.4489

>  <SCORE.INTER.norm>
-0.268192

>  <SCORE.INTRA>
-5.14352

>  <SCORE.INTRA.DIHEDRAL>
-11.7785

>  <SCORE.INTRA.DIHEDRAL.0>
13.2525

>  <SCORE.INTRA.POLAR>
0

>  <SCORE.INTRA.POLAR.0>
0

>  <SCORE.INTRA.REPUL>
0

>  <SCORE.INTRA.REPUL.0>
0

>  <SCORE.INTRA.SOLV>
0.215916

>  <SCORE.INTRA.SOLV.lig_0>
-70.7221

>  <SCORE.INTRA.VDW>
0.637777

>  <SCORE.INTRA.VDW.0>
-1.46337

>  <SCORE.INTRA.norm>
-0.214314

>  <SCORE.RESTR>
0.00273321

>  <SCORE.RESTR.CAVITY>
0.00273321

>  <SCORE.RESTR.norm>
0.000113884

>  <SCORE.SYSTEM>
0

>  <SCORE.SYSTEM.CONST>
0

>  <SCORE.SYSTEM.DIHEDRAL>
0

>  <SCORE.SYSTEM.SOLV>
0

>  <SCORE.SYSTEM.norm>
0

>  <SCORE.heavy>
24

>  <SCORE.norm>
-0.482391

>  <RMSD>
7.390

$$$$
ligand
 OpenBabel11021811483D
libRbt.so/2013.1/901 2013/11/27
 24 26  0  0  0  0  0  0  0  0999 V2000
   -7.7320   -9.9749   16.0356 P   0  0  1  0  0  0  0  0  0  0  0  0
   -6.6251   -9.2071   16.7261 O   0  0  0  0  0  0  0  0  0  0  0  0
   -7.9891  -11.3766   16.5367 O   0  5  0  0  0  0  0  0  0  0  0  0
   -9.0120   -9.1757   15.8419 O   0  0  0  0  0  0  0  0  0  0  0  0
   -5.8534  -10.9111   14.3302 C   0  0  0  0  0  0  0  0  0  0  0  0
   -7.1269  -10.2840   14.5606 O   0  0  0  0  0  0  0  0  0  0  0  0
   -5.6046  -11.0474   12.8251 C   0  0  1  0  0  0  0  0  0  0  0  0
   -6.5573  -11.9187   12.2027 O   0  0  0  0  0  0  0  0  0  0  0  0
   -5.6710   -9.7443   12.0471 C   0  0  1  0  0  0  0  0  0  0  0  0
   -4.3626   -9.1677   11.9971 O   0  0  0  0  0  0  0  0  0  0  0  0
   -6.1399  -10.1825   10.6693 C   0  0  1  0  0  0  0  0  0  0  0  0
   -5.0338  -10.6599    9.8903 O   0  0  0  0  0  0  0  0  0  0  0  0
   -7.0070  -11.3943   10.9472 C   0  0  2  0  0  0  0  0  0  0  0  0
  -11.0241   -9.1526    8.7349 N   0  0  0  0  0  0  0  0  0  0  0  0
   -9.7616   -9.3024    8.2733 C   0  0  1  0  0  0  0  0  0  0  0  0
   -9.4441   -8.8181    7.0513 N   0  0  0  0  0  0  0  0  0  0  0  0
   -8.8182   -9.9272    9.0161 N   0  0  0  0  0  0  0  0  0  0  0  0
   -9.1422  -10.4096   10.2396 C   0  0  1  0  0  0  0  0  0  0  0  0
  -10.4231  -10.2693   10.7365 C   0  0  2  0  0  0  0  0  0  0  0  0
  -11.3736   -9.6246    9.9537 C   0  0  0  0  0  0  0  0  0  0  0  0
  -12.5416   -9.4764   10.3643 O   0  0  0  0  0  0  0  0  0  0  0  0
  -10.4408  -10.8348   11.9608 N   0  0  0  0  0  0  0  0  0  0  0  0
   -9.2016  -11.3191   12.2095 C   0  0  0  0  0  0  0  0  0  0  0  0
   -8.4270  -11.0532   11.1529 N   0  0  1  0  0  0  0  0  0  0  0  0
  1  2  1  1  0  0  0
  1  3  1  0  0  0  0
  1  4  2  0  0  0  0
  1  6  1  0  0  0  0
  5  6  1  0  0  0  0
  7  5  1  1  0  0  0
  7  8  1  0  0  0  0
  7  9  1  0  0  0  0
  9 10  1  6  0  0  0
  9 11  1  0  0  0  0
 11 12  1  6  0  0  0
 11 13  1  0  0  0  0
 13  8  1  1  0  0  0
 13 24  1  0  0  0  0
 14 15  1  0  0  0  0
 14 20  1  0  0  0  0
 15 16  1  1  0  0  0
 15 17  1  0  0  0  0
 18 17  1  6  0  0  0
 18 19  1  0  0  0  0
 18 24  1  0  0  0  0
 19 20  1  1  0  0  0
 19 22  1  0  0  0  0
 20 21  2  0  0  0  0
 22 23  1  0  0  0  0
 24 23  1  6  0  0  0
M  CHG  1   3  -1
M  END
>  <CHROM.1>
52.86557548,-64.13328348,179.93357826,172.86589295,-8.05648221,-10.20048358
12.16758516,1.11415594,-0.11009937,1.59875194

>  <Name>
ligand

>  <RI>
0

>  <Rbt.Current_Directory>
/home/itssahil/PROJECTS/Mol_Feturizer/New_Systems/rnas/3SLQ

>  <Rbt.Executable>
rbdock ($Id: //depot/dev/client3/rdock/2013.1/src/exe/rbdock.cxx#4 $)

>  <Rbt.Library>
libRbt.so (2013.1, Build901 2013/11/27)

>  <Rbt.Parameter_File>
/export/apps/rDock/src/rDock_2013.1_src/data/scripts/dock_solv.prm

>  <Rbt.Receptor>
prm/pocket_docking_6.prm

>  <SCORE>
-14.7883

>  <SCORE.INTER>
-8.23349

>  <SCORE.INTER.CONST>
1

>  <SCORE.INTER.POLAR>
0

>  <SCORE.INTER.ROT>
4

>  <SCORE.INTER.SOLV>
10.9875

>  <SCORE.INTER.VDW>
-15.4182

>  <SCORE.INTER.norm>
-0.343062

>  <SCORE.INTRA>
-6.55481

>  <SCORE.INTRA.DIHEDRAL>
-11.9156

>  <SCORE.INTRA.DIHEDRAL.0>
13.2525

>  <SCORE.INTRA.POLAR>
0

>  <SCORE.INTRA.POLAR.0>
0

>  <SCORE.INTRA.REPUL>
0

>  <SCORE.INTRA.REPUL.0>
0

>  <SCORE.INTRA.SOLV>
-0.00826007

>  <SCORE.INTRA.SOLV.lig_0>
-70.7221

>  <SCORE.INTRA.VDW>
-0.592898

>  <SCORE.INTRA.VDW.0>
-1.46337

>  <SCORE.INTRA.norm>
-0.273117

>  <SCORE.RESTR>
0

>  <SCORE.RESTR.CAVITY>
0

>  <SCORE.RESTR.norm>
0

>  <SCORE.SYSTEM>
0

>  <SCORE.SYSTEM.CONST>
0

>  <SCORE.SYSTEM.DIHEDRAL>
0

>  <SCORE.SYSTEM.SOLV>
0

>  <SCORE.SYSTEM.norm>
0

>  <SCORE.heavy>
24

>  <SCORE.norm>
-0.61618

>  <RMSD>
7.422

$$$$
ligand
 OpenBabel11021811483D
libRbt.so/2013.1/901 2013/11/27
 24 26  0  0  0  0  0  0  0  0999 V2000
  -12.4657   -4.4455    7.9062 P   0  0  1  0  0  0  0  0  0  0  0  0
  -11.8589   -3.3944    7.0014 O   0  0  0  0  0  0  0  0  0  0  0  0
  -12.5139   -4.1150    9.3794 O   0  5  0  0  0  0  0  0  0  0  0  0
  -13.7743   -5.0253    7.3906 O   0  0  0  0  0  0  0  0  0  0  0  0
  -10.7767   -6.1811    6.7026 C   0  0  0  0  0  0  0  0  0  0  0  0
  -11.3693   -5.6434    7.8975 O   0  0  0  0  0  0  0  0  0  0  0  0
   -9.9071   -7.3924    7.0520 C   0  0  1  0  0  0  0  0  0  0  0  0
   -8.9397   -7.0819    8.0629 O   0  0  0  0  0  0  0  0  0  0  0  0
  -10.6716   -8.5977    7.5723 C   0  0  1  0  0  0  0  0  0  0  0  0
  -11.0234   -9.4352    6.4670 O   0  0  0  0  0  0  0  0  0  0  0  0
   -9.6696   -9.2783    8.4904 C   0  0  1  0  0  0  0  0  0  0  0  0
   -8.7715  -10.1011    7.7323 O   0  0  0  0  0  0  0  0  0  0  0  0
   -8.8326   -8.1350    9.0288 C   0  0  2  0  0  0  0  0  0  0  0  0
   -7.6348   -7.1577   13.8937 N   0  0  0  0  0  0  0  0  0  0  0  0
   -6.8917   -7.7424   12.9266 C   0  0  1  0  0  0  0  0  0  0  0  0
   -5.6345   -8.1482   13.2153 N   0  0  0  0  0  0  0  0  0  0  0  0
   -7.3891   -7.9252   11.6811 N   0  0  0  0  0  0  0  0  0  0  0  0
   -8.6493   -7.5171   11.3982 C   0  0  1  0  0  0  0  0  0  0  0  0
   -9.4310   -6.9188   12.3668 C   0  0  2  0  0  0  0  0  0  0  0  0
   -8.8965   -6.7418   13.6376 C   0  0  0  0  0  0  0  0  0  0  0  0
   -9.5681   -6.2062   14.5414 O   0  0  0  0  0  0  0  0  0  0  0  0
  -10.6202   -6.6313   11.7991 N   0  0  0  0  0  0  0  0  0  0  0  0
  -10.5698   -7.0361   10.5086 C   0  0  0  0  0  0  0  0  0  0  0  0
   -9.3653   -7.5701   10.2827 N   0  0  1  0  0  0  0  0  0  0  0  0
  1  2  1  6  0  0  0
  1  3  1  0  0  0  0
  1  4  2  0  0  0  0
  1  6  1  0  0  0  0
  5  6  1  0  0  0  0
  7  5  1  1  0  0  0
  7  8  1  0  0  0  0
  7  9  1  0  0  0  0
  9 10  1  6  0  0  0
  9 11  1  0  0  0  0
 11 12  1  6  0  0  0
 11 13  1  0  0  0  0
 13  8  1  6  0  0  0
 13 24  1  0  0  0  0
 14 15  1  0  0  0  0
 14 20  1  0  0  0  0
 15 16  1  1  0  0  0
 15 17  1  0  0  0  0
 18 17  1  6  0  0  0
 18 19  1  0  0  0  0
 18 24  1  0  0  0  0
 19 20  1  1  0  0  0
 19 22  1  0  0  0  0
 20 21  2  0  0  0  0
 22 23  1  0  0  0  0
 24 23  1  6  0  0  0
M  CHG  1   3  -1
M  END
>  <CHROM.1>
-48.35463384,-53.77451361,-173.87243579,-122.37330449,-10.00718615,-6.84607850
9.67515494,2.57723588,0.82904668,-2.09359027

>  <Name>
ligand

>  <RI>
0

>  <Rbt.Current_Directory>
/home/itssahil/PROJECTS/Mol_Feturizer/New_Systems/rnas/3SLQ

>  <Rbt.Executable>
rbdock ($Id: //depot/dev/client3/rdock/2013.1/src/exe/rbdock.cxx#4 $)

>  <Rbt.Library>
libRbt.so (2013.1, Build901 2013/11/27)

>  <Rbt.Parameter_File>
/export/apps/rDock/src/rDock_2013.1_src/data/scripts/dock_solv.prm

>  <Rbt.Receptor>
prm/pocket_docking_8.prm

>  <SCORE>
-12.4291

>  <SCORE.INTER>
-5.71414

>  <SCORE.INTER.CONST>
1

>  <SCORE.INTER.POLAR>
0

>  <SCORE.INTER.ROT>
4

>  <SCORE.INTER.SOLV>
13.1932

>  <SCORE.INTER.VDW>
-14.4738

>  <SCORE.INTER.norm>
-0.238089

>  <SCORE.INTRA>
-6.72058

>  <SCORE.INTRA.DIHEDRAL>
-11.5078

>  <SCORE.INTRA.DIHEDRAL.0>
13.2525

>  <SCORE.INTRA.POLAR>
0

>  <SCORE.INTRA.POLAR.0>
0

>  <SCORE.INTRA.REPUL>
0

>  <SCORE.INTRA.REPUL.0>
0

>  <SCORE.INTRA.SOLV>
0.105818

>  <SCORE.INTRA.SOLV.lig_0>
-70.7221

>  <SCORE.INTRA.VDW>
-1.01957

>  <SCORE.INTRA.VDW.0>
-1.46337

>  <SCORE.INTRA.norm>
-0.280024

>  <SCORE.RESTR>
0.00557915

>  <SCORE.RESTR.CAVITY>
0.00557915

>  <SCORE.RESTR.norm>
0.000232465

>  <SCORE.SYSTEM>
0

>  <SCORE.SYSTEM.CONST>
0

>  <SCORE.SYSTEM.DIHEDRAL>
0

>  <SCORE.SYSTEM.SOLV>
0

>  <SCORE.SYSTEM.norm>
0

>  <SCORE.heavy>
24

>  <SCORE.norm>
-0.517881

>  <RMSD>
7.432

$$$$
ligand
 OpenBabel11021811483D
libRbt.so/2013.1/901 2013/11/27
 24 26  0  0  0  0  0  0  0  0999 V2000
   -6.8838   -2.8173    9.7146 P   0  0  1  0  0  0  0  0  0  0  0  0
   -7.3859   -1.3908    9.7835 O   0  0  0  0  0  0  0  0  0  0  0  0
   -5.7844   -3.0935    8.7162 O   0  5  0  0  0  0  0  0  0  0  0  0
   -6.6147   -3.4450   11.0741 O   0  0  0  0  0  0  0  0  0  0  0  0
   -8.1045   -5.0459    8.7890 C   0  0  0  0  0  0  0  0  0  0  0  0
   -8.1185   -3.6303    9.0425 O   0  0  0  0  0  0  0  0  0  0  0  0
   -9.4252   -5.4719    8.1407 C   0  0  1  0  0  0  0  0  0  0  0  0
   -9.2474   -6.5711    7.2384 O   0  0  0  0  0  0  0  0  0  0  0  0
  -10.5020   -5.9127    9.1173 C   0  0  1  0  0  0  0  0  0  0  0  0
  -11.2911   -4.7761    9.4807 O   0  0  0  0  0  0  0  0  0  0  0  0
  -11.3109   -6.9194    8.3157 C   0  0  1  0  0  0  0  0  0  0  0  0
  -12.2624   -6.2470    7.4785 O   0  0  0  0  0  0  0  0  0  0  0  0
  -10.2951   -7.5390    7.3766 C   0  0  2  0  0  0  0  0  0  0  0  0
   -9.2589   -9.9406   11.7602 N   0  0  0  0  0  0  0  0  0  0  0  0
   -9.8955   -8.7651   11.5540 C   0  0  1  0  0  0  0  0  0  0  0  0
  -10.3590   -8.0705   12.6176 N   0  0  0  0  0  0  0  0  0  0  0  0
  -10.0723   -8.2790   10.3032 N   0  0  0  0  0  0  0  0  0  0  0  0
   -9.6051   -8.9791    9.2419 C   0  0  1  0  0  0  0  0  0  0  0  0
   -8.9500  -10.1813    9.4232 C   0  0  2  0  0  0  0  0  0  0  0  0
   -8.7821  -10.6590   10.7177 C   0  0  0  0  0  0  0  0  0  0  0  0
   -8.1964  -11.7398   10.9259 O   0  0  0  0  0  0  0  0  0  0  0  0
   -8.6015  -10.6345    8.2017 N   0  0  0  0  0  0  0  0  0  0  0  0
   -9.0383   -9.7362    7.2883 C   0  0  0  0  0  0  0  0  0  0  0  0
   -9.6465   -8.7387    7.9380 N   0  0  1  0  0  0  0  0  0  0  0  0
  1  2  1  1  0  0  0
  1  3  1  0  0  0  0
  1  4  2  0  0  0  0
  1  6  1  0  0  0  0
  5  6  1  0  0  0  0
  7  5  1  1  0  0  0
  7  8  1  0  0  0  0
  7  9  1  0  0  0  0
  9 10  1  6  0  0  0
  9 11  1  0  0  0  0
 11 12  1  6  0  0  0
 11 13  1  0  0  0  0
 13  8  1  1  0  0  0
 13 24  1  0  0  0  0
 14 15  1  0  0  0  0
 14 20  1  0  0  0  0
 15 16  1  1  0  0  0
 15 17  1  0  0  0  0
 18 17  1  6  0  0  0
 18 19  1  0  0  0  0
 18 24  1  0  0  0  0
 19 20  1  1  0  0  0
 19 22  1  0  0  0  0
 20 21  2  0  0  0  0
 22 23  1  0  0  0  0
 24 23  1  6  0  0  0
M  CHG  1   3  -1
M  END
>  <CHROM.1>
-179.28502869,148.03914967,-179.62089204,93.70994326,-9.00215193,-6.66946093
9.35919954,-1.17117824,0.76338517,2.80927868

>  <Name>
ligand

>  <RI>
0

>  <Rbt.Current_Directory>
/home/itssahil/PROJECTS/Mol_Feturizer/New_Systems/rnas/3SLQ

>  <Rbt.Executable>
rbdock ($Id: //depot/dev/client3/rdock/2013.1/src/exe/rbdock.cxx#4 $)

>  <Rbt.Library>
libRbt.so (2013.1, Build901 2013/11/27)

>  <Rbt.Parameter_File>
/export/apps/rDock/src/rDock_2013.1_src/data/scripts/dock_solv.prm

>  <Rbt.Receptor>
prm/pocket_docking_5.prm

>  <SCORE>
-15.1565

>  <SCORE.INTER>
-12.0507

>  <SCORE.INTER.CONST>
1

>  <SCORE.INTER.POLAR>
0

>  <SCORE.INTER.ROT>
4

>  <SCORE.INTER.SOLV>
21.0742

>  <SCORE.INTER.VDW>
-21.3252

>  <SCORE.INTER.norm>
-0.502112

>  <SCORE.INTRA>
-3.10576

>  <SCORE.INTRA.DIHEDRAL>
-9.11646

>  <SCORE.INTRA.DIHEDRAL.0>
13.2525

>  <SCORE.INTRA.POLAR>
0

>  <SCORE.INTRA.POLAR.0>
0

>  <SCORE.INTRA.REPUL>
0

>  <SCORE.INTRA.REPUL.0>
0

>  <SCORE.INTRA.SOLV>
1.14954

>  <SCORE.INTRA.SOLV.lig_0>
-70.7221

>  <SCORE.INTRA.VDW>
0.877701

>  <SCORE.INTRA.VDW.0>
-1.46337

>  <SCORE.INTRA.norm>
-0.129407

>  <SCORE.RESTR>
0

>  <SCORE.RESTR.CAVITY>
0

>  <SCORE.RESTR.norm>
0

>  <SCORE.SYSTEM>
0

>  <SCORE.SYSTEM.CONST>
0

>  <SCORE.SYSTEM.DIHEDRAL>
0

>  <SCORE.SYSTEM.SOLV>
0

>  <SCORE.SYSTEM.norm>
0

>  <SCORE.heavy>
24

>  <SCORE.norm>
-0.631519

>  <RMSD>
7.478

$$$$
ligand
 OpenBabel11021811483D
libRbt.so/2013.1/901 2013/11/27
 24 26  0  0  0  0  0  0  0  0999 V2000
  -11.0839   -9.6712   10.6894 P   0  0  1  0  0  0  0  0  0  0  0  0
  -11.8929  -10.8129   11.2670 O   0  0  0  0  0  0  0  0  0  0  0  0
  -11.5309   -9.1454    9.3457 O   0  5  0  0  0  0  0  0  0  0  0  0
  -10.7823   -8.5607   11.6846 O   0  0  0  0  0  0  0  0  0  0  0  0
   -8.8410  -11.0868   11.2177 C   0  0  0  0  0  0  0  0  0  0  0  0
   -9.6689  -10.3618   10.2919 O   0  0  0  0  0  0  0  0  0  0  0  0
   -7.5081  -11.4456   10.5539 C   0  0  1  0  0  0  0  0  0  0  0  0
   -6.7991  -10.2801   10.1147 O   0  0  0  0  0  0  0  0  0  0  0  0
   -6.5377  -12.2060   11.4416 C   0  0  1  0  0  0  0  0  0  0  0  0
   -6.7579  -13.6094   11.2726 O   0  0  0  0  0  0  0  0  0  0  0  0
   -5.1763  -11.7876   10.9109 C   0  0  1  0  0  0  0  0  0  0  0  0
   -4.8249  -12.5667    9.7586 O   0  0  0  0  0  0  0  0  0  0  0  0
   -5.3993  -10.3757   10.4064 C   0  0  2  0  0  0  0  0  0  0  0  0
   -2.8732   -9.4965   14.7540 N   0  0  0  0  0  0  0  0  0  0  0  0
   -2.9313  -10.6223   14.0066 C   0  0  1  0  0  0  0  0  0  0  0  0
   -2.2391  -11.7140   14.4034 N   0  0  0  0  0  0  0  0  0  0  0  0
   -3.6700  -10.6683   12.8733 N   0  0  0  0  0  0  0  0  0  0  0  0
   -4.3616   -9.5715   12.4814 C   0  0  1  0  0  0  0  0  0  0  0  0
   -4.3218   -8.4092   13.2262 C   0  0  2  0  0  0  0  0  0  0  0  0
   -3.5550   -8.3876   14.3853 C   0  0  0  0  0  0  0  0  0  0  0  0
   -3.4916   -7.3589   15.0870 O   0  0  0  0  0  0  0  0  0  0  0  0
   -5.1021   -7.5058   12.5987 N   0  0  0  0  0  0  0  0  0  0  0  0
   -5.6050   -8.0951   11.4889 C   0  0  0  0  0  0  0  0  0  0  0  0
   -5.1435   -9.3485   11.4333 N   0  0  1  0  0  0  0  0  0  0  0  0
  1  2  1  1  0  0  0
  1  3  1  0  0  0  0
  1  4  2  0  0  0  0
  1  6  1  0  0  0  0
  5  6  1  0  0  0  0
  7  5  1  1  0  0  0
  7  8  1  0  0  0  0
  7  9  1  0  0  0  0
  9 10  1  6  0  0  0
  9 11  1  0  0  0  0
 11 12  1  6  0  0  0
 11 13  1  0  0  0  0
 13  8  1  1  0  0  0
 13 24  1  0  0  0  0
 14 15  1  0  0  0  0
 14 20  1  0  0  0  0
 15 16  1  1  0  0  0
 15 17  1  0  0  0  0
 18 17  1  6  0  0  0
 18 19  1  0  0  0  0
 18 24  1  0  0  0  0
 19 20  1  1  0  0  0
 19 22  1  0  0  0  0
 20 21  2  0  0  0  0
 22 23  1  0  0  0  0
 24 23  1  6  0  0  0
M  CHG  1   3  -1
M  END
>  <CHROM.1>
-55.93273189,59.01513608,-172.86365411,138.08386056,-6.63320142,-10.13270611
11.78773203,2.90859915,0.33596892,-2.64962453

>  <Name>
ligand

>  <RI>
0

>  <Rbt.Current_Directory>
/home/itssahil/PROJECTS/Mol_Feturizer/New_Systems/rnas/3SLQ

>  <Rbt.Executable>
rbdock ($Id: //depot/dev/client3/rdock/2013.1/src/exe/rbdock.cxx#4 $)

>  <Rbt.Library>
libRbt.so (2013.1, Build901 2013/11/27)

>  <Rbt.Parameter_File>
/export/apps/rDock/src/rDock_2013.1_src/data/scripts/dock_solv.prm

>  <Rbt.Receptor>
prm/pocket_docking_7.prm

>  <SCORE>
-17.6299

>  <SCORE.INTER>
-12.3135

>  <SCORE.INTER.CONST>
1

>  <SCORE.INTER.POLAR>
0

>  <SCORE.INTER.ROT>
4

>  <SCORE.INTER.SOLV>
15.5396

>  <SCORE.INTER.VDW>
-19.6556

>  <SCORE.INTER.norm>
-0.513064

>  <SCORE.INTRA>
-5.31638

>  <SCORE.INTRA.DIHEDRAL>
-11.7874

>  <SCORE.INTRA.DIHEDRAL.0>
13.2525

>  <SCORE.INTRA.POLAR>
0

>  <SCORE.INTRA.POLAR.0>
0

>  <SCORE.INTRA.REPUL>
0

>  <SCORE.INTRA.REPUL.0>
0

>  <SCORE.INTRA.SOLV>
-0.0272431

>  <SCORE.INTRA.SOLV.lig_0>
-70.7221

>  <SCORE.INTRA.VDW>
0.590947

>  <SCORE.INTRA.VDW.0>
-1.46337

>  <SCORE.INTRA.norm>
-0.221516

>  <SCORE.RESTR>
0

>  <SCORE.RESTR.CAVITY>
0

>  <SCORE.RESTR.norm>
0

>  <SCORE.SYSTEM>
0

>  <SCORE.SYSTEM.CONST>
0

>  <SCORE.SYSTEM.DIHEDRAL>
0

>  <SCORE.SYSTEM.SOLV>
0

>  <SCORE.SYSTEM.norm>
0

>  <SCORE.heavy>
24

>  <SCORE.norm>
-0.73458

>  <RMSD>
7.536

$$$$
ligand
 OpenBabel11021811483D
libRbt.so/2013.1/901 2013/11/27
 24 26  0  0  0  0  0  0  0  0999 V2000
  -10.2467   -9.1892   10.6630 P   0  0  1  0  0  0  0  0  0  0  0  0
  -10.5572  -10.0739   11.8515 O   0  0  0  0  0  0  0  0  0  0  0  0
   -9.2685   -9.7419    9.6533 O   0  5  0  0  0  0  0  0  0  0  0  0
  -11.4759   -8.5713   10.0134 O   0  0  0  0  0  0  0  0  0  0  0  0
   -8.9558   -6.8150   10.5630 C   0  0  0  0  0  0  0  0  0  0  0  0
   -9.3753   -7.9762   11.3005 O   0  0  0  0  0  0  0  0  0  0  0  0
   -8.1312   -5.8938   11.4671 C   0  0  1  0  0  0  0  0  0  0  0  0
   -8.8281   -5.5684   12.6764 O   0  0  0  0  0  0  0  0  0  0  0  0
   -6.7922   -6.4618   11.9053 C   0  0  1  0  0  0  0  0  0  0  0  0
   -5.7928   -6.0759   10.9571 O   0  0  0  0  0  0  0  0  0  0  0  0
   -6.5598   -5.8075   13.2574 C   0  0  1  0  0  0  0  0  0  0  0  0
   -6.0138   -4.4911   13.0915 O   0  0  0  0  0  0  0  0  0  0  0  0
   -7.9565   -5.6117   13.8130 C   0  0  2  0  0  0  0  0  0  0  0  0
   -6.3452   -9.3972   16.8347 N   0  0  0  0  0  0  0  0  0  0  0  0
   -5.6278   -8.4558   16.1800 C   0  0  1  0  0  0  0  0  0  0  0  0
   -4.2811   -8.4499   16.3011 N   0  0  0  0  0  0  0  0  0  0  0  0
   -6.2388   -7.5258   15.4094 N   0  0  0  0  0  0  0  0  0  0  0  0
   -7.5882   -7.5373   15.2915 C   0  0  1  0  0  0  0  0  0  0  0  0
   -8.3454   -8.4878   15.9475 C   0  0  2  0  0  0  0  0  0  0  0  0
   -7.6938   -9.4313   16.7333 C   0  0  0  0  0  0  0  0  0  0  0  0
   -8.3394  -10.3071   17.3424 O   0  0  0  0  0  0  0  0  0  0  0  0
   -9.6370   -8.2526   15.6387 N   0  0  0  0  0  0  0  0  0  0  0  0
   -9.6755   -7.1773   14.8176 C   0  0  0  0  0  0  0  0  0  0  0  0
   -8.4226   -6.7555   14.6190 N   0  0  1  0  0  0  0  0  0  0  0  0
  1  2  1  1  0  0  0
  1  3  1  0  0  0  0
  1  4  2  0  0  0  0
  1  6  1  0  0  0  0
  5  6  1  0  0  0  0
  7  5  1  1  0  0  0
  7  8  1  0  0  0  0
  7  9  1  0  0  0  0
  9 10  1  6  0  0  0
  9 11  1  0  0  0  0
 11 12  1  6  0  0  0
 11 13  1  0  0  0  0
 13  8  1  6  0  0  0
 13 24  1  0  0  0  0
 14 15  1  0  0  0  0
 14 20  1  0  0  0  0
 15 16  1  6  0  0  0
 15 17  1  0  0  0  0
 18 17  1  1  0  0  0
 18 19  1  0  0  0  0
 18 24  1  0  0  0  0
 19 20  1  6  0  0  0
 19 22  1  0  0  0  0
 20 21  2  0  0  0  0
 22 23  1  0  0  0  0
 24 23  1  1  0  0  0
M  CHG  1   3  -1
M  END
>  <CHROM.1>
-173.95005447,-53.58244652,-178.87362001,144.22414189,-8.15808857,-7.75346559
13.33918225,2.28768401,-0.75361598,-1.02646712

>  <Name>
ligand

>  <RI>
0

>  <Rbt.Current_Directory>
/home/itssahil/PROJECTS/Mol_Feturizer/New_Systems/rnas/3SLQ

>  <Rbt.Executable>
rbdock ($Id: //depot/dev/client3/rdock/2013.1/src/exe/rbdock.cxx#4 $)

>  <Rbt.Library>
libRbt.so (2013.1, Build901 2013/11/27)

>  <Rbt.Parameter_File>
/export/apps/rDock/src/rDock_2013.1_src/data/scripts/dock_solv.prm

>  <Rbt.Receptor>
prm/pocket_docking_4.prm

>  <SCORE>
-9.37586

>  <SCORE.INTER>
-3.63702

>  <SCORE.INTER.CONST>
1

>  <SCORE.INTER.POLAR>
0

>  <SCORE.INTER.ROT>
4

>  <SCORE.INTER.SOLV>
15.8436

>  <SCORE.INTER.VDW>
-13.9725

>  <SCORE.INTER.norm>
-0.151543

>  <SCORE.INTRA>
-5.76496

>  <SCORE.INTRA.DIHEDRAL>
-11.8565

>  <SCORE.INTRA.DIHEDRAL.0>
13.2525

>  <SCORE.INTRA.POLAR>
0

>  <SCORE.INTRA.POLAR.0>
0

>  <SCORE.INTRA.REPUL>
0

>  <SCORE.INTRA.REPUL.0>
0

>  <SCORE.INTRA.SOLV>
0.583177

>  <SCORE.INTRA.SOLV.lig_0>
-70.7221

>  <SCORE.INTRA.VDW>
-0.128289

>  <SCORE.INTRA.VDW.0>
-1.46337

>  <SCORE.INTRA.norm>
-0.240207

>  <SCORE.RESTR>
0.0261187

>  <SCORE.RESTR.CAVITY>
0.0261187

>  <SCORE.RESTR.norm>
0.00108828

>  <SCORE.SYSTEM>
0

>  <SCORE.SYSTEM.CONST>
0

>  <SCORE.SYSTEM.DIHEDRAL>
0

>  <SCORE.SYSTEM.SOLV>
0

>  <SCORE.SYSTEM.norm>
0

>  <SCORE.heavy>
24

>  <SCORE.norm>
-0.390661

>  <RMSD>
7.537

$$$$
ligand
 OpenBabel11021811483D
libRbt.so/2013.1/901 2013/11/27
 24 26  0  0  0  0  0  0  0  0999 V2000
   -9.3849   -8.7061    7.3056 P   0  0  1  0  0  0  0  0  0  0  0  0
   -9.9543   -7.5129    6.5684 O   0  0  0  0  0  0  0  0  0  0  0  0
   -8.8025   -9.8069    6.4507 O   0  5  0  0  0  0  0  0  0  0  0  0
   -8.4907   -8.3387    8.4804 O   0  0  0  0  0  0  0  0  0  0  0  0
  -11.7744   -8.7650    8.5706 C   0  0  0  0  0  0  0  0  0  0  0  0
  -10.6960   -9.4496    7.9099 O   0  0  0  0  0  0  0  0  0  0  0  0
  -11.4350   -8.5649   10.0507 C   0  0  1  0  0  0  0  0  0  0  0  0
  -10.9096   -9.7587   10.6446 O   0  0  0  0  0  0  0  0  0  0  0  0
  -10.4069   -7.4816   10.3286 C   0  0  1  0  0  0  0  0  0  0  0  0
  -11.0868   -6.2397   10.5343 O   0  0  0  0  0  0  0  0  0  0  0  0
   -9.7270   -7.9620   11.6002 C   0  0  1  0  0  0  0  0  0  0  0  0
  -10.5035   -7.6029   12.7518 O   0  0  0  0  0  0  0  0  0  0  0  0
   -9.7992   -9.4731   11.5043 C   0  0  2  0  0  0  0  0  0  0  0  0
   -4.6953   -9.5479   11.5344 N   0  0  0  0  0  0  0  0  0  0  0  0
   -5.5488   -8.8404   12.3091 C   0  0  1  0  0  0  0  0  0  0  0  0
   -5.0498   -8.0152   13.2571 N   0  0  0  0  0  0  0  0  0  0  0  0
   -6.8884   -8.9479   12.1472 N   0  0  0  0  0  0  0  0  0  0  0  0
   -7.3821   -9.7757   11.1954 C   0  0  1  0  0  0  0  0  0  0  0  0
   -6.5338  -10.5088   10.3891 C   0  0  2  0  0  0  0  0  0  0  0  0
   -5.1624  -10.3811   10.5762 C   0  0  0  0  0  0  0  0  0  0  0  0
   -4.3613  -11.0246    9.8699 O   0  0  0  0  0  0  0  0  0  0  0  0
   -7.3044  -11.2258    9.5459 N   0  0  0  0  0  0  0  0  0  0  0  0
   -8.5978  -10.9469    9.8311 C   0  0  0  0  0  0  0  0  0  0  0  0
   -8.6257  -10.0659   10.8361 N   0  0  1  0  0  0  0  0  0  0  0  0
  1  2  1  6  0  0  0
  1  3  1  0  0  0  0
  1  4  2  0  0  0  0
  1  6  1  0  0  0  0
  5  6  1  0  0  0  0
  7  5  1  6  0  0  0
  7  8  1  0  0  0  0
  7  9  1  0  0  0  0
  9 10  1  1  0  0  0
  9 11  1  0  0  0  0
 11 12  1  1  0  0  0
 11 13  1  0  0  0  0
 13  8  1  6  0  0  0
 13 24  1  0  0  0  0
 14 15  1  0  0  0  0
 14 20  1  0  0  0  0
 15 16  1  6  0  0  0
 15 17  1  0  0  0  0
 18 17  1  1  0  0  0
 18 19  1  0  0  0  0
 18 24  1  0  0  0  0
 19 20  1  6  0  0  0
 19 22  1  0  0  0  0
 20 21  2  0  0  0  0
 22 23  1  0  0  0  0
 24 23  1  1  0  0  0
M  CHG  1   3  -1
M  END
>  <CHROM.1>
-45.29967871,-45.84244446,-84.92453754,166.13157863,-8.57757688,-9.06562429
9.96454946,-2.72883815,-0.39375584,1.29709644

>  <Name>
ligand

>  <RI>
0

>  <Rbt.Current_Directory>
/home/itssahil/PROJECTS/Mol_Feturizer/New_Systems/rnas/3SLQ

>  <Rbt.Executable>
rbdock ($Id: //depot/dev/client3/rdock/2013.1/src/exe/rbdock.cxx#4 $)

>  <Rbt.Library>
libRbt.so (2013.1, Build901 2013/11/27)

>  <Rbt.Parameter_File>
/export/apps/rDock/src/rDock_2013.1_src/data/scripts/dock_solv.prm

>  <Rbt.Receptor>
prm/pocket_docking_5.prm

>  <SCORE>
-14.3551

>  <SCORE.INTER>
-11.0471

>  <SCORE.INTER.CONST>
1

>  <SCORE.INTER.POLAR>
0

>  <SCORE.INTER.ROT>
4

>  <SCORE.INTER.SOLV>
17.3276

>  <SCORE.INTER.VDW>
-19.4073

>  <SCORE.INTER.norm>
-0.460296

>  <SCORE.INTRA>
-3.30795

>  <SCORE.INTRA.DIHEDRAL>
-8.37865

>  <SCORE.INTRA.DIHEDRAL.0>
13.2525

>  <SCORE.INTRA.POLAR>
0

>  <SCORE.INTRA.POLAR.0>
0

>  <SCORE.INTRA.REPUL>
0

>  <SCORE.INTRA.REPUL.0>
0

>  <SCORE.INTRA.SOLV>
6.35824

>  <SCORE.INTRA.SOLV.lig_0>
-70.7221

>  <SCORE.INTRA.VDW>
-2.29775

>  <SCORE.INTRA.VDW.0>
-1.46337

>  <SCORE.INTRA.norm>
-0.137831

>  <SCORE.RESTR>
0

>  <SCORE.RESTR.CAVITY>
0

>  <SCORE.RESTR.norm>
0

>  <SCORE.SYSTEM>
0

>  <SCORE.SYSTEM.CONST>
0

>  <SCORE.SYSTEM.DIHEDRAL>
0

>  <SCORE.SYSTEM.SOLV>
0

>  <SCORE.SYSTEM.norm>
0

>  <SCORE.heavy>
24

>  <SCORE.norm>
-0.598128

>  <RMSD>
7.544

$$$$
ligand
 OpenBabel11021811483D
libRbt.so/2013.1/901 2013/11/27
 24 26  0  0  0  0  0  0  0  0999 V2000
   -6.1096   -4.4516    9.3392 P   0  0  1  0  0  0  0  0  0  0  0  0
   -6.3825   -3.3358    8.3533 O   0  0  0  0  0  0  0  0  0  0  0  0
   -4.9239   -5.3376    9.0376 O   0  5  0  0  0  0  0  0  0  0  0  0
   -6.1632   -4.0171   10.7962 O   0  0  0  0  0  0  0  0  0  0  0  0
   -8.2697   -5.8792   10.1200 C   0  0  0  0  0  0  0  0  0  0  0  0
   -7.3354   -5.4892    9.0986 O   0  0  0  0  0  0  0  0  0  0  0  0
   -9.4466   -6.6302    9.4901 C   0  0  1  0  0  0  0  0  0  0  0  0
   -9.0781   -7.9529    9.0793 O   0  0  0  0  0  0  0  0  0  0  0  0
  -10.6521   -6.8035   10.3980 C   0  0  1  0  0  0  0  0  0  0  0  0
  -11.5351   -5.6933   10.2123 O   0  0  0  0  0  0  0  0  0  0  0  0
  -11.2762   -8.0999    9.9079 C   0  0  1  0  0  0  0  0  0  0  0  0
  -12.1016   -7.8577    8.7597 O   0  0  0  0  0  0  0  0  0  0  0  0
  -10.0948   -8.9076    9.4082 C   0  0  2  0  0  0  0  0  0  0  0  0
   -9.3125   -9.2688   14.4395 N   0  0  0  0  0  0  0  0  0  0  0  0
   -9.9105   -8.2836   13.7315 C   0  0  1  0  0  0  0  0  0  0  0  0
  -10.4036   -7.2074   14.3850 N   0  0  0  0  0  0  0  0  0  0  0  0
  -10.0198   -8.3621   12.3846 N   0  0  0  0  0  0  0  0  0  0  0  0
   -9.5234   -9.4424   11.7356 C   0  0  1  0  0  0  0  0  0  0  0  0
   -8.9064  -10.4622   12.4332 C   0  0  2  0  0  0  0  0  0  0  0  0
   -8.8077  -10.3580   13.8157 C   0  0  0  0  0  0  0  0  0  0  0  0
   -8.2583  -11.2560   14.4838 O   0  0  0  0  0  0  0  0  0  0  0  0
   -8.5153  -11.3844   11.5300 N   0  0  0  0  0  0  0  0  0  0  0  0
   -8.8893  -10.9466   10.3051 C   0  0  0  0  0  0  0  0  0  0  0  0
   -9.5011   -9.7669   10.4495 N   0  0  1  0  0  0  0  0  0  0  0  0
  1  2  1  6  0  0  0
  1  3  1  0  0  0  0
  1  4  2  0  0  0  0
  1  6  1  0  0  0  0
  5  6  1  0  0  0  0
  7  5  1  1  0  0  0
  7  8  1  0  0  0  0
  7  9  1  0  0  0  0
  9 10  1  6  0  0  0
  9 11  1  0  0  0  0
 11 12  1  6  0  0  0
 11 13  1  0  0  0  0
 13  8  1  1  0  0  0
 13 24  1  0  0  0  0
 14 15  1  0  0  0  0
 14 20  1  0  0  0  0
 15 16  1  6  0  0  0
 15 17  1  0  0  0  0
 18 17  1  1  0  0  0
 18 19  1  0  0  0  0
 18 24  1  0  0  0  0
 19 20  1  6  0  0  0
 19 22  1  0  0  0  0
 20 21  2  0  0  0  0
 22 23  1  0  0  0  0
 24 23  1  1  0  0  0
M  CHG  1   3  -1
M  END
>  <CHROM.1>
-120.77110501,73.54711135,168.46265016,85.05709590,-8.78291560,-7.51852163
10.83652892,-1.10361123,0.44113440,2.35008057

>  <Name>
ligand

>  <RI>
0

>  <Rbt.Current_Directory>
/home/itssahil/PROJECTS/Mol_Feturizer/New_Systems/rnas/3SLQ

>  <Rbt.Executable>
rbdock ($Id: //depot/dev/client3/rdock/2013.1/src/exe/rbdock.cxx#4 $)

>  <Rbt.Library>
libRbt.so (2013.1, Build901 2013/11/27)

>  <Rbt.Parameter_File>
/export/apps/rDock/src/rDock_2013.1_src/data/scripts/dock_solv.prm

>  <Rbt.Receptor>
prm/pocket_docking_4.prm

>  <SCORE>
-10.4999

>  <SCORE.INTER>
-7.84343

>  <SCORE.INTER.CONST>
1

>  <SCORE.INTER.POLAR>
0

>  <SCORE.INTER.ROT>
4

>  <SCORE.INTER.SOLV>
19.473

>  <SCORE.INTER.VDW>
-17.9866

>  <SCORE.INTER.norm>
-0.32681

>  <SCORE.INTRA>
-2.65643

>  <SCORE.INTRA.DIHEDRAL>
-8.3621

>  <SCORE.INTRA.DIHEDRAL.0>
13.2525

>  <SCORE.INTRA.POLAR>
0

>  <SCORE.INTRA.POLAR.0>
0

>  <SCORE.INTRA.REPUL>
0

>  <SCORE.INTRA.REPUL.0>
0

>  <SCORE.INTRA.SOLV>
0.982488

>  <SCORE.INTRA.SOLV.lig_0>
-70.7221

>  <SCORE.INTRA.VDW>
1.03338

>  <SCORE.INTRA.VDW.0>
-1.46337

>  <SCORE.INTRA.norm>
-0.110685

>  <SCORE.RESTR>
0

>  <SCORE.RESTR.CAVITY>
0

>  <SCORE.RESTR.norm>
0

>  <SCORE.SYSTEM>
0

>  <SCORE.SYSTEM.CONST>
0

>  <SCORE.SYSTEM.DIHEDRAL>
0

>  <SCORE.SYSTEM.SOLV>
0

>  <SCORE.SYSTEM.norm>
0

>  <SCORE.heavy>
24

>  <SCORE.norm>
-0.437494

>  <RMSD>
7.545

$$$$
ligand
 OpenBabel11021811483D
libRbt.so/2013.1/901 2013/11/27
 24 26  0  0  0  0  0  0  0  0999 V2000
   -9.2058  -10.1399   11.9484 P   0  0  1  0  0  0  0  0  0  0  0  0
   -8.5010  -10.4325   10.6410 O   0  0  0  0  0  0  0  0  0  0  0  0
  -10.7056   -9.9743   11.8790 O   0  5  0  0  0  0  0  0  0  0  0  0
   -8.7651  -11.0290   13.1016 O   0  0  0  0  0  0  0  0  0  0  0  0
   -9.1379   -7.4667   11.5442 C   0  0  0  0  0  0  0  0  0  0  0  0
   -8.7471   -8.6233   12.3044 O   0  0  0  0  0  0  0  0  0  0  0  0
   -8.4746   -6.2139   12.1240 C   0  0  1  0  0  0  0  0  0  0  0  0
   -8.7913   -6.0344   13.5102 O   0  0  0  0  0  0  0  0  0  0  0  0
   -6.9576   -6.2006   12.0447 C   0  0  1  0  0  0  0  0  0  0  0  0
   -6.5635   -5.5833   10.8158 O   0  0  0  0  0  0  0  0  0  0  0  0
   -6.5515   -5.3614   13.2452 C   0  0  1  0  0  0  0  0  0  0  0  0
   -6.6389   -3.9637   12.9340 O   0  0  0  0  0  0  0  0  0  0  0  0
   -7.6415   -5.6300   14.2638 C   0  0  2  0  0  0  0  0  0  0  0  0
   -9.7620   -8.9773   17.4818 N   0  0  0  0  0  0  0  0  0  0  0  0
  -10.3378   -7.9687   16.7884 C   0  0  1  0  0  0  0  0  0  0  0  0
  -11.6682   -7.7596   16.9105 N   0  0  0  0  0  0  0  0  0  0  0  0
   -9.6021   -7.1712   15.9792 N   0  0  0  0  0  0  0  0  0  0  0  0
   -8.2697   -7.3853   15.8617 C   0  0  1  0  0  0  0  0  0  0  0  0
   -7.6553   -8.4067   16.5592 C   0  0  2  0  0  0  0  0  0  0  0  0
   -8.4333   -9.2120   17.3827 C   0  0  0  0  0  0  0  0  0  0  0  0
   -7.9187  -10.1450   18.0303 O   0  0  0  0  0  0  0  0  0  0  0  0
   -6.3433   -8.3694   16.2491 N   0  0  0  0  0  0  0  0  0  0  0  0
   -6.1548   -7.3535   15.3748 C   0  0  0  0  0  0  0  0  0  0  0  0
   -7.3355   -6.7683   15.1502 N   0  0  1  0  0  0  0  0  0  0  0  0
  1  2  1  6  0  0  0
  1  3  1  0  0  0  0
  1  4  2  0  0  0  0
  1  6  1  0  0  0  0
  5  6  1  0  0  0  0
  7  5  1  1  0  0  0
  7  8  1  0  0  0  0
  7  9  1  0  0  0  0
  9 10  1  6  0  0  0
  9 11  1  0  0  0  0
 11 12  1  6  0  0  0
 11 13  1  0  0  0  0
 13  8  1  6  0  0  0
 13 24  1  0  0  0  0
 14 15  1  0  0  0  0
 14 20  1  0  0  0  0
 15 16  1  1  0  0  0
 15 17  1  0  0  0  0
 18 17  1  6  0  0  0
 18 19  1  0  0  0  0
 18 24  1  0  0  0  0
 19 20  1  1  0  0  0
 19 22  1  0  0  0  0
 20 21  2  0  0  0  0
 22 23  1  0  0  0  0
 24 23  1  6  0  0  0
M  CHG  1   3  -1
M  END
>  <CHROM.1>
67.55199389,-56.84229189,-177.44880964,-46.95651329,-8.39614036,-7.90436168
14.03885504,1.15277644,-1.08141086,-1.64317557

>  <Name>
ligand

>  <RI>
0

>  <Rbt.Current_Directory>
/home/itssahil/PROJECTS/Mol_Feturizer/New_Systems/rnas/3SLQ

>  <Rbt.Executable>
rbdock ($Id: //depot/dev/client3/rdock/2013.1/src/exe/rbdock.cxx#4 $)

>  <Rbt.Library>
libRbt.so (2013.1, Build901 2013/11/27)

>  <Rbt.Parameter_File>
/export/apps/rDock/src/rDock_2013.1_src/data/scripts/dock_solv.prm

>  <Rbt.Receptor>
prm/pocket_docking_7.prm

>  <SCORE>
-14.6272

>  <SCORE.INTER>
-8.1805

>  <SCORE.INTER.CONST>
1

>  <SCORE.INTER.POLAR>
0

>  <SCORE.INTER.ROT>
4

>  <SCORE.INTER.SOLV>
13.9975

>  <SCORE.INTER.VDW>
-16.3862

>  <SCORE.INTER.norm>
-0.340854

>  <SCORE.INTRA>
-6.44667

>  <SCORE.INTRA.DIHEDRAL>
-11.8767

>  <SCORE.INTRA.DIHEDRAL.0>
13.2525

>  <SCORE.INTRA.POLAR>
0

>  <SCORE.INTRA.POLAR.0>
0

>  <SCORE.INTRA.REPUL>
0

>  <SCORE.INTRA.REPUL.0>
0

>  <SCORE.INTRA.SOLV>
0.141935

>  <SCORE.INTRA.SOLV.lig_0>
-70.7221

>  <SCORE.INTRA.VDW>
-0.579311

>  <SCORE.INTRA.VDW.0>
-1.46337

>  <SCORE.INTRA.norm>
-0.268611

>  <SCORE.RESTR>
0

>  <SCORE.RESTR.CAVITY>
0

>  <SCORE.RESTR.norm>
0

>  <SCORE.SYSTEM>
0

>  <SCORE.SYSTEM.CONST>
0

>  <SCORE.SYSTEM.DIHEDRAL>
0

>  <SCORE.SYSTEM.SOLV>
0

>  <SCORE.SYSTEM.norm>
0

>  <SCORE.heavy>
24

>  <SCORE.norm>
-0.609466

>  <RMSD>
7.546

$$$$
ligand
 OpenBabel11021811483D
libRbt.so/2013.1/901 2013/11/27
 24 26  0  0  0  0  0  0  0  0999 V2000
   -6.5473   -3.0136   10.0614 P   0  0  1  0  0  0  0  0  0  0  0  0
   -7.7245   -3.5522    9.2767 O   0  0  0  0  0  0  0  0  0  0  0  0
   -5.1757   -3.4142    9.5717 O   0  5  0  0  0  0  0  0  0  0  0  0
   -6.6460   -1.5304   10.3854 O   0  0  0  0  0  0  0  0  0  0  0  0
   -6.4931   -5.2500   11.5811 C   0  0  0  0  0  0  0  0  0  0  0  0
   -6.6176   -3.8217   11.4683 O   0  0  0  0  0  0  0  0  0  0  0  0
   -6.3639   -5.6467   13.0548 C   0  0  1  0  0  0  0  0  0  0  0  0
   -7.5685   -5.3854   13.7861 O   0  0  0  0  0  0  0  0  0  0  0  0
   -6.0477   -7.1129   13.2953 C   0  0  1  0  0  0  0  0  0  0  0  0
   -4.6276   -7.2784   13.3450 O   0  0  0  0  0  0  0  0  0  0  0  0
   -6.6889   -7.3927   14.6447 C   0  0  1  0  0  0  0  0  0  0  0  0
   -5.8243   -6.9707   15.7090 O   0  0  0  0  0  0  0  0  0  0  0  0
   -7.8820   -6.4585   14.6826 C   0  0  2  0  0  0  0  0  0  0  0  0
   -9.5985   -9.8000   11.2265 N   0  0  0  0  0  0  0  0  0  0  0  0
   -8.3304   -9.4085   11.4873 C   0  0  1  0  0  0  0  0  0  0  0  0
   -7.3147   -9.9424   10.7717 N   0  0  0  0  0  0  0  0  0  0  0  0
   -8.0680   -8.4939   12.4499 N   0  0  0  0  0  0  0  0  0  0  0  0
   -9.0897   -7.9622   13.1629 C   0  0  1  0  0  0  0  0  0  0  0  0
  -10.3944   -8.3424   12.9167 C   0  0  2  0  0  0  0  0  0  0  0  0
  -10.6369   -9.2840   11.9234 C   0  0  0  0  0  0  0  0  0  0  0  0
  -11.7998   -9.6549   11.6688 O   0  0  0  0  0  0  0  0  0  0  0  0
  -11.1796   -7.6492   13.7664 N   0  0  0  0  0  0  0  0  0  0  0  0
  -10.3768   -6.8658   14.5238 C   0  0  0  0  0  0  0  0  0  0  0  0
   -9.1114   -7.0701   14.1444 N   0  0  1  0  0  0  0  0  0  0  0  0
  1  2  1  6  0  0  0
  1  3  1  0  0  0  0
  1  4  2  0  0  0  0
  1  6  1  0  0  0  0
  5  6  1  0  0  0  0
  7  5  1  6  0  0  0
  7  8  1  0  0  0  0
  7  9  1  0  0  0  0
  9 10  1  1  0  0  0
  9 11  1  0  0  0  0
 11 12  1  1  0  0  0
 11 13  1  0  0  0  0
 13  8  1  6  0  0  0
 13 24  1  0  0  0  0
 14 15  1  0  0  0  0
 14 20  1  0  0  0  0
 15 16  1  6  0  0  0
 15 17  1  0  0  0  0
 18 17  1  1  0  0  0
 18 19  1  0  0  0  0
 18 24  1  0  0  0  0
 19 20  1  6  0  0  0
 19 22  1  0  0  0  0
 20 21  2  0  0  0  0
 22 23  1  0  0  0  0
 24 23  1  1  0  0  0
M  CHG  1   3  -1
M  END
>  <CHROM.1>
61.98004116,67.03015419,170.27725836,82.62454731,-7.77524293,-6.42980041
12.28904189,0.88947313,-0.67270960,-0.86266130

>  <Name>
ligand

>  <RI>
0

>  <Rbt.Current_Directory>
/home/itssahil/PROJECTS/Mol_Feturizer/New_Systems/rnas/3SLQ

>  <Rbt.Executable>
rbdock ($Id: //depot/dev/client3/rdock/2013.1/src/exe/rbdock.cxx#4 $)

>  <Rbt.Library>
libRbt.so (2013.1, Build901 2013/11/27)

>  <Rbt.Parameter_File>
/export/apps/rDock/src/rDock_2013.1_src/data/scripts/dock_solv.prm

>  <Rbt.Receptor>
prm/pocket_docking_7.prm

>  <SCORE>
-14.6429

>  <SCORE.INTER>
-10.2212

>  <SCORE.INTER.CONST>
1

>  <SCORE.INTER.POLAR>
0

>  <SCORE.INTER.ROT>
4

>  <SCORE.INTER.SOLV>
17.933

>  <SCORE.INTER.VDW>
-19.0584

>  <SCORE.INTER.norm>
-0.425882

>  <SCORE.INTRA>
-4.4217

>  <SCORE.INTRA.DIHEDRAL>
-11.3931

>  <SCORE.INTRA.DIHEDRAL.0>
13.2525

>  <SCORE.INTRA.POLAR>
0

>  <SCORE.INTRA.POLAR.0>
0

>  <SCORE.INTRA.REPUL>
0

>  <SCORE.INTRA.REPUL.0>
0

>  <SCORE.INTRA.SOLV>
0.758234

>  <SCORE.INTRA.SOLV.lig_0>
-70.7221

>  <SCORE.INTRA.VDW>
0.895717

>  <SCORE.INTRA.VDW.0>
-1.46337

>  <SCORE.INTRA.norm>
-0.184237

>  <SCORE.RESTR>
0

>  <SCORE.RESTR.CAVITY>
0

>  <SCORE.RESTR.norm>
0

>  <SCORE.SYSTEM>
0

>  <SCORE.SYSTEM.CONST>
0

>  <SCORE.SYSTEM.DIHEDRAL>
0

>  <SCORE.SYSTEM.SOLV>
0

>  <SCORE.SYSTEM.norm>
0

>  <SCORE.heavy>
24

>  <SCORE.norm>
-0.610119

>  <RMSD>
7.551

$$$$
ligand
 OpenBabel11021811483D
libRbt.so/2013.1/901 2013/11/27
 24 26  0  0  0  0  0  0  0  0999 V2000
  -10.8214   -8.4559    9.4758 P   0  0  1  0  0  0  0  0  0  0  0  0
  -11.0289   -9.5736   10.4754 O   0  0  0  0  0  0  0  0  0  0  0  0
   -9.8856   -8.7493    8.3268 O   0  5  0  0  0  0  0  0  0  0  0  0
  -12.1083   -7.7793    9.0278 O   0  0  0  0  0  0  0  0  0  0  0  0
   -8.6581   -7.6096   10.8605 C   0  0  0  0  0  0  0  0  0  0  0  0
   -9.9577   -7.3549   10.2998 O   0  0  0  0  0  0  0  0  0  0  0  0
   -8.1472   -6.3581   11.5806 C   0  0  1  0  0  0  0  0  0  0  0  0
   -9.0238   -5.9565   12.6410 O   0  0  0  0  0  0  0  0  0  0  0  0
   -6.7748   -6.5031   12.2156 C   0  0  1  0  0  0  0  0  0  0  0  0
   -5.7811   -6.1050   11.2664 O   0  0  0  0  0  0  0  0  0  0  0  0
   -6.8323   -5.5474   13.3960 C   0  0  1  0  0  0  0  0  0  0  0  0
   -6.5585   -4.2051   12.9698 O   0  0  0  0  0  0  0  0  0  0  0  0
   -8.2910   -5.5638   13.8082 C   0  0  2  0  0  0  0  0  0  0  0  0
   -6.1235   -8.9577   16.9450 N   0  0  0  0  0  0  0  0  0  0  0  0
   -5.5453   -8.1153   16.0587 C   0  0  1  0  0  0  0  0  0  0  0  0
   -4.1988   -8.1108   15.9346 N   0  0  0  0  0  0  0  0  0  0  0  0
   -6.2945   -7.2823   15.2991 N   0  0  0  0  0  0  0  0  0  0  0  0
   -7.6429   -7.2920   15.4276 C   0  0  1  0  0  0  0  0  0  0  0  0
   -8.2600   -8.1429   16.3234 C   0  0  2  0  0  0  0  0  0  0  0  0
   -7.4680   -8.9878   17.0922 C   0  0  0  0  0  0  0  0  0  0  0  0
   -7.9844   -9.7718   17.9128 O   0  0  0  0  0  0  0  0  0  0  0  0
   -9.5884   -7.9326   16.2240 N   0  0  0  0  0  0  0  0  0  0  0  0
   -9.7851   -6.9690   15.2941 C   0  0  0  0  0  0  0  0  0  0  0  0
   -8.5927   -6.5910   14.8225 N   0  0  1  0  0  0  0  0  0  0  0  0
  1  2  1  1  0  0  0
  1  3  1  0  0  0  0
  1  4  2  0  0  0  0
  1  6  1  0  0  0  0
  5  6  1  0  0  0  0
  7  5  1  1  0  0  0
  7  8  1  0  0  0  0
  7  9  1  0  0  0  0
  9 10  1  6  0  0  0
  9 11  1  0  0  0  0
 11 12  1  6  0  0  0
 11 13  1  0  0  0  0
 13  8  1  6  0  0  0
 13 24  1  0  0  0  0
 14 15  1  0  0  0  0
 14 20  1  0  0  0  0
 15 16  1  6  0  0  0
 15 17  1  0  0  0  0
 18 17  1  1  0  0  0
 18 19  1  0  0  0  0
 18 24  1  0  0  0  0
 19 20  1  6  0  0  0
 19 22  1  0  0  0  0
 20 21  2  0  0  0  0
 22 23  1  0  0  0  0
 24 23  1  1  0  0  0
M  CHG  1   3  -1
M  END
>  <CHROM.1>
60.43864339,59.67216822,-179.34334349,123.63600237,-8.32649002,-7.46609616
13.14727336,2.20227298,-0.63528856,-1.16808317

>  <Name>
ligand

>  <RI>
0

>  <Rbt.Current_Directory>
/home/itssahil/PROJECTS/Mol_Feturizer/New_Systems/rnas/3SLQ

>  <Rbt.Executable>
rbdock ($Id: //depot/dev/client3/rdock/2013.1/src/exe/rbdock.cxx#4 $)

>  <Rbt.Library>
libRbt.so (2013.1, Build901 2013/11/27)

>  <Rbt.Parameter_File>
/export/apps/rDock/src/rDock_2013.1_src/data/scripts/dock_solv.prm

>  <Rbt.Receptor>
prm/pocket_docking_4.prm

>  <SCORE>
-10.7611

>  <SCORE.INTER>
-5.88673

>  <SCORE.INTER.CONST>
1

>  <SCORE.INTER.POLAR>
0

>  <SCORE.INTER.ROT>
4

>  <SCORE.INTER.SOLV>
15.7687

>  <SCORE.INTER.VDW>
-15.4474

>  <SCORE.INTER.norm>
-0.24528

>  <SCORE.INTRA>
-4.87442

>  <SCORE.INTRA.DIHEDRAL>
-12.0516

>  <SCORE.INTRA.DIHEDRAL.0>
13.2525

>  <SCORE.INTRA.POLAR>
0

>  <SCORE.INTRA.POLAR.0>
0

>  <SCORE.INTRA.REPUL>
0

>  <SCORE.INTRA.REPUL.0>
0

>  <SCORE.INTRA.SOLV>
0.146905

>  <SCORE.INTRA.SOLV.lig_0>
-70.7221

>  <SCORE.INTRA.VDW>
1.07794

>  <SCORE.INTRA.VDW.0>
-1.46337

>  <SCORE.INTRA.norm>
-0.203101

>  <SCORE.RESTR>
3.95836e-06

>  <SCORE.RESTR.CAVITY>
3.95836e-06

>  <SCORE.RESTR.norm>
1.64932e-07

>  <SCORE.SYSTEM>
0

>  <SCORE.SYSTEM.CONST>
0

>  <SCORE.SYSTEM.DIHEDRAL>
0

>  <SCORE.SYSTEM.SOLV>
0

>  <SCORE.SYSTEM.norm>
0

>  <SCORE.heavy>
24

>  <SCORE.norm>
-0.448381

>  <RMSD>
7.669

$$$$
ligand
 OpenBabel11021811483D
libRbt.so/2013.1/901 2013/11/27
 24 26  0  0  0  0  0  0  0  0999 V2000
   -7.7638   -6.9156   13.1095 P   0  0  1  0  0  0  0  0  0  0  0  0
   -6.9856   -6.2861   14.2451 O   0  0  0  0  0  0  0  0  0  0  0  0
   -9.2495   -6.6437   13.0834 O   0  5  0  0  0  0  0  0  0  0  0  0
   -7.1116   -6.7490   11.7452 O   0  0  0  0  0  0  0  0  0  0  0  0
   -8.2144   -9.0507   14.7069 C   0  0  0  0  0  0  0  0  0  0  0  0
   -7.7494   -8.5007   13.4622 O   0  0  0  0  0  0  0  0  0  0  0  0
   -8.0425  -10.5726   14.7003 C   0  0  1  0  0  0  0  0  0  0  0  0
   -8.8257  -11.1944   13.6736 O   0  0  0  0  0  0  0  0  0  0  0  0
   -6.6186  -11.0528   14.4777 C   0  0  1  0  0  0  0  0  0  0  0  0
   -5.9748  -11.1974   15.7471 O   0  0  0  0  0  0  0  0  0  0  0  0
   -6.8053  -12.3960   13.7913 C   0  0  1  0  0  0  0  0  0  0  0  0
   -7.0632  -13.4233   14.7590 O   0  0  0  0  0  0  0  0  0  0  0  0
   -8.0922  -12.2299   13.0078 C   0  0  2  0  0  0  0  0  0  0  0  0
  -10.2493   -9.5172    9.2601 N   0  0  0  0  0  0  0  0  0  0  0  0
  -10.7396   -9.8407   10.4785 C   0  0  1  0  0  0  0  0  0  0  0  0
  -11.9736   -9.4125   10.8281 N   0  0  0  0  0  0  0  0  0  0  0  0
  -10.0137  -10.5840   11.3462 N   0  0  0  0  0  0  0  0  0  0  0  0
   -8.7784  -11.0105   10.9900 C   0  0  1  0  0  0  0  0  0  0  0  0
   -8.2536  -10.6964    9.7518 C   0  0  2  0  0  0  0  0  0  0  0  0
   -9.0189   -9.9312    8.8794 C   0  0  0  0  0  0  0  0  0  0  0  0
   -8.5831   -9.6252    7.7520 O   0  0  0  0  0  0  0  0  0  0  0  0
   -7.0287  -11.2564    9.6833 N   0  0  0  0  0  0  0  0  0  0  0  0
   -6.8007  -11.8944   10.8550 C   0  0  0  0  0  0  0  0  0  0  0  0
   -7.8732  -11.7331   11.6365 N   0  0  1  0  0  0  0  0  0  0  0  0
  1  2  1  1  0  0  0
  1  3  1  0  0  0  0
  1  4  2  0  0  0  0
  1  6  1  0  0  0  0
  5  6  1  0  0  0  0
  7  5  1  6  0  0  0
  7  8  1  0  0  0  0
  7  9  1  0  0  0  0
  9 10  1  1  0  0  0
  9 11  1  0  0  0  0
 11 12  1  1  0  0  0
 11 13  1  0  0  0  0
 13  8  1  1  0  0  0
 13 24  1  0  0  0  0
 14 15  1  0  0  0  0
 14 20  1  0  0  0  0
 15 16  1  6  0  0  0
 15 17  1  0  0  0  0
 18 17  1  1  0  0  0
 18 19  1  0  0  0  0
 18 24  1  0  0  0  0
 19 20  1  6  0  0  0
 19 22  1  0  0  0  0
 20 21  2  0  0  0  0
 22 23  1  0  0  0  0
 24 23  1  1  0  0  0
M  CHG  1   3  -1
M  END
>  <CHROM.1>
55.42608782,-62.40089299,-179.50758195,-36.10383847,-8.19066161,-9.84804211
12.28588861,0.11959117,-1.14137893,0.28313056

>  <Name>
ligand

>  <RI>
0

>  <Rbt.Current_Directory>
/home/itssahil/PROJECTS/Mol_Feturizer/New_Systems/rnas/3SLQ

>  <Rbt.Executable>
rbdock ($Id: //depot/dev/client3/rdock/2013.1/src/exe/rbdock.cxx#4 $)

>  <Rbt.Library>
libRbt.so (2013.1, Build901 2013/11/27)

>  <Rbt.Parameter_File>
/export/apps/rDock/src/rDock_2013.1_src/data/scripts/dock_solv.prm

>  <Rbt.Receptor>
prm/pocket_docking_6.prm

>  <SCORE>
-12.8221

>  <SCORE.INTER>
-6.2067

>  <SCORE.INTER.CONST>
1

>  <SCORE.INTER.POLAR>
0

>  <SCORE.INTER.ROT>
4

>  <SCORE.INTER.SOLV>
13.7476

>  <SCORE.INTER.VDW>
-14.987

>  <SCORE.INTER.norm>
-0.258612

>  <SCORE.INTRA>
-6.61536

>  <SCORE.INTRA.DIHEDRAL>
-11.9762

>  <SCORE.INTRA.DIHEDRAL.0>
13.2525

>  <SCORE.INTRA.POLAR>
0

>  <SCORE.INTRA.POLAR.0>
0

>  <SCORE.INTRA.REPUL>
0

>  <SCORE.INTRA.REPUL.0>
0

>  <SCORE.INTRA.SOLV>
0.0775828

>  <SCORE.INTRA.SOLV.lig_0>
-70.7221

>  <SCORE.INTRA.VDW>
-0.666037

>  <SCORE.INTRA.VDW.0>
-1.46337

>  <SCORE.INTRA.norm>
-0.27564

>  <SCORE.RESTR>
0

>  <SCORE.RESTR.CAVITY>
0

>  <SCORE.RESTR.norm>
0

>  <SCORE.SYSTEM>
0

>  <SCORE.SYSTEM.CONST>
0

>  <SCORE.SYSTEM.DIHEDRAL>
0

>  <SCORE.SYSTEM.SOLV>
0

>  <SCORE.SYSTEM.norm>
0

>  <SCORE.heavy>
24

>  <SCORE.norm>
-0.534252

>  <RMSD>
7.669

$$$$
ligand
 OpenBabel11021811483D
libRbt.so/2013.1/901 2013/11/27
 24 26  0  0  0  0  0  0  0  0999 V2000
  -12.5704   -7.3597   15.6427 P   0  0  1  0  0  0  0  0  0  0  0  0
  -13.7106   -6.9528   14.7339 O   0  0  0  0  0  0  0  0  0  0  0  0
  -11.9614   -6.2642   16.4857 O   0  5  0  0  0  0  0  0  0  0  0  0
  -12.8333   -8.6326   16.4334 O   0  0  0  0  0  0  0  0  0  0  0  0
  -10.0482   -8.1201   15.0314 C   0  0  0  0  0  0  0  0  0  0  0  0
  -11.3501   -7.6706   14.6174 O   0  0  0  0  0  0  0  0  0  0  0  0
   -9.0858   -8.0959   13.8402 C   0  0  1  0  0  0  0  0  0  0  0  0
   -9.0820   -9.3412   13.1308 O   0  0  0  0  0  0  0  0  0  0  0  0
   -9.3863   -7.0314   12.7988 C   0  0  1  0  0  0  0  0  0  0  0  0
   -8.6676   -5.8405   13.1332 O   0  0  0  0  0  0  0  0  0  0  0  0
   -8.8723   -7.6488   11.5085 C   0  0  1  0  0  0  0  0  0  0  0  0
   -7.4564   -7.4523   11.3865 O   0  0  0  0  0  0  0  0  0  0  0  0
   -9.0698   -9.1379   11.7124 C   0  0  2  0  0  0  0  0  0  0  0  0
  -12.8137   -8.1462    8.3872 N   0  0  0  0  0  0  0  0  0  0  0  0
  -11.6668   -7.4672    8.6175 C   0  0  1  0  0  0  0  0  0  0  0  0
  -11.4017   -6.3557    7.8944 N   0  0  0  0  0  0  0  0  0  0  0  0
  -10.7872   -7.8848    9.5577 N   0  0  0  0  0  0  0  0  0  0  0  0
  -11.0588   -8.9986   10.2792 C   0  0  1  0  0  0  0  0  0  0  0  0
  -12.2229   -9.7104   10.0663 C   0  0  2  0  0  0  0  0  0  0  0  0
  -13.1092   -9.2611    9.0944 C   0  0  0  0  0  0  0  0  0  0  0  0
  -14.1718   -9.8739    8.8702 O   0  0  0  0  0  0  0  0  0  0  0  0
  -12.2179  -10.7505   10.9248 N   0  0  0  0  0  0  0  0  0  0  0  0
  -11.0736  -10.6856   11.6448 C   0  0  0  0  0  0  0  0  0  0  0  0
  -10.3817   -9.6165   11.2381 N   0  0  1  0  0  0  0  0  0  0  0  0
  1  2  1  6  0  0  0
  1  3  1  0  0  0  0
  1  4  2  0  0  0  0
  1  6  1  0  0  0  0
  5  6  1  0  0  0  0
  7  5  1  1  0  0  0
  7  8  1  0  0  0  0
  7  9  1  0  0  0  0
  9 10  1  1  0  0  0
  9 11  1  0  0  0  0
 11 12  1  1  0  0  0
 11 13  1  0  0  0  0
 13  8  1  1  0  0  0
 13 24  1  0  0  0  0
 14 15  1  0  0  0  0
 14 20  1  0  0  0  0
 15 16  1  1  0  0  0
 15 17  1  0  0  0  0
 18 17  1  6  0  0  0
 18 19  1  0  0  0  0
 18 24  1  0  0  0  0
 19 20  1  1  0  0  0
 19 22  1  0  0  0  0
 20 21  2  0  0  0  0
 22 23  1  0  0  0  0
 24 23  1  6  0  0  0
M  CHG  1   3  -1
M  END
>  <CHROM.1>
-178.91345721,-90.30546699,-170.91328868,141.29077890,-11.11919923,-8.17257822
12.26040205,1.52493627,0.22523010,1.37805997

>  <Name>
ligand

>  <RI>
0

>  <Rbt.Current_Directory>
/home/itssahil/PROJECTS/Mol_Feturizer/New_Systems/rnas/3SLQ

>  <Rbt.Executable>
rbdock ($Id: //depot/dev/client3/rdock/2013.1/src/exe/rbdock.cxx#4 $)

>  <Rbt.Library>
libRbt.so (2013.1, Build901 2013/11/27)

>  <Rbt.Parameter_File>
/export/apps/rDock/src/rDock_2013.1_src/data/scripts/dock_solv.prm

>  <Rbt.Receptor>
prm/pocket_docking_7.prm

>  <SCORE>
-15.8428

>  <SCORE.INTER>
-12.3921

>  <SCORE.INTER.CONST>
1

>  <SCORE.INTER.POLAR>
0

>  <SCORE.INTER.ROT>
4

>  <SCORE.INTER.SOLV>
12.0386

>  <SCORE.INTER.VDW>
-18.5409

>  <SCORE.INTER.norm>
-0.516336

>  <SCORE.INTRA>
-3.45225

>  <SCORE.INTRA.DIHEDRAL>
-8.98278

>  <SCORE.INTRA.DIHEDRAL.0>
13.2525

>  <SCORE.INTRA.POLAR>
0

>  <SCORE.INTRA.POLAR.0>
0

>  <SCORE.INTRA.REPUL>
0

>  <SCORE.INTRA.REPUL.0>
0

>  <SCORE.INTRA.SOLV>
0.785727

>  <SCORE.INTRA.SOLV.lig_0>
-70.7221

>  <SCORE.INTRA.VDW>
0.646276

>  <SCORE.INTRA.VDW.0>
-1.46337

>  <SCORE.INTRA.norm>
-0.143844

>  <SCORE.RESTR>
0.00152004

>  <SCORE.RESTR.CAVITY>
0.00152004

>  <SCORE.RESTR.norm>
6.33348e-05

>  <SCORE.SYSTEM>
0

>  <SCORE.SYSTEM.CONST>
0

>  <SCORE.SYSTEM.DIHEDRAL>
0

>  <SCORE.SYSTEM.SOLV>
0

>  <SCORE.SYSTEM.norm>
0

>  <SCORE.heavy>
24

>  <SCORE.norm>
-0.660116

>  <RMSD>
7.692

$$$$
ligand
 OpenBabel11021811483D
libRbt.so/2013.1/901 2013/11/27
 24 26  0  0  0  0  0  0  0  0999 V2000
  -11.9577   -5.7937   16.2535 P   0  0  1  0  0  0  0  0  0  0  0  0
  -11.6142   -4.3227   16.3518 O   0  0  0  0  0  0  0  0  0  0  0  0
  -11.5898   -6.6490   17.4430 O   0  5  0  0  0  0  0  0  0  0  0  0
  -13.3651   -6.0680   15.7450 O   0  0  0  0  0  0  0  0  0  0  0  0
  -11.0446   -7.6461   14.5074 C   0  0  0  0  0  0  0  0  0  0  0  0
  -10.9217   -6.3595   15.1382 O   0  0  0  0  0  0  0  0  0  0  0  0
   -9.8072   -7.9256   13.6492 C   0  0  1  0  0  0  0  0  0  0  0  0
   -9.8797   -9.2053   13.0080 O   0  0  0  0  0  0  0  0  0  0  0  0
   -9.5635   -6.9218   12.5353 C   0  0  1  0  0  0  0  0  0  0  0  0
   -8.7230   -5.8754   13.0307 O   0  0  0  0  0  0  0  0  0  0  0  0
   -8.8587   -7.7453   11.4698 C   0  0  1  0  0  0  0  0  0  0  0  0
   -7.4580   -7.8512   11.7612 O   0  0  0  0  0  0  0  0  0  0  0  0
   -9.4277   -9.1388   11.6497 C   0  0  2  0  0  0  0  0  0  0  0  0
  -11.1255   -9.2087    6.8363 N   0  0  0  0  0  0  0  0  0  0  0  0
   -9.8950   -8.9058    7.3091 C   0  0  1  0  0  0  0  0  0  0  0  0
   -8.9179   -8.5686    6.4373 N   0  0  0  0  0  0  0  0  0  0  0  0
   -9.6323   -8.9358    8.6366 N   0  0  0  0  0  0  0  0  0  0  0  0
  -10.6155   -9.2738    9.5049 C   0  0  1  0  0  0  0  0  0  0  0  0
  -11.8815   -9.5861    9.0501 C   0  0  2  0  0  0  0  0  0  0  0  0
  -12.1252   -9.5487    7.6822 C   0  0  0  0  0  0  0  0  0  0  0  0
  -13.2539   -9.8234    7.2293 O   0  0  0  0  0  0  0  0  0  0  0  0
  -12.6353   -9.8715   10.1314 N   0  0  0  0  0  0  0  0  0  0  0  0
  -11.8501   -9.7453   11.2266 C   0  0  0  0  0  0  0  0  0  0  0  0
  -10.6269   -9.3834   10.8269 N   0  0  1  0  0  0  0  0  0  0  0  0
  1  2  1  1  0  0  0
  1  3  1  0  0  0  0
  1  4  2  0  0  0  0
  1  6  1  0  0  0  0
  5  6  1  0  0  0  0
  7  5  1  6  0  0  0
  7  8  1  0  0  0  0
  7  9  1  0  0  0  0
  9 10  1  1  0  0  0
  9 11  1  0  0  0  0
 11 12  1  1  0  0  0
 11 13  1  0  0  0  0
 13  8  1  1  0  0  0
 13 24  1  0  0  0  0
 14 15  1  0  0  0  0
 14 20  1  0  0  0  0
 15 16  1  1  0  0  0
 15 17  1  0  0  0  0
 18 17  1  6  0  0  0
 18 19  1  0  0  0  0
 18 24  1  0  0  0  0
 19 20  1  1  0  0  0
 19 22  1  0  0  0  0
 20 21  2  0  0  0  0
 22 23  1  0  0  0  0
 24 23  1  6  0  0  0
M  CHG  1   3  -1
M  END
>  <CHROM.1>
-166.71335405,179.50712818,-172.76723434,173.57830709,-10.76387971,-7.90444430
11.94467642,1.64255130,0.17418827,1.16500530

>  <Name>
ligand

>  <RI>
0

>  <Rbt.Current_Directory>
/home/itssahil/PROJECTS/Mol_Feturizer/New_Systems/rnas/3SLQ

>  <Rbt.Executable>
rbdock ($Id: //depot/dev/client3/rdock/2013.1/src/exe/rbdock.cxx#4 $)

>  <Rbt.Library>
libRbt.so (2013.1, Build901 2013/11/27)

>  <Rbt.Parameter_File>
/export/apps/rDock/src/rDock_2013.1_src/data/scripts/dock_solv.prm

>  <Rbt.Receptor>
prm/pocket_docking_8.prm

>  <SCORE>
-16.2076

>  <SCORE.INTER>
-10.6614

>  <SCORE.INTER.CONST>
1

>  <SCORE.INTER.POLAR>
0

>  <SCORE.INTER.ROT>
4

>  <SCORE.INTER.SOLV>
17.7488

>  <SCORE.INTER.VDW>
-19.2905

>  <SCORE.INTER.norm>
-0.444227

>  <SCORE.INTRA>
-5.59501

>  <SCORE.INTRA.DIHEDRAL>
-11.5207

>  <SCORE.INTRA.DIHEDRAL.0>
13.2525

>  <SCORE.INTRA.POLAR>
0

>  <SCORE.INTRA.POLAR.0>
0

>  <SCORE.INTRA.REPUL>
0

>  <SCORE.INTRA.REPUL.0>
0

>  <SCORE.INTRA.SOLV>
0.596913

>  <SCORE.INTRA.SOLV.lig_0>
-70.7221

>  <SCORE.INTRA.VDW>
-0.1331

>  <SCORE.INTRA.VDW.0>
-1.46337

>  <SCORE.INTRA.norm>
-0.233125

>  <SCORE.RESTR>
0.0487941

>  <SCORE.RESTR.CAVITY>
0.0487941

>  <SCORE.RESTR.norm>
0.00203309

>  <SCORE.SYSTEM>
0

>  <SCORE.SYSTEM.CONST>
0

>  <SCORE.SYSTEM.DIHEDRAL>
0

>  <SCORE.SYSTEM.SOLV>
0

>  <SCORE.SYSTEM.norm>
0

>  <SCORE.heavy>
24

>  <SCORE.norm>
-0.675319

>  <RMSD>
7.692

$$$$
ligand
 OpenBabel11021811483D
libRbt.so/2013.1/901 2013/11/27
 24 26  0  0  0  0  0  0  0  0999 V2000
  -12.8228   -7.1603   16.0738 P   0  0  1  0  0  0  0  0  0  0  0  0
  -13.9196   -7.0373   15.0378 O   0  0  0  0  0  0  0  0  0  0  0  0
  -12.3835   -5.8779   16.7405 O   0  5  0  0  0  0  0  0  0  0  0  0
  -13.0314   -8.2962   17.0642 O   0  0  0  0  0  0  0  0  0  0  0  0
  -11.0437   -6.7374   14.0815 C   0  0  0  0  0  0  0  0  0  0  0  0
  -11.5022   -7.5178   15.1990 O   0  0  0  0  0  0  0  0  0  0  0  0
   -9.8394   -7.4215   13.4276 C   0  0  1  0  0  0  0  0  0  0  0  0
  -10.0560   -8.8267   13.2472 O   0  0  0  0  0  0  0  0  0  0  0  0
   -9.4676   -6.8843   12.0562 C   0  0  1  0  0  0  0  0  0  0  0  0
   -8.5144   -5.8293   12.2149 O   0  0  0  0  0  0  0  0  0  0  0  0
   -8.8544   -8.0896   11.3624 C   0  0  1  0  0  0  0  0  0  0  0  0
   -7.4789   -8.2415   11.7410 O   0  0  0  0  0  0  0  0  0  0  0  0
   -9.5857   -9.2709   11.9685 C   0  0  2  0  0  0  0  0  0  0  0  0
  -12.6025   -7.8316    8.1106 N   0  0  0  0  0  0  0  0  0  0  0  0
  -11.5012   -7.2271    8.6118 C   0  0  1  0  0  0  0  0  0  0  0  0
  -11.0726   -6.0712    8.0563 N   0  0  0  0  0  0  0  0  0  0  0  0
  -10.8278   -7.7625    9.6568 N   0  0  0  0  0  0  0  0  0  0  0  0
  -11.2625   -8.9204   10.2093 C   0  0  1  0  0  0  0  0  0  0  0  0
  -12.3849   -9.5581    9.7188 C   0  0  2  0  0  0  0  0  0  0  0  0
  -13.0580   -8.9882    8.6445 C   0  0  0  0  0  0  0  0  0  0  0  0
  -14.0758   -9.5310    8.1711 O   0  0  0  0  0  0  0  0  0  0  0  0
  -12.5720  -10.6668   10.4637 N   0  0  0  0  0  0  0  0  0  0  0  0
  -11.5834  -10.7152   11.3869 C   0  0  0  0  0  0  0  0  0  0  0  0
  -10.7971   -9.6476   11.2164 N   0  0  1  0  0  0  0  0  0  0  0  0
  1  2  1  6  0  0  0
  1  3  1  0  0  0  0
  1  4  2  0  0  0  0
  1  6  1  0  0  0  0
  5  6  1  0  0  0  0
  7  5  1  6  0  0  0
  7  8  1  0  0  0  0
  7  9  1  0  0  0  0
  9 10  1  1  0  0  0
  9 11  1  0  0  0  0
 11 12  1  1  0  0  0
 11 13  1  0  0  0  0
 13  8  1  1  0  0  0
 13 24  1  0  0  0  0
 14 15  1  0  0  0  0
 14 20  1  0  0  0  0
 15 16  1  1  0  0  0
 15 17  1  0  0  0  0
 18 17  1  6  0  0  0
 18 19  1  0  0  0  0
 18 24  1  0  0  0  0
 19 20  1  1  0  0  0
 19 22  1  0  0  0  0
 20 21  2  0  0  0  0
 22 23  1  0  0  0  0
 24 23  1  6  0  0  0
M  CHG  1   3  -1
M  END
>  <CHROM.1>
53.60143034,45.72236355,-175.62396371,107.92101050,-11.34016080,-7.99762733
12.19238776,1.64758656,0.27644476,1.34595018

>  <Name>
ligand

>  <RI>
0

>  <Rbt.Current_Directory>
/home/itssahil/PROJECTS/Mol_Feturizer/New_Systems/rnas/3SLQ

>  <Rbt.Executable>
rbdock ($Id: //depot/dev/client3/rdock/2013.1/src/exe/rbdock.cxx#4 $)

>  <Rbt.Library>
libRbt.so (2013.1, Build901 2013/11/27)

>  <Rbt.Parameter_File>
/export/apps/rDock/src/rDock_2013.1_src/data/scripts/dock_solv.prm

>  <Rbt.Receptor>
prm/pocket_docking_7.prm

>  <SCORE>
-17.2553

>  <SCORE.INTER>
-12.9862

>  <SCORE.INTER.CONST>
1

>  <SCORE.INTER.POLAR>
0

>  <SCORE.INTER.ROT>
4

>  <SCORE.INTER.SOLV>
9.53879

>  <SCORE.INTER.VDW>
-18.1037

>  <SCORE.INTER.norm>
-0.541092

>  <SCORE.INTRA>
-4.26906

>  <SCORE.INTRA.DIHEDRAL>
-11.1737

>  <SCORE.INTRA.DIHEDRAL.0>
13.2525

>  <SCORE.INTRA.POLAR>
0

>  <SCORE.INTRA.POLAR.0>
0

>  <SCORE.INTRA.REPUL>
0

>  <SCORE.INTRA.REPUL.0>
0

>  <SCORE.INTRA.SOLV>
0.410072

>  <SCORE.INTRA.SOLV.lig_0>
-70.7221

>  <SCORE.INTRA.VDW>
1.11273

>  <SCORE.INTRA.VDW.0>
-1.46337

>  <SCORE.INTRA.norm>
-0.177877

>  <SCORE.RESTR>
0

>  <SCORE.RESTR.CAVITY>
0

>  <SCORE.RESTR.norm>
0

>  <SCORE.SYSTEM>
0

>  <SCORE.SYSTEM.CONST>
0

>  <SCORE.SYSTEM.DIHEDRAL>
0

>  <SCORE.SYSTEM.SOLV>
0

>  <SCORE.SYSTEM.norm>
0

>  <SCORE.heavy>
24

>  <SCORE.norm>
-0.718969

>  <RMSD>
7.708

$$$$
ligand
 OpenBabel11021811483D
libRbt.so/2013.1/901 2013/11/27
 24 26  0  0  0  0  0  0  0  0999 V2000
   -8.6095   -9.8247   13.2874 P   0  0  1  0  0  0  0  0  0  0  0  0
   -7.3028   -9.1216   13.5868 O   0  0  0  0  0  0  0  0  0  0  0  0
   -8.8215  -10.2654   11.8582 O   0  5  0  0  0  0  0  0  0  0  0  0
   -8.9773  -10.9029   14.2958 O   0  0  0  0  0  0  0  0  0  0  0  0
   -9.8706   -7.5805   12.4587 C   0  0  0  0  0  0  0  0  0  0  0  0
   -9.7204   -8.6468   13.4120 O   0  0  0  0  0  0  0  0  0  0  0  0
   -8.9084   -6.4385   12.7989 C   0  0  1  0  0  0  0  0  0  0  0  0
   -8.9063   -6.1412   14.2009 O   0  0  0  0  0  0  0  0  0  0  0  0
   -7.4570   -6.6966   12.4321 C   0  0  1  0  0  0  0  0  0  0  0  0
   -7.2224   -6.2167   11.1049 O   0  0  0  0  0  0  0  0  0  0  0  0
   -6.6862   -5.8868   13.4619 C   0  0  1  0  0  0  0  0  0  0  0  0
   -6.6045   -4.5117   13.0612 O   0  0  0  0  0  0  0  0  0  0  0  0
   -7.5782   -5.9110   14.6873 C   0  0  2  0  0  0  0  0  0  0  0  0
   -9.7544   -9.1877   17.9405 N   0  0  0  0  0  0  0  0  0  0  0  0
  -10.3140   -8.1797   17.2333 C   0  0  1  0  0  0  0  0  0  0  0  0
  -11.6415   -7.9500   17.3493 N   0  0  0  0  0  0  0  0  0  0  0  0
   -9.5649   -7.4027   16.4164 N   0  0  0  0  0  0  0  0  0  0  0  0
   -8.2355   -7.6374   16.3049 C   0  0  1  0  0  0  0  0  0  0  0  0
   -7.6375   -8.6588   17.0164 C   0  0  2  0  0  0  0  0  0  0  0  0
   -8.4289   -9.4427   17.8478 C   0  0  0  0  0  0  0  0  0  0  0  0
   -7.9293  -10.3750   18.5080 O   0  0  0  0  0  0  0  0  0  0  0  0
   -6.3243   -8.6441   16.7093 N   0  0  0  0  0  0  0  0  0  0  0  0
   -6.1191   -7.6418   15.8232 C   0  0  0  0  0  0  0  0  0  0  0  0
   -7.2908   -7.0426   15.5883 N   0  0  1  0  0  0  0  0  0  0  0  0
  1  2  1  1  0  0  0
  1  3  1  0  0  0  0
  1  4  2  0  0  0  0
  1  6  1  0  0  0  0
  5  6  1  0  0  0  0
  7  5  1  1  0  0  0
  7  8  1  0  0  0  0
  7  9  1  0  0  0  0
  9 10  1  6  0  0  0
  9 11  1  0  0  0  0
 11 12  1  6  0  0  0
 11 13  1  0  0  0  0
 13  8  1  6  0  0  0
 13 24  1  0  0  0  0
 14 15  1  0  0  0  0
 14 20  1  0  0  0  0
 15 16  1  1  0  0  0
 15 17  1  0  0  0  0
 18 17  1  6  0  0  0
 18 19  1  0  0  0  0
 18 24  1  0  0  0  0
 19 20  1  1  0  0  0
 19 22  1  0  0  0  0
 20 21  2  0  0  0  0
 22 23  1  0  0  0  0
 24 23  1  6  0  0  0
M  CHG  1   3  -1
M  END
>  <CHROM.1>
71.44856896,-44.57510953,-85.46118381,-32.04385141,-8.34900161,-8.04351329
14.72546910,1.03564599,-1.13271688,-1.60187279

>  <Name>
ligand

>  <RI>
0

>  <Rbt.Current_Directory>
/home/itssahil/PROJECTS/Mol_Feturizer/New_Systems/rnas/3SLQ

>  <Rbt.Executable>
rbdock ($Id: //depot/dev/client3/rdock/2013.1/src/exe/rbdock.cxx#4 $)

>  <Rbt.Library>
libRbt.so (2013.1, Build901 2013/11/27)

>  <Rbt.Parameter_File>
/export/apps/rDock/src/rDock_2013.1_src/data/scripts/dock_solv.prm

>  <Rbt.Receptor>
prm/pocket_docking_5.prm

>  <SCORE>
-13.1906

>  <SCORE.INTER>
-7.80859

>  <SCORE.INTER.CONST>
1

>  <SCORE.INTER.POLAR>
0

>  <SCORE.INTER.ROT>
4

>  <SCORE.INTER.SOLV>
10.2387

>  <SCORE.INTER.VDW>
-14.8853

>  <SCORE.INTER.norm>
-0.325358

>  <SCORE.INTRA>
-5.38206

>  <SCORE.INTRA.DIHEDRAL>
-8.25373

>  <SCORE.INTRA.DIHEDRAL.0>
13.2525

>  <SCORE.INTRA.POLAR>
0

>  <SCORE.INTRA.POLAR.0>
0

>  <SCORE.INTRA.REPUL>
0

>  <SCORE.INTRA.REPUL.0>
0

>  <SCORE.INTRA.SOLV>
2.40981

>  <SCORE.INTRA.SOLV.lig_0>
-70.7221

>  <SCORE.INTRA.VDW>
-2.4601

>  <SCORE.INTRA.VDW.0>
-1.46337

>  <SCORE.INTRA.norm>
-0.224252

>  <SCORE.RESTR>
0

>  <SCORE.RESTR.CAVITY>
0

>  <SCORE.RESTR.norm>
0

>  <SCORE.SYSTEM>
0

>  <SCORE.SYSTEM.CONST>
0

>  <SCORE.SYSTEM.DIHEDRAL>
0

>  <SCORE.SYSTEM.SOLV>
0

>  <SCORE.SYSTEM.norm>
0

>  <SCORE.heavy>
24

>  <SCORE.norm>
-0.54961

>  <RMSD>
7.715

$$$$
ligand
 OpenBabel11021811483D
libRbt.so/2013.1/901 2013/11/27
 24 26  0  0  0  0  0  0  0  0999 V2000
   -5.6824   -4.4530    9.4057 P   0  0  1  0  0  0  0  0  0  0  0  0
   -4.1885   -4.4783    9.1625 O   0  0  0  0  0  0  0  0  0  0  0  0
   -6.1260   -4.1968   10.8268 O   0  5  0  0  0  0  0  0  0  0  0  0
   -6.4612   -3.6311    8.3895 O   0  0  0  0  0  0  0  0  0  0  0  0
   -7.4784   -6.4206    8.9401 C   0  0  0  0  0  0  0  0  0  0  0  0
   -6.1311   -6.0027    9.2202 O   0  0  0  0  0  0  0  0  0  0  0  0
   -7.6011   -7.9368    9.1185 C   0  0  1  0  0  0  0  0  0  0  0  0
   -7.3928   -8.3332   10.4800 O   0  0  0  0  0  0  0  0  0  0  0  0
   -8.9475   -8.5187    8.7232 C   0  0  1  0  0  0  0  0  0  0  0  0
   -8.9014   -8.8973    7.3443 O   0  0  0  0  0  0  0  0  0  0  0  0
   -9.0848   -9.7311    9.6296 C   0  0  1  0  0  0  0  0  0  0  0  0
   -8.3739  -10.8507    9.0826 O   0  0  0  0  0  0  0  0  0  0  0  0
   -8.3341   -9.3347   10.8855 C   0  0  2  0  0  0  0  0  0  0  0  0
   -9.4399   -9.2376   15.8679 N   0  0  0  0  0  0  0  0  0  0  0  0
   -8.5587  -10.0152   15.1983 C   0  0  1  0  0  0  0  0  0  0  0  0
   -7.8223  -10.9186   15.8839 N   0  0  0  0  0  0  0  0  0  0  0  0
   -8.4070   -9.9004   13.8581 N   0  0  0  0  0  0  0  0  0  0  0  0
   -9.1480   -8.9940   13.1769 C   0  0  1  0  0  0  0  0  0  0  0  0
  -10.0564   -8.1882   13.8348 C   0  0  2  0  0  0  0  0  0  0  0  0
  -10.1926   -8.3251   15.2113 C   0  0  0  0  0  0  0  0  0  0  0  0
  -11.0012   -7.6177   15.8441 O   0  0  0  0  0  0  0  0  0  0  0  0
  -10.6398   -7.4031   12.9062 N   0  0  0  0  0  0  0  0  0  0  0  0
  -10.0982   -7.7126   11.7051 C   0  0  0  0  0  0  0  0  0  0  0  0
   -9.1934   -8.6793   11.8890 N   0  0  1  0  0  0  0  0  0  0  0  0
  1  2  1  6  0  0  0
  1  3  1  0  0  0  0
  1  4  2  0  0  0  0
  1  6  1  0  0  0  0
  5  6  1  0  0  0  0
  7  5  1  1  0  0  0
  7  8  1  0  0  0  0
  7  9  1  0  0  0  0
  9 10  1  6  0  0  0
  9 11  1  0  0  0  0
 11 12  1  6  0  0  0
 11 13  1  0  0  0  0
 13  8  1  6  0  0  0
 13 24  1  0  0  0  0
 14 15  1  0  0  0  0
 14 20  1  0  0  0  0
 15 16  1  6  0  0  0
 15 17  1  0  0  0  0
 18 17  1  1  0  0  0
 18 19  1  0  0  0  0
 18 24  1  0  0  0  0
 19 20  1  6  0  0  0
 19 22  1  0  0  0  0
 20 21  2  0  0  0  0
 22 23  1  0  0  0  0
 24 23  1  1  0  0  0
M  CHG  1   3  -1
M  END
>  <CHROM.1>
-159.62152518,65.08736072,-168.19001352,-109.83374856,-8.09443128,-7.65874326
11.31338619,-0.53192462,1.04316290,1.20137142

>  <Name>
ligand

>  <RI>
0

>  <Rbt.Current_Directory>
/home/itssahil/PROJECTS/Mol_Feturizer/New_Systems/rnas/3SLQ

>  <Rbt.Executable>
rbdock ($Id: //depot/dev/client3/rdock/2013.1/src/exe/rbdock.cxx#4 $)

>  <Rbt.Library>
libRbt.so (2013.1, Build901 2013/11/27)

>  <Rbt.Parameter_File>
/export/apps/rDock/src/rDock_2013.1_src/data/scripts/dock_solv.prm

>  <Rbt.Receptor>
prm/pocket_docking_4.prm

>  <SCORE>
-12.6754

>  <SCORE.INTER>
-7.25064

>  <SCORE.INTER.CONST>
1

>  <SCORE.INTER.POLAR>
0

>  <SCORE.INTER.ROT>
4

>  <SCORE.INTER.SOLV>
15.8777

>  <SCORE.INTER.VDW>
-16.393

>  <SCORE.INTER.norm>
-0.30211

>  <SCORE.INTRA>
-5.4248

>  <SCORE.INTRA.DIHEDRAL>
-10.6782

>  <SCORE.INTRA.DIHEDRAL.0>
13.2525

>  <SCORE.INTRA.POLAR>
0

>  <SCORE.INTRA.POLAR.0>
0

>  <SCORE.INTRA.REPUL>
0

>  <SCORE.INTRA.REPUL.0>
0

>  <SCORE.INTRA.SOLV>
0.531952

>  <SCORE.INTRA.SOLV.lig_0>
-70.7221

>  <SCORE.INTRA.VDW>
-0.351695

>  <SCORE.INTRA.VDW.0>
-1.46337

>  <SCORE.INTRA.norm>
-0.226033

>  <SCORE.RESTR>
0

>  <SCORE.RESTR.CAVITY>
0

>  <SCORE.RESTR.norm>
0

>  <SCORE.SYSTEM>
0

>  <SCORE.SYSTEM.CONST>
0

>  <SCORE.SYSTEM.DIHEDRAL>
0

>  <SCORE.SYSTEM.SOLV>
0

>  <SCORE.SYSTEM.norm>
0

>  <SCORE.heavy>
24

>  <SCORE.norm>
-0.528143

>  <RMSD>
7.724

$$$$
ligand
 OpenBabel11021811483D
libRbt.so/2013.1/901 2013/11/27
 24 26  0  0  0  0  0  0  0  0999 V2000
   -5.7910  -11.7838   10.5053 P   0  0  1  0  0  0  0  0  0  0  0  0
   -4.8548  -12.7107    9.7598 O   0  0  0  0  0  0  0  0  0  0  0  0
   -5.1621  -10.5686   11.1453 O   0  5  0  0  0  0  0  0  0  0  0  0
   -7.0687  -11.4544    9.7480 O   0  0  0  0  0  0  0  0  0  0  0  0
   -7.4768  -12.4982   12.4956 C   0  0  0  0  0  0  0  0  0  0  0  0
   -6.2146  -12.6371   11.8204 O   0  0  0  0  0  0  0  0  0  0  0  0
   -7.6388  -11.0635   13.0069 C   0  0  1  0  0  0  0  0  0  0  0  0
   -7.9920  -10.1577   11.9539 O   0  0  0  0  0  0  0  0  0  0  0  0
   -8.7024  -10.8839   14.0765 C   0  0  1  0  0  0  0  0  0  0  0  0
   -8.0982  -11.0493   15.3628 O   0  0  0  0  0  0  0  0  0  0  0  0
   -9.1761   -9.4555   13.8630 C   0  0  1  0  0  0  0  0  0  0  0  0
   -8.2885   -8.5301   14.5065 O   0  0  0  0  0  0  0  0  0  0  0  0
   -9.0021   -9.2320   12.3738 C   0  0  2  0  0  0  0  0  0  0  0  0
  -12.1553   -7.5134    8.7461 N   0  0  0  0  0  0  0  0  0  0  0  0
  -11.0811   -6.9121    9.3063 C   0  0  1  0  0  0  0  0  0  0  0  0
  -10.7258   -5.6755    8.8904 N   0  0  0  0  0  0  0  0  0  0  0  0
  -10.3624   -7.5300   10.2727 N   0  0  0  0  0  0  0  0  0  0  0  0
  -10.7237   -8.7685   10.6855 C   0  0  1  0  0  0  0  0  0  0  0  0
  -11.8171   -9.4054   10.1322 C   0  0  2  0  0  0  0  0  0  0  0  0
  -12.5378   -8.7497    9.1409 C   0  0  0  0  0  0  0  0  0  0  0  0
  -13.5316   -9.2886    8.6149 O   0  0  0  0  0  0  0  0  0  0  0  0
  -11.9308  -10.6042   10.7395 N   0  0  0  0  0  0  0  0  0  0  0  0
  -10.9263  -10.7069   11.6408 C   0  0  0  0  0  0  0  0  0  0  0  0
  -10.2028   -9.5838   11.5931 N   0  0  1  0  0  0  0  0  0  0  0  0
  1  2  1  6  0  0  0
  1  3  1  0  0  0  0
  1  4  2  0  0  0  0
  1  6  1  0  0  0  0
  5  6  1  0  0  0  0
  7  5  1  6  0  0  0
  7  8  1  0  0  0  0
  7  9  1  0  0  0  0
  9 10  1  1  0  0  0
  9 11  1  0  0  0  0
 11 12  1  1  0  0  0
 11 13  1  0  0  0  0
 13  8  1  6  0  0  0
 13 24  1  0  0  0  0
 14 15  1  0  0  0  0
 14 20  1  0  0  0  0
 15 16  1  1  0  0  0
 15 17  1  0  0  0  0
 18 17  1  6  0  0  0
 18 19  1  0  0  0  0
 18 24  1  0  0  0  0
 19 20  1  1  0  0  0
 19 22  1  0  0  0  0
 20 21  2  0  0  0  0
 22 23  1  0  0  0  0
 24 23  1  6  0  0  0
M  CHG  1   3  -1
M  END
>  <CHROM.1>
-150.32810988,77.12842299,-60.50193610,-114.02595413,-8.93763437,-10.02248377
11.25271729,-0.34814321,0.56338856,-1.54956318

>  <Name>
ligand

>  <RI>
0

>  <Rbt.Current_Directory>
/home/itssahil/PROJECTS/Mol_Feturizer/New_Systems/rnas/3SLQ

>  <Rbt.Executable>
rbdock ($Id: //depot/dev/client3/rdock/2013.1/src/exe/rbdock.cxx#4 $)

>  <Rbt.Library>
libRbt.so (2013.1, Build901 2013/11/27)

>  <Rbt.Parameter_File>
/export/apps/rDock/src/rDock_2013.1_src/data/scripts/dock_solv.prm

>  <Rbt.Receptor>
prm/pocket_docking_6.prm

>  <SCORE>
-13.2883

>  <SCORE.INTER>
-9.78081

>  <SCORE.INTER.CONST>
1

>  <SCORE.INTER.POLAR>
0

>  <SCORE.INTER.ROT>
4

>  <SCORE.INTER.SOLV>
14.0882

>  <SCORE.INTER.VDW>
-17.4833

>  <SCORE.INTER.norm>
-0.407534

>  <SCORE.INTRA>
-3.50746

>  <SCORE.INTRA.DIHEDRAL>
-9.88292

>  <SCORE.INTRA.DIHEDRAL.0>
13.2525

>  <SCORE.INTRA.POLAR>
0

>  <SCORE.INTRA.POLAR.0>
0

>  <SCORE.INTRA.REPUL>
0

>  <SCORE.INTRA.REPUL.0>
0

>  <SCORE.INTRA.SOLV>
4.67705

>  <SCORE.INTRA.SOLV.lig_0>
-70.7221

>  <SCORE.INTRA.VDW>
-0.904529

>  <SCORE.INTRA.VDW.0>
-1.46337

>  <SCORE.INTRA.norm>
-0.146144

>  <SCORE.RESTR>
0

>  <SCORE.RESTR.CAVITY>
0

>  <SCORE.RESTR.norm>
0

>  <SCORE.SYSTEM>
0

>  <SCORE.SYSTEM.CONST>
0

>  <SCORE.SYSTEM.DIHEDRAL>
0

>  <SCORE.SYSTEM.SOLV>
0

>  <SCORE.SYSTEM.norm>
0

>  <SCORE.heavy>
24

>  <SCORE.norm>
-0.553678

>  <RMSD>
7.735

$$$$
ligand
 OpenBabel11021811483D
libRbt.so/2013.1/901 2013/11/27
 24 26  0  0  0  0  0  0  0  0999 V2000
   -6.9298   -6.1432   11.5823 P   0  0  1  0  0  0  0  0  0  0  0  0
   -5.4884   -6.5998   11.5090 O   0  0  0  0  0  0  0  0  0  0  0  0
   -7.7496   -6.6924   12.7260 O   0  5  0  0  0  0  0  0  0  0  0  0
   -7.1148   -4.6450   11.3926 O   0  0  0  0  0  0  0  0  0  0  0  0
   -7.2294   -6.6948    8.9518 C   0  0  0  0  0  0  0  0  0  0  0  0
   -7.6345   -6.8813   10.3191 O   0  0  0  0  0  0  0  0  0  0  0  0
   -8.0154   -7.6434    8.0418 C   0  0  1  0  0  0  0  0  0  0  0  0
   -7.8167   -9.0163    8.4020 O   0  0  0  0  0  0  0  0  0  0  0  0
   -9.5196   -7.4316    8.0466 C   0  0  1  0  0  0  0  0  0  0  0  0
   -9.8595   -6.5003    7.0151 O   0  0  0  0  0  0  0  0  0  0  0  0
  -10.0694   -8.8172    7.7497 C   0  0  1  0  0  0  0  0  0  0  0  0
  -10.0505   -9.0734    6.3382 O   0  0  0  0  0  0  0  0  0  0  0  0
   -9.0441   -9.7544    8.3565 C   0  0  2  0  0  0  0  0  0  0  0  0
   -7.0108  -11.8081   12.5642 N   0  0  0  0  0  0  0  0  0  0  0  0
   -6.4585  -11.6282   11.3427 C   0  0  1  0  0  0  0  0  0  0  0  0
   -5.1814  -12.0196   11.1319 N   0  0  0  0  0  0  0  0  0  0  0  0
   -7.1652  -11.0647   10.3351 N   0  0  0  0  0  0  0  0  0  0  0  0
   -8.4443  -10.6753   10.5523 C   0  0  1  0  0  0  0  0  0  0  0  0
   -9.0340  -10.8484   11.7890 C   0  0  2  0  0  0  0  0  0  0  0  0
   -8.2865  -11.4287   12.8072 C   0  0  0  0  0  0  0  0  0  0  0  0
   -8.7804  -11.6035   13.9386 O   0  0  0  0  0  0  0  0  0  0  0  0
  -10.2945  -10.3773   11.7001 N   0  0  0  0  0  0  0  0  0  0  0  0
  -10.4751   -9.9175   10.4400 C   0  0  0  0  0  0  0  0  0  0  0  0
   -9.3408  -10.1052    9.7579 N   0  0  1  0  0  0  0  0  0  0  0  0
  1  2  1  1  0  0  0
  1  3  1  0  0  0  0
  1  4  2  0  0  0  0
  1  6  1  0  0  0  0
  5  6  1  0  0  0  0
  7  5  1  1  0  0  0
  7  8  1  0  0  0  0
  7  9  1  0  0  0  0
  9 10  1  6  0  0  0
  9 11  1  0  0  0  0
 11 12  1  6  0  0  0
 11 13  1  0  0  0  0
 13  8  1  1  0  0  0
 13 24  1  0  0  0  0
 14 15  1  0  0  0  0
 14 20  1  0  0  0  0
 15 16  1  6  0  0  0
 15 17  1  0  0  0  0
 18 17  1  1  0  0  0
 18 19  1  0  0  0  0
 18 24  1  0  0  0  0
 19 20  1  6  0  0  0
 19 22  1  0  0  0  0
 20 21  2  0  0  0  0
 22 23  1  0  0  0  0
 24 23  1  1  0  0  0
M  CHG  1   3  -1
M  END
>  <CHROM.1>
-59.55543218,-58.88705686,174.47509399,-50.48725625,-8.12042737,-8.80891909
10.33527176,-1.79649567,1.00994834,2.68967516

>  <Name>
ligand

>  <RI>
0

>  <Rbt.Current_Directory>
/home/itssahil/PROJECTS/Mol_Feturizer/New_Systems/rnas/3SLQ

>  <Rbt.Executable>
rbdock ($Id: //depot/dev/client3/rdock/2013.1/src/exe/rbdock.cxx#4 $)

>  <Rbt.Library>
libRbt.so (2013.1, Build901 2013/11/27)

>  <Rbt.Parameter_File>
/export/apps/rDock/src/rDock_2013.1_src/data/scripts/dock_solv.prm

>  <Rbt.Receptor>
prm/pocket_docking_8.prm

>  <SCORE>
-16.6414

>  <SCORE.INTER>
-9.97857

>  <SCORE.INTER.CONST>
1

>  <SCORE.INTER.POLAR>
0

>  <SCORE.INTER.ROT>
4

>  <SCORE.INTER.SOLV>
10.3943

>  <SCORE.INTER.VDW>
-16.3838

>  <SCORE.INTER.norm>
-0.415774

>  <SCORE.INTRA>
-6.66283

>  <SCORE.INTRA.DIHEDRAL>
-11.8873

>  <SCORE.INTRA.DIHEDRAL.0>
13.2525

>  <SCORE.INTRA.POLAR>
0

>  <SCORE.INTRA.POLAR.0>
0

>  <SCORE.INTRA.REPUL>
0

>  <SCORE.INTRA.REPUL.0>
0

>  <SCORE.INTRA.SOLV>
-0.0096322

>  <SCORE.INTRA.SOLV.lig_0>
-70.7221

>  <SCORE.INTRA.VDW>
-0.714364

>  <SCORE.INTRA.VDW.0>
-1.46337

>  <SCORE.INTRA.norm>
-0.277618

>  <SCORE.RESTR>
0

>  <SCORE.RESTR.CAVITY>
0

>  <SCORE.RESTR.norm>
0

>  <SCORE.SYSTEM>
0

>  <SCORE.SYSTEM.CONST>
0

>  <SCORE.SYSTEM.DIHEDRAL>
0

>  <SCORE.SYSTEM.SOLV>
0

>  <SCORE.SYSTEM.norm>
0

>  <SCORE.heavy>
24

>  <SCORE.norm>
-0.693392

>  <RMSD>
7.752

$$$$
ligand
 OpenBabel11021811483D
libRbt.so/2013.1/901 2013/11/27
 24 26  0  0  0  0  0  0  0  0999 V2000
   -6.8008   -6.2009   11.5335 P   0  0  1  0  0  0  0  0  0  0  0  0
   -5.3769   -6.7121   11.4811 O   0  0  0  0  0  0  0  0  0  0  0  0
   -7.6439   -6.6826   12.6906 O   0  5  0  0  0  0  0  0  0  0  0  0
   -6.9300   -4.7039   11.2951 O   0  0  0  0  0  0  0  0  0  0  0  0
   -7.1700   -6.7563    8.9127 C   0  0  0  0  0  0  0  0  0  0  0  0
   -7.5281   -6.9530   10.2915 O   0  0  0  0  0  0  0  0  0  0  0  0
   -8.0019   -7.6830    8.0212 C   0  0  1  0  0  0  0  0  0  0  0  0
   -7.8723   -9.0564    8.4099 O   0  0  0  0  0  0  0  0  0  0  0  0
   -9.4937   -7.3963    8.0193 C   0  0  1  0  0  0  0  0  0  0  0  0
   -9.7861   -6.4707    6.9683 O   0  0  0  0  0  0  0  0  0  0  0  0
  -10.1119   -8.7585    7.7502 C   0  0  1  0  0  0  0  0  0  0  0  0
  -10.1052   -9.0445    6.3443 O   0  0  0  0  0  0  0  0  0  0  0  0
   -9.1351   -9.7330    8.3777 C   0  0  2  0  0  0  0  0  0  0  0  0
   -7.1945  -11.7611   12.6413 N   0  0  0  0  0  0  0  0  0  0  0  0
   -6.6315  -11.6305   11.4184 C   0  0  1  0  0  0  0  0  0  0  0  0
   -5.3691  -12.0737   11.2226 N   0  0  0  0  0  0  0  0  0  0  0  0
   -7.3132  -11.0651   10.3948 N   0  0  0  0  0  0  0  0  0  0  0  0
   -8.5777  -10.6236   10.5971 C   0  0  1  0  0  0  0  0  0  0  0  0
   -9.1778  -10.7457   11.8349 C   0  0  2  0  0  0  0  0  0  0  0  0
   -8.4561  -11.3291   12.8697 C   0  0  0  0  0  0  0  0  0  0  0  0
   -8.9602  -11.4588   14.0027 O   0  0  0  0  0  0  0  0  0  0  0  0
  -10.4197  -10.2304   11.7293 N   0  0  0  0  0  0  0  0  0  0  0  0
  -10.5786   -9.7940   10.4580 C   0  0  0  0  0  0  0  0  0  0  0  0
   -9.4496  -10.0396    9.7856 N   0  0  1  0  0  0  0  0  0  0  0  0
  1  2  1  1  0  0  0
  1  3  1  0  0  0  0
  1  4  2  0  0  0  0
  1  6  1  0  0  0  0
  5  6  1  0  0  0  0
  7  5  1  1  0  0  0
  7  8  1  0  0  0  0
  7  9  1  0  0  0  0
  9 10  1  6  0  0  0
  9 11  1  0  0  0  0
 11 12  1  6  0  0  0
 11 13  1  0  0  0  0
 13  8  1  1  0  0  0
 13 24  1  0  0  0  0
 14 15  1  0  0  0  0
 14 20  1  0  0  0  0
 15 16  1  6  0  0  0
 15 17  1  0  0  0  0
 18 17  1  1  0  0  0
 18 19  1  0  0  0  0
 18 24  1  0  0  0  0
 19 20  1  6  0  0  0
 19 22  1  0  0  0  0
 20 21  2  0  0  0  0
 22 23  1  0  0  0  0
 24 23  1  1  0  0  0
M  CHG  1   3  -1
M  END
>  <CHROM.1>
-63.90877044,-55.40980602,176.64881365,-49.70977413,-8.15131220,-8.79597530
10.34099983,-1.73536475,0.97194832,2.58512803

>  <Name>
ligand

>  <RI>
0

>  <Rbt.Current_Directory>
/home/itssahil/PROJECTS/Mol_Feturizer/New_Systems/rnas/3SLQ

>  <Rbt.Executable>
rbdock ($Id: //depot/dev/client3/rdock/2013.1/src/exe/rbdock.cxx#4 $)

>  <Rbt.Library>
libRbt.so (2013.1, Build901 2013/11/27)

>  <Rbt.Parameter_File>
/export/apps/rDock/src/rDock_2013.1_src/data/scripts/dock_solv.prm

>  <Rbt.Receptor>
prm/pocket_docking_6.prm

>  <SCORE>
-16.8765

>  <SCORE.INTER>
-10.1921

>  <SCORE.INTER.CONST>
1

>  <SCORE.INTER.POLAR>
0

>  <SCORE.INTER.ROT>
4

>  <SCORE.INTER.SOLV>
10.3563

>  <SCORE.INTER.VDW>
-16.5135

>  <SCORE.INTER.norm>
-0.424673

>  <SCORE.INTRA>
-6.68437

>  <SCORE.INTRA.DIHEDRAL>
-11.8863

>  <SCORE.INTRA.DIHEDRAL.0>
13.2525

>  <SCORE.INTRA.POLAR>
0

>  <SCORE.INTRA.POLAR.0>
0

>  <SCORE.INTRA.REPUL>
0

>  <SCORE.INTRA.REPUL.0>
0

>  <SCORE.INTRA.SOLV>
0.0202918

>  <SCORE.INTRA.SOLV.lig_0>
-70.7221

>  <SCORE.INTRA.VDW>
-0.751382

>  <SCORE.INTRA.VDW.0>
-1.46337

>  <SCORE.INTRA.norm>
-0.278515

>  <SCORE.RESTR>
0

>  <SCORE.RESTR.CAVITY>
0

>  <SCORE.RESTR.norm>
0

>  <SCORE.SYSTEM>
0

>  <SCORE.SYSTEM.CONST>
0

>  <SCORE.SYSTEM.DIHEDRAL>
0

>  <SCORE.SYSTEM.SOLV>
0

>  <SCORE.SYSTEM.norm>
0

>  <SCORE.heavy>
24

>  <SCORE.norm>
-0.703188

>  <RMSD>
7.756

$$$$
ligand
 OpenBabel11021811483D
libRbt.so/2013.1/901 2013/11/27
 24 26  0  0  0  0  0  0  0  0999 V2000
   -6.2946   -3.6129    9.4142 P   0  0  1  0  0  0  0  0  0  0  0  0
   -5.0098   -4.1355    8.8079 O   0  0  0  0  0  0  0  0  0  0  0  0
   -6.3076   -2.1529    9.8019 O   0  5  0  0  0  0  0  0  0  0  0  0
   -7.5491   -4.0330    8.6631 O   0  0  0  0  0  0  0  0  0  0  0  0
   -6.1821   -5.7297   11.0935 C   0  0  0  0  0  0  0  0  0  0  0  0
   -6.3474   -4.3177   10.8763 O   0  0  0  0  0  0  0  0  0  0  0  0
   -6.1342   -6.0234   12.5960 C   0  0  1  0  0  0  0  0  0  0  0  0
   -7.4007   -5.7931   13.2261 O   0  0  0  0  0  0  0  0  0  0  0  0
   -5.7501   -7.4485   12.9554 C   0  0  1  0  0  0  0  0  0  0  0  0
   -4.3297   -7.5202   13.1106 O   0  0  0  0  0  0  0  0  0  0  0  0
   -6.4674   -7.6823   14.2749 C   0  0  1  0  0  0  0  0  0  0  0  0
   -5.7065   -7.1399   15.3635 O   0  0  0  0  0  0  0  0  0  0  0  0
   -7.7131   -6.8250   14.1701 C   0  0  2  0  0  0  0  0  0  0  0  0
   -9.0032  -11.0053   11.5400 N   0  0  0  0  0  0  0  0  0  0  0  0
   -7.7800  -10.5770   11.9270 C   0  0  1  0  0  0  0  0  0  0  0  0
   -6.6922  -11.3161   11.6123 N   0  0  0  0  0  0  0  0  0  0  0  0
   -7.6332   -9.4242   12.6209 N   0  0  0  0  0  0  0  0  0  0  0  0
   -8.7267   -8.6880   12.9326 C   0  0  1  0  0  0  0  0  0  0  0  0
   -9.9875   -9.1005   12.5488 C   0  0  2  0  0  0  0  0  0  0  0  0
  -10.1112  -10.2885   11.8379 C   0  0  0  0  0  0  0  0  0  0  0  0
  -11.2309  -10.6972   11.4719 O   0  0  0  0  0  0  0  0  0  0  0  0
  -10.8626   -8.1739   12.9900 N   0  0  0  0  0  0  0  0  0  0  0  0
  -10.1581   -7.2165   13.6374 C   0  0  0  0  0  0  0  0  0  0  0  0
   -8.8633   -7.5460   13.5937 N   0  0  1  0  0  0  0  0  0  0  0  0
  1  2  1  6  0  0  0
  1  3  1  0  0  0  0
  1  4  2  0  0  0  0
  1  6  1  0  0  0  0
  5  6  1  0  0  0  0
  7  5  1  6  0  0  0
  7  8  1  0  0  0  0
  7  9  1  0  0  0  0
  9 10  1  1  0  0  0
  9 11  1  0  0  0  0
 11 12  1  1  0  0  0
 11 13  1  0  0  0  0
 13  8  1  6  0  0  0
 13 24  1  0  0  0  0
 14 15  1  0  0  0  0
 14 20  1  0  0  0  0
 15 16  1  6  0  0  0
 15 17  1  0  0  0  0
 18 17  1  1  0  0  0
 18 19  1  0  0  0  0
 18 24  1  0  0  0  0
 19 20  1  6  0  0  0
 19 22  1  0  0  0  0
 20 21  2  0  0  0  0
 22 23  1  0  0  0  0
 24 23  1  1  0  0  0
M  CHG  1   3  -1
M  END
>  <CHROM.1>
-50.80655798,68.51020661,173.73838045,99.00077659,-7.45528357,-7.05294149
11.93820807,1.02111855,-0.64069139,-0.77112607

>  <Name>
ligand

>  <RI>
0

>  <Rbt.Current_Directory>
/home/itssahil/PROJECTS/Mol_Feturizer/New_Systems/rnas/3SLQ

>  <Rbt.Executable>
rbdock ($Id: //depot/dev/client3/rdock/2013.1/src/exe/rbdock.cxx#4 $)

>  <Rbt.Library>
libRbt.so (2013.1, Build901 2013/11/27)

>  <Rbt.Parameter_File>
/export/apps/rDock/src/rDock_2013.1_src/data/scripts/dock_solv.prm

>  <Rbt.Receptor>
prm/pocket_docking_6.prm

>  <SCORE>
-14.4583

>  <SCORE.INTER>
-9.83401

>  <SCORE.INTER.CONST>
1

>  <SCORE.INTER.POLAR>
0

>  <SCORE.INTER.ROT>
4

>  <SCORE.INTER.SOLV>
17.7649

>  <SCORE.INTER.VDW>
-18.7443

>  <SCORE.INTER.norm>
-0.40975

>  <SCORE.INTRA>
-4.62426

>  <SCORE.INTRA.DIHEDRAL>
-11.4461

>  <SCORE.INTRA.DIHEDRAL.0>
13.2525

>  <SCORE.INTRA.POLAR>
0

>  <SCORE.INTRA.POLAR.0>
0

>  <SCORE.INTRA.REPUL>
0

>  <SCORE.INTRA.REPUL.0>
0

>  <SCORE.INTRA.SOLV>
0.360953

>  <SCORE.INTRA.SOLV.lig_0>
-70.7221

>  <SCORE.INTRA.VDW>
0.918341

>  <SCORE.INTRA.VDW.0>
-1.46337

>  <SCORE.INTRA.norm>
-0.192677

>  <SCORE.RESTR>
0

>  <SCORE.RESTR.CAVITY>
0

>  <SCORE.RESTR.norm>
0

>  <SCORE.SYSTEM>
0

>  <SCORE.SYSTEM.CONST>
0

>  <SCORE.SYSTEM.DIHEDRAL>
0

>  <SCORE.SYSTEM.SOLV>
0

>  <SCORE.SYSTEM.norm>
0

>  <SCORE.heavy>
24

>  <SCORE.norm>
-0.602428

>  <RMSD>
7.764

$$$$
ligand
 OpenBabel11021811483D
libRbt.so/2013.1/901 2013/11/27
 24 26  0  0  0  0  0  0  0  0999 V2000
   -6.9613   -6.3194   11.6275 P   0  0  1  0  0  0  0  0  0  0  0  0
   -5.4951   -6.5185   11.3080 O   0  0  0  0  0  0  0  0  0  0  0  0
   -7.5201   -7.1513   12.7577 O   0  5  0  0  0  0  0  0  0  0  0  0
   -7.3850   -4.8603   11.7062 O   0  0  0  0  0  0  0  0  0  0  0  0
   -7.5139   -6.5731    8.9924 C   0  0  0  0  0  0  0  0  0  0  0  0
   -7.7275   -6.9775   10.3559 O   0  0  0  0  0  0  0  0  0  0  0  0
   -8.2663   -7.5136    8.0463 C   0  0  1  0  0  0  0  0  0  0  0  0
   -7.9322   -8.8874    8.2811 O   0  0  0  0  0  0  0  0  0  0  0  0
   -9.7805   -7.4375    8.1422 C   0  0  1  0  0  0  0  0  0  0  0  0
  -10.2551   -6.4621    7.2094 O   0  0  0  0  0  0  0  0  0  0  0  0
  -10.2266   -8.8389    7.7585 C   0  0  1  0  0  0  0  0  0  0  0  0
  -10.2651   -8.9810    6.3314 O   0  0  0  0  0  0  0  0  0  0  0  0
   -9.0933   -9.7259    8.2346 C   0  0  2  0  0  0  0  0  0  0  0  0
   -6.7113  -12.0765   12.0891 N   0  0  0  0  0  0  0  0  0  0  0  0
   -6.2518  -11.7693   10.8546 C   0  0  1  0  0  0  0  0  0  0  0  0
   -4.9824  -12.0962   10.5228 N   0  0  0  0  0  0  0  0  0  0  0  0
   -7.0435  -11.1426    9.9530 N   0  0  0  0  0  0  0  0  0  0  0  0
   -8.3144  -10.8182   10.2911 C   0  0  1  0  0  0  0  0  0  0  0  0
   -8.8102  -11.1214   11.5439 C   0  0  2  0  0  0  0  0  0  0  0  0
   -7.9767  -11.7643   12.4517 C   0  0  0  0  0  0  0  0  0  0  0  0
   -8.3844  -12.0564   13.5932 O   0  0  0  0  0  0  0  0  0  0  0  0
  -10.0866  -10.6877   11.5841 N   0  0  0  0  0  0  0  0  0  0  0  0
  -10.3685  -10.1236   10.3865 C   0  0  0  0  0  0  0  0  0  0  0  0
   -9.2804  -10.2106    9.6149 N   0  0  1  0  0  0  0  0  0  0  0  0
  1  2  1  6  0  0  0
  1  3  1  0  0  0  0
  1  4  2  0  0  0  0
  1  6  1  0  0  0  0
  5  6  1  0  0  0  0
  7  5  1  1  0  0  0
  7  8  1  0  0  0  0
  7  9  1  0  0  0  0
  9 10  1  6  0  0  0
  9 11  1  0  0  0  0
 11 12  1  6  0  0  0
 11 13  1  0  0  0  0
 13  8  1  1  0  0  0
 13 24  1  0  0  0  0
 14 15  1  0  0  0  0
 14 20  1  0  0  0  0
 15 16  1  6  0  0  0
 15 17  1  0  0  0  0
 18 17  1  1  0  0  0
 18 19  1  0  0  0  0
 18 24  1  0  0  0  0
 19 20  1  6  0  0  0
 19 22  1  0  0  0  0
 20 21  2  0  0  0  0
 22 23  1  0  0  0  0
 24 23  1  1  0  0  0
M  CHG  1   3  -1
M  END
>  <CHROM.1>
-56.89173865,-53.66192618,173.08631946,-53.87185762,-8.11384546,-8.92468110
10.22043070,-1.94480054,0.96834395,2.90079976

>  <Name>
ligand

>  <RI>
0

>  <Rbt.Current_Directory>
/home/itssahil/PROJECTS/Mol_Feturizer/New_Systems/rnas/3SLQ

>  <Rbt.Executable>
rbdock ($Id: //depot/dev/client3/rdock/2013.1/src/exe/rbdock.cxx#4 $)

>  <Rbt.Library>
libRbt.so (2013.1, Build901 2013/11/27)

>  <Rbt.Parameter_File>
/export/apps/rDock/src/rDock_2013.1_src/data/scripts/dock_solv.prm

>  <Rbt.Receptor>
prm/pocket_docking_6.prm

>  <SCORE>
-16.833

>  <SCORE.INTER>
-10.2304

>  <SCORE.INTER.CONST>
1

>  <SCORE.INTER.POLAR>
0

>  <SCORE.INTER.ROT>
4

>  <SCORE.INTER.SOLV>
11.6217

>  <SCORE.INTER.VDW>
-16.9608

>  <SCORE.INTER.norm>
-0.426266

>  <SCORE.INTRA>
-6.6026

>  <SCORE.INTRA.DIHEDRAL>
-11.652

>  <SCORE.INTRA.DIHEDRAL.0>
13.2525

>  <SCORE.INTRA.POLAR>
0

>  <SCORE.INTRA.POLAR.0>
0

>  <SCORE.INTRA.REPUL>
0

>  <SCORE.INTRA.REPUL.0>
0

>  <SCORE.INTRA.SOLV>
-0.0404041

>  <SCORE.INTRA.SOLV.lig_0>
-70.7221

>  <SCORE.INTRA.VDW>
-0.756403

>  <SCORE.INTRA.VDW.0>
-1.46337

>  <SCORE.INTRA.norm>
-0.275108

>  <SCORE.RESTR>
0

>  <SCORE.RESTR.CAVITY>
0

>  <SCORE.RESTR.norm>
0

>  <SCORE.SYSTEM>
0

>  <SCORE.SYSTEM.CONST>
0

>  <SCORE.SYSTEM.DIHEDRAL>
0

>  <SCORE.SYSTEM.SOLV>
0

>  <SCORE.SYSTEM.norm>
0

>  <SCORE.heavy>
24

>  <SCORE.norm>
-0.701375

>  <RMSD>
7.798

$$$$
ligand
 OpenBabel11021811483D
libRbt.so/2013.1/901 2013/11/27
 24 26  0  0  0  0  0  0  0  0999 V2000
   -6.4627   -3.9672    9.7823 P   0  0  1  0  0  0  0  0  0  0  0  0
   -7.2078   -2.7085    9.3924 O   0  0  0  0  0  0  0  0  0  0  0  0
   -5.0713   -4.1252    9.2159 O   0  5  0  0  0  0  0  0  0  0  0  0
   -6.5339   -4.2939   11.2665 O   0  0  0  0  0  0  0  0  0  0  0  0
   -8.6551   -5.4153    9.1422 C   0  0  0  0  0  0  0  0  0  0  0  0
   -7.2509   -5.1450    8.9894 O   0  0  0  0  0  0  0  0  0  0  0  0
   -9.0736   -6.5461    8.1978 C   0  0  1  0  0  0  0  0  0  0  0  0
   -8.4956   -7.8013    8.5781 O   0  0  0  0  0  0  0  0  0  0  0  0
  -10.5708   -6.7909    8.1198 C   0  0  1  0  0  0  0  0  0  0  0  0
  -11.1161   -5.9931    7.0648 O   0  0  0  0  0  0  0  0  0  0  0  0
  -10.6672   -8.2744    7.8034 C   0  0  1  0  0  0  0  0  0  0  0  0
  -10.4972   -8.5004    6.3969 O   0  0  0  0  0  0  0  0  0  0  0  0
   -9.4439   -8.8703    8.4715 C   0  0  2  0  0  0  0  0  0  0  0  0
   -7.2579  -11.0980   12.5107 N   0  0  0  0  0  0  0  0  0  0  0  0
   -6.7398  -10.8355   11.2892 C   0  0  1  0  0  0  0  0  0  0  0  0
   -5.4583  -11.1795   11.0283 N   0  0  0  0  0  0  0  0  0  0  0  0
   -7.4848  -10.2365   10.3309 N   0  0  0  0  0  0  0  0  0  0  0  0
   -8.7680   -9.8949   10.5981 C   0  0  1  0  0  0  0  0  0  0  0  0
   -9.3233  -10.1526   11.8361 C   0  0  2  0  0  0  0  0  0  0  0  0
   -8.5369  -10.7678   12.8031 C   0  0  0  0  0  0  0  0  0  0  0  0
   -8.9989  -11.0186   13.9337 O   0  0  0  0  0  0  0  0  0  0  0  0
  -10.5975   -9.7119   11.8020 N   0  0  0  0  0  0  0  0  0  0  0  0
  -10.8200   -9.1879   10.5740 C   0  0  0  0  0  0  0  0  0  0  0  0
   -9.6978   -9.3064    9.8573 N   0  0  1  0  0  0  0  0  0  0  0  0
  1  2  1  6  0  0  0
  1  3  1  0  0  0  0
  1  4  2  0  0  0  0
  1  6  1  0  0  0  0
  5  6  1  0  0  0  0
  7  5  1  1  0  0  0
  7  8  1  0  0  0  0
  7  9  1  0  0  0  0
  9 10  1  6  0  0  0
  9 11  1  0  0  0  0
 11 12  1  6  0  0  0
 11 13  1  0  0  0  0
 13  8  1  1  0  0  0
 13 24  1  0  0  0  0
 14 15  1  0  0  0  0
 14 20  1  0  0  0  0
 15 16  1  6  0  0  0
 15 17  1  0  0  0  0
 18 17  1  1  0  0  0
 18 19  1  0  0  0  0
 18 24  1  0  0  0  0
 19 20  1  6  0  0  0
 19 22  1  0  0  0  0
 20 21  2  0  0  0  0
 22 23  1  0  0  0  0
 24 23  1  1  0  0  0
M  CHG  1   3  -1
M  END
>  <CHROM.1>
-57.73829628,67.93634305,177.32139617,-67.16429281,-8.39007565,-7.66257061
9.90123162,-1.34469636,0.66506810,2.60771896

>  <Name>
ligand

>  <RI>
0

>  <Rbt.Current_Directory>
/home/itssahil/PROJECTS/Mol_Feturizer/New_Systems/rnas/3SLQ

>  <Rbt.Executable>
rbdock ($Id: //depot/dev/client3/rdock/2013.1/src/exe/rbdock.cxx#4 $)

>  <Rbt.Library>
libRbt.so (2013.1, Build901 2013/11/27)

>  <Rbt.Parameter_File>
/export/apps/rDock/src/rDock_2013.1_src/data/scripts/dock_solv.prm

>  <Rbt.Receptor>
prm/pocket_docking_4.prm

>  <SCORE>
-15.0887

>  <SCORE.INTER>
-8.94769

>  <SCORE.INTER.CONST>
1

>  <SCORE.INTER.POLAR>
0

>  <SCORE.INTER.ROT>
4

>  <SCORE.INTER.SOLV>
14.3599

>  <SCORE.INTER.VDW>
-17.0184

>  <SCORE.INTER.norm>
-0.37282

>  <SCORE.INTRA>
-6.14449

>  <SCORE.INTRA.DIHEDRAL>
-11.7911

>  <SCORE.INTRA.DIHEDRAL.0>
13.2525

>  <SCORE.INTRA.POLAR>
0

>  <SCORE.INTRA.POLAR.0>
0

>  <SCORE.INTRA.REPUL>
0

>  <SCORE.INTRA.REPUL.0>
0

>  <SCORE.INTRA.SOLV>
-0.175435

>  <SCORE.INTRA.SOLV.lig_0>
-70.7221

>  <SCORE.INTRA.VDW>
-0.161208

>  <SCORE.INTRA.VDW.0>
-1.46337

>  <SCORE.INTRA.norm>
-0.25602

>  <SCORE.RESTR>
0.00345243

>  <SCORE.RESTR.CAVITY>
0.00345243

>  <SCORE.RESTR.norm>
0.000143851

>  <SCORE.SYSTEM>
0

>  <SCORE.SYSTEM.CONST>
0

>  <SCORE.SYSTEM.DIHEDRAL>
0

>  <SCORE.SYSTEM.SOLV>
0

>  <SCORE.SYSTEM.norm>
0

>  <SCORE.heavy>
24

>  <SCORE.norm>
-0.628697

>  <RMSD>
7.808

$$$$
ligand
 OpenBabel11021811483D
libRbt.so/2013.1/901 2013/11/27
 24 26  0  0  0  0  0  0  0  0999 V2000
   -6.9403   -6.2977   11.6460 P   0  0  1  0  0  0  0  0  0  0  0  0
   -5.4742   -6.4847   11.3189 O   0  0  0  0  0  0  0  0  0  0  0  0
   -7.4882   -7.1397   12.7742 O   0  5  0  0  0  0  0  0  0  0  0  0
   -7.3738   -4.8421   11.7347 O   0  0  0  0  0  0  0  0  0  0  0  0
   -7.5071   -6.5372    9.0126 C   0  0  0  0  0  0  0  0  0  0  0  0
   -7.7076   -6.9542   10.3743 O   0  0  0  0  0  0  0  0  0  0  0  0
   -8.2502   -7.4823    8.0637 C   0  0  1  0  0  0  0  0  0  0  0  0
   -7.9043   -8.8535    8.2961 O   0  0  0  0  0  0  0  0  0  0  0  0
   -9.7651   -7.4196    8.1580 C   0  0  1  0  0  0  0  0  0  0  0  0
  -10.2472   -6.4466    7.2267 O   0  0  0  0  0  0  0  0  0  0  0  0
  -10.1984   -8.8241    7.7709 C   0  0  1  0  0  0  0  0  0  0  0  0
  -10.2340   -8.9636    6.3435 O   0  0  0  0  0  0  0  0  0  0  0  0
   -9.0579   -9.7021    8.2465 C   0  0  2  0  0  0  0  0  0  0  0  0
   -6.7172  -12.1961   12.0356 N   0  0  0  0  0  0  0  0  0  0  0  0
   -6.2663  -11.8979   10.7958 C   0  0  1  0  0  0  0  0  0  0  0  0
   -5.0192  -12.2789   10.4380 N   0  0  0  0  0  0  0  0  0  0  0  0
   -7.0445  -11.2272    9.9145 N   0  0  0  0  0  0  0  0  0  0  0  0
   -8.2931  -10.8488   10.2786 C   0  0  1  0  0  0  0  0  0  0  0  0
   -8.7798  -11.1413   11.5375 C   0  0  2  0  0  0  0  0  0  0  0  0
   -7.9605  -11.8303   12.4241 C   0  0  0  0  0  0  0  0  0  0  0  0
   -8.3607  -12.1148   13.5702 O   0  0  0  0  0  0  0  0  0  0  0  0
  -10.0342  -10.6506   11.6048 N   0  0  0  0  0  0  0  0  0  0  0  0
  -10.3114  -10.0625   10.4177 C   0  0  0  0  0  0  0  0  0  0  0  0
   -9.2423  -10.1913    9.6255 N   0  0  1  0  0  0  0  0  0  0  0  0
  1  2  1  6  0  0  0
  1  3  1  0  0  0  0
  1  4  2  0  0  0  0
  1  6  1  0  0  0  0
  5  6  1  0  0  0  0
  7  5  1  1  0  0  0
  7  8  1  0  0  0  0
  7  9  1  0  0  0  0
  9 10  1  6  0  0  0
  9 11  1  0  0  0  0
 11 12  1  6  0  0  0
 11 13  1  0  0  0  0
 13  8  1  1  0  0  0
 13 24  1  0  0  0  0
 14 15  1  0  0  0  0
 14 20  1  0  0  0  0
 15 16  1  6  0  0  0
 15 17  1  0  0  0  0
 18 17  1  1  0  0  0
 18 19  1  0  0  0  0
 18 24  1  0  0  0  0
 19 20  1  6  0  0  0
 19 22  1  0  0  0  0
 20 21  2  0  0  0  0
 22 23  1  0  0  0  0
 24 23  1  1  0  0  0
M  CHG  1   3  -1
M  END
>  <CHROM.1>
-57.15775054,-53.08373636,172.81932296,-57.19848924,-8.09480887,-8.93310238
10.22101748,-1.90838510,0.97897309,2.92921861

>  <Name>
ligand

>  <RI>
0

>  <Rbt.Current_Directory>
/home/itssahil/PROJECTS/Mol_Feturizer/New_Systems/rnas/3SLQ

>  <Rbt.Executable>
rbdock ($Id: //depot/dev/client3/rdock/2013.1/src/exe/rbdock.cxx#4 $)

>  <Rbt.Library>
libRbt.so (2013.1, Build901 2013/11/27)

>  <Rbt.Parameter_File>
/export/apps/rDock/src/rDock_2013.1_src/data/scripts/dock_solv.prm

>  <Rbt.Receptor>
prm/pocket_docking_6.prm

>  <SCORE>
-16.8285

>  <SCORE.INTER>
-10.208

>  <SCORE.INTER.CONST>
1

>  <SCORE.INTER.POLAR>
0

>  <SCORE.INTER.ROT>
4

>  <SCORE.INTER.SOLV>
12.0514

>  <SCORE.INTER.VDW>
-17.0891

>  <SCORE.INTER.norm>
-0.425333

>  <SCORE.INTRA>
-6.62056

>  <SCORE.INTRA.DIHEDRAL>
-11.6129

>  <SCORE.INTRA.DIHEDRAL.0>
13.2525

>  <SCORE.INTRA.POLAR>
0

>  <SCORE.INTRA.POLAR.0>
0

>  <SCORE.INTRA.REPUL>
0

>  <SCORE.INTRA.REPUL.0>
0

>  <SCORE.INTRA.SOLV>
-0.0410242

>  <SCORE.INTRA.SOLV.lig_0>
-70.7221

>  <SCORE.INTRA.VDW>
-0.79361

>  <SCORE.INTRA.VDW.0>
-1.46337

>  <SCORE.INTRA.norm>
-0.275857

>  <SCORE.RESTR>
0

>  <SCORE.RESTR.CAVITY>
0

>  <SCORE.RESTR.norm>
0

>  <SCORE.SYSTEM>
0

>  <SCORE.SYSTEM.CONST>
0

>  <SCORE.SYSTEM.DIHEDRAL>
0

>  <SCORE.SYSTEM.SOLV>
0

>  <SCORE.SYSTEM.norm>
0

>  <SCORE.heavy>
24

>  <SCORE.norm>
-0.70119

>  <RMSD>
7.821

$$$$
ligand
 OpenBabel11021811483D
libRbt.so/2013.1/901 2013/11/27
 24 26  0  0  0  0  0  0  0  0999 V2000
   -6.9109   -6.3056   11.6032 P   0  0  1  0  0  0  0  0  0  0  0  0
   -5.4454   -6.4707   11.2619 O   0  0  0  0  0  0  0  0  0  0  0  0
   -7.4329   -7.1485   12.7429 O   0  5  0  0  0  0  0  0  0  0  0  0
   -7.3676   -4.8568   11.6863 O   0  0  0  0  0  0  0  0  0  0  0  0
   -7.5195   -6.5573    8.9803 C   0  0  0  0  0  0  0  0  0  0  0  0
   -7.6805   -6.9838   10.3442 O   0  0  0  0  0  0  0  0  0  0  0  0
   -8.2832   -7.5006    8.0461 C   0  0  1  0  0  0  0  0  0  0  0  0
   -7.9440   -8.8735    8.2789 O   0  0  0  0  0  0  0  0  0  0  0  0
   -9.7961   -7.4264    8.1621 C   0  0  1  0  0  0  0  0  0  0  0  0
  -10.2846   -6.4534    7.2340 O   0  0  0  0  0  0  0  0  0  0  0  0
  -10.2453   -8.8292    7.7870 C   0  0  1  0  0  0  0  0  0  0  0  0
  -10.3027   -8.9739    6.3608 O   0  0  0  0  0  0  0  0  0  0  0  0
   -9.1045   -9.7137    8.2495 C   0  0  2  0  0  0  0  0  0  0  0  0
   -6.7141  -12.1782   12.0269 N   0  0  0  0  0  0  0  0  0  0  0  0
   -6.2776  -11.8851   10.7808 C   0  0  1  0  0  0  0  0  0  0  0  0
   -5.0328  -12.2633   10.4118 N   0  0  0  0  0  0  0  0  0  0  0  0
   -7.0676  -11.2221    9.9042 N   0  0  0  0  0  0  0  0  0  0  0  0
   -8.3137  -10.8464   10.2795 C   0  0  1  0  0  0  0  0  0  0  0  0
   -8.7859  -11.1340   11.5450 C   0  0  2  0  0  0  0  0  0  0  0  0
   -7.9546  -11.8151   12.4266 C   0  0  0  0  0  0  0  0  0  0  0  0
   -8.3415  -12.0948   13.5784 O   0  0  0  0  0  0  0  0  0  0  0  0
  -10.0414  -10.6476   11.6230 N   0  0  0  0  0  0  0  0  0  0  0  0
  -10.3334  -10.0670   10.4358 C   0  0  0  0  0  0  0  0  0  0  0  0
   -9.2723  -10.1961    9.6330 N   0  0  1  0  0  0  0  0  0  0  0  0
  1  2  1  6  0  0  0
  1  3  1  0  0  0  0
  1  4  2  0  0  0  0
  1  6  1  0  0  0  0
  5  6  1  0  0  0  0
  7  5  1  1  0  0  0
  7  8  1  0  0  0  0
  7  9  1  0  0  0  0
  9 10  1  6  0  0  0
  9 11  1  0  0  0  0
 11 12  1  6  0  0  0
 11 13  1  0  0  0  0
 13  8  1  1  0  0  0
 13 24  1  0  0  0  0
 14 15  1  0  0  0  0
 14 20  1  0  0  0  0
 15 16  1  6  0  0  0
 15 17  1  0  0  0  0
 18 17  1  1  0  0  0
 18 19  1  0  0  0  0
 18 24  1  0  0  0  0
 19 20  1  6  0  0  0
 19 22  1  0  0  0  0
 20 21  2  0  0  0  0
 22 23  1  0  0  0  0
 24 23  1  1  0  0  0
M  CHG  1   3  -1
M  END
>  <CHROM.1>
-58.32935064,-51.89620138,174.46050475,-56.51397565,-8.10355755,-8.93609171
10.20911291,-1.90883812,0.96018278,2.91496978

>  <Name>
ligand

>  <RI>
0

>  <Rbt.Current_Directory>
/home/itssahil/PROJECTS/Mol_Feturizer/New_Systems/rnas/3SLQ

>  <Rbt.Executable>
rbdock ($Id: //depot/dev/client3/rdock/2013.1/src/exe/rbdock.cxx#4 $)

>  <Rbt.Library>
libRbt.so (2013.1, Build901 2013/11/27)

>  <Rbt.Parameter_File>
/export/apps/rDock/src/rDock_2013.1_src/data/scripts/dock_solv.prm

>  <Rbt.Receptor>
prm/pocket_docking_6.prm

>  <SCORE>
-16.8386

>  <SCORE.INTER>
-10.1984

>  <SCORE.INTER.CONST>
1

>  <SCORE.INTER.POLAR>
0

>  <SCORE.INTER.ROT>
4

>  <SCORE.INTER.SOLV>
12.1203

>  <SCORE.INTER.VDW>
-17.1057

>  <SCORE.INTER.norm>
-0.424935

>  <SCORE.INTRA>
-6.64016

>  <SCORE.INTRA.DIHEDRAL>
-11.6595

>  <SCORE.INTRA.DIHEDRAL.0>
13.2525

>  <SCORE.INTRA.POLAR>
0

>  <SCORE.INTRA.POLAR.0>
0

>  <SCORE.INTRA.REPUL>
0

>  <SCORE.INTRA.REPUL.0>
0

>  <SCORE.INTRA.SOLV>
-0.0315751

>  <SCORE.INTRA.SOLV.lig_0>
-70.7221

>  <SCORE.INTRA.VDW>
-0.794645

>  <SCORE.INTRA.VDW.0>
-1.46337

>  <SCORE.INTRA.norm>
-0.276673

>  <SCORE.RESTR>
0

>  <SCORE.RESTR.CAVITY>
0

>  <SCORE.RESTR.norm>
0

>  <SCORE.SYSTEM>
0

>  <SCORE.SYSTEM.CONST>
0

>  <SCORE.SYSTEM.DIHEDRAL>
0

>  <SCORE.SYSTEM.SOLV>
0

>  <SCORE.SYSTEM.norm>
0

>  <SCORE.heavy>
24

>  <SCORE.norm>
-0.701608

>  <RMSD>
7.825

$$$$
ligand
 OpenBabel11021811483D
libRbt.so/2013.1/901 2013/11/27
 24 26  0  0  0  0  0  0  0  0999 V2000
   -6.6423   -3.4326    9.5823 P   0  0  1  0  0  0  0  0  0  0  0  0
   -5.5783   -3.4925    8.5073 O   0  0  0  0  0  0  0  0  0  0  0  0
   -6.7180   -2.1520   10.3800 O   0  5  0  0  0  0  0  0  0  0  0  0
   -8.0088   -3.9243    9.1287 O   0  0  0  0  0  0  0  0  0  0  0  0
   -6.2870   -5.8921   10.6490 C   0  0  0  0  0  0  0  0  0  0  0  0
   -6.1076   -4.4667   10.7144 O   0  0  0  0  0  0  0  0  0  0  0  0
   -5.5944   -6.5594   11.8410 C   0  0  1  0  0  0  0  0  0  0  0  0
   -5.8900   -5.8908   13.0737 O   0  0  0  0  0  0  0  0  0  0  0  0
   -5.9689   -8.0147   12.0635 C   0  0  1  0  0  0  0  0  0  0  0  0
   -5.0555   -8.8440   11.3390 O   0  0  0  0  0  0  0  0  0  0  0  0
   -5.8111   -8.1913   13.5649 C   0  0  1  0  0  0  0  0  0  0  0  0
   -4.4372   -8.4321   13.9010 O   0  0  0  0  0  0  0  0  0  0  0  0
   -6.1445   -6.8250   14.1302 C   0  0  2  0  0  0  0  0  0  0  0  0
   -9.9980   -8.9522   16.7152 N   0  0  0  0  0  0  0  0  0  0  0  0
   -8.7184   -9.3698   16.5824 C   0  0  1  0  0  0  0  0  0  0  0  0
   -8.3275  -10.5062   17.2022 N   0  0  0  0  0  0  0  0  0  0  0  0
   -7.8303   -8.6676   15.8405 N   0  0  0  0  0  0  0  0  0  0  0  0
   -8.2280   -7.5303   15.2215 C   0  0  1  0  0  0  0  0  0  0  0  0
   -9.5288   -7.0815   15.3385 C   0  0  2  0  0  0  0  0  0  0  0  0
  -10.4210   -7.8203   16.1068 C   0  0  0  0  0  0  0  0  0  0  0  0
  -11.6046   -7.4509   16.2385 O   0  0  0  0  0  0  0  0  0  0  0  0
   -9.6259   -5.9456   14.6180 N   0  0  0  0  0  0  0  0  0  0  0  0
   -8.4111   -5.6959   14.0759 C   0  0  0  0  0  0  0  0  0  0  0  0
   -7.5747   -6.6676   14.4542 N   0  0  1  0  0  0  0  0  0  0  0  0
  1  2  1  6  0  0  0
  1  3  1  0  0  0  0
  1  4  2  0  0  0  0
  1  6  1  0  0  0  0
  5  6  1  0  0  0  0
  7  5  1  6  0  0  0
  7  8  1  0  0  0  0
  7  9  1  0  0  0  0
  9 10  1  6  0  0  0
  9 11  1  0  0  0  0
 11 12  1  6  0  0  0
 11 13  1  0  0  0  0
 13  8  1  6  0  0  0
 13 24  1  0  0  0  0
 14 15  1  0  0  0  0
 14 20  1  0  0  0  0
 15 16  1  6  0  0  0
 15 17  1  0  0  0  0
 18 17  1  1  0  0  0
 18 19  1  0  0  0  0
 18 24  1  0  0  0  0
 19 20  1  6  0  0  0
 19 22  1  0  0  0  0
 20 21  2  0  0  0  0
 22 23  1  0  0  0  0
 24 23  1  1  0  0  0
M  CHG  1   3  -1
M  END
>  <CHROM.1>
-81.65305647,46.33187127,176.98083822,167.79458419,-7.33738259,-6.50307583
13.07385273,1.17896671,0.51167258,-0.74744205

>  <Name>
ligand

>  <RI>
0

>  <Rbt.Current_Directory>
/home/itssahil/PROJECTS/Mol_Feturizer/New_Systems/rnas/3SLQ

>  <Rbt.Executable>
rbdock ($Id: //depot/dev/client3/rdock/2013.1/src/exe/rbdock.cxx#4 $)

>  <Rbt.Library>
libRbt.so (2013.1, Build901 2013/11/27)

>  <Rbt.Parameter_File>
/export/apps/rDock/src/rDock_2013.1_src/data/scripts/dock_solv.prm

>  <Rbt.Receptor>
prm/pocket_docking_4.prm

>  <SCORE>
-13.9938

>  <SCORE.INTER>
-8.61933

>  <SCORE.INTER.CONST>
1

>  <SCORE.INTER.POLAR>
0

>  <SCORE.INTER.ROT>
4

>  <SCORE.INTER.SOLV>
15.6904

>  <SCORE.INTER.VDW>
-17.243

>  <SCORE.INTER.norm>
-0.359139

>  <SCORE.INTRA>
-5.37906

>  <SCORE.INTRA.DIHEDRAL>
-10.6817

>  <SCORE.INTRA.DIHEDRAL.0>
13.2525

>  <SCORE.INTRA.POLAR>
0

>  <SCORE.INTRA.POLAR.0>
0

>  <SCORE.INTRA.REPUL>
0

>  <SCORE.INTRA.REPUL.0>
0

>  <SCORE.INTRA.SOLV>
0.0659369

>  <SCORE.INTRA.SOLV.lig_0>
-70.7221

>  <SCORE.INTRA.VDW>
-0.071201

>  <SCORE.INTRA.VDW.0>
-1.46337

>  <SCORE.INTRA.norm>
-0.224127

>  <SCORE.RESTR>
0.00459166

>  <SCORE.RESTR.CAVITY>
0.00459166

>  <SCORE.RESTR.norm>
0.000191319

>  <SCORE.SYSTEM>
0

>  <SCORE.SYSTEM.CONST>
0

>  <SCORE.SYSTEM.DIHEDRAL>
0

>  <SCORE.SYSTEM.SOLV>
0

>  <SCORE.SYSTEM.norm>
0

>  <SCORE.heavy>
24

>  <SCORE.norm>
-0.583075

>  <RMSD>
7.838

$$$$
ligand
 OpenBabel11021811483D
libRbt.so/2013.1/901 2013/11/27
 24 26  0  0  0  0  0  0  0  0999 V2000
   -9.0818   -7.3195    7.6268 P   0  0  1  0  0  0  0  0  0  0  0  0
   -8.6530   -7.3529    6.1754 O   0  0  0  0  0  0  0  0  0  0  0  0
   -8.6593   -6.1073    8.4229 O   0  5  0  0  0  0  0  0  0  0  0  0
  -10.5403   -7.6903    7.8499 O   0  0  0  0  0  0  0  0  0  0  0  0
   -8.2923   -8.8595    9.7050 C   0  0  0  0  0  0  0  0  0  0  0  0
   -8.1771   -8.4737    8.3243 O   0  0  0  0  0  0  0  0  0  0  0  0
   -7.3867  -10.0620    9.9871 C   0  0  1  0  0  0  0  0  0  0  0  0
   -6.0117   -9.6776   10.1124 O   0  0  0  0  0  0  0  0  0  0  0  0
   -7.7169  -10.8248   11.2586 C   0  0  1  0  0  0  0  0  0  0  0  0
   -8.6464  -11.8664   10.9455 O   0  0  0  0  0  0  0  0  0  0  0  0
   -6.3723  -11.3885   11.6880 C   0  0  1  0  0  0  0  0  0  0  0  0
   -6.0806  -12.5954   10.9693 O   0  0  0  0  0  0  0  0  0  0  0  0
   -5.3721  -10.3603   11.1979 C   0  0  2  0  0  0  0  0  0  0  0  0
   -3.6353   -9.6290   15.9419 N   0  0  0  0  0  0  0  0  0  0  0  0
   -3.8205  -10.7842   15.2632 C   0  0  1  0  0  0  0  0  0  0  0  0
   -3.5168  -11.9576   15.8628 N   0  0  0  0  0  0  0  0  0  0  0  0
   -4.3036  -10.7792   13.9988 N   0  0  0  0  0  0  0  0  0  0  0  0
   -4.6064   -9.6006   13.4038 C   0  0  1  0  0  0  0  0  0  0  0  0
   -4.4289   -8.4061   14.0738 C   0  0  2  0  0  0  0  0  0  0  0  0
   -3.9306   -8.4385   15.3710 C   0  0  0  0  0  0  0  0  0  0  0  0
   -3.7553   -7.3833   16.0117 O   0  0  0  0  0  0  0  0  0  0  0  0
   -4.8166   -7.4191   13.2405 N   0  0  0  0  0  0  0  0  0  0  0  0
   -5.2165   -7.9915   12.0810 C   0  0  0  0  0  0  0  0  0  0  0  0
   -5.0805   -9.3162   12.1979 N   0  0  1  0  0  0  0  0  0  0  0  0
  1  2  1  6  0  0  0
  1  3  1  0  0  0  0
  1  4  2  0  0  0  0
  1  6  1  0  0  0  0
  5  6  1  0  0  0  0
  7  5  1  1  0  0  0
  7  8  1  0  0  0  0
  7  9  1  0  0  0  0
  9 10  1  6  0  0  0
  9 11  1  0  0  0  0
 11 12  1  6  0  0  0
 11 13  1  0  0  0  0
 13  8  1  6  0  0  0
 13 24  1  0  0  0  0
 14 15  1  0  0  0  0
 14 20  1  0  0  0  0
 15 16  1  1  0  0  0
 15 17  1  0  0  0  0
 18 17  1  6  0  0  0
 18 19  1  0  0  0  0
 18 24  1  0  0  0  0
 19 20  1  1  0  0  0
 19 22  1  0  0  0  0
 20 21  2  0  0  0  0
 22 23  1  0  0  0  0
 24 23  1  6  0  0  0
M  CHG  1   3  -1
M  END
>  <CHROM.1>
-176.45774102,77.31287489,174.58955577,173.05699392,-6.41640237,-9.22191174
11.39989608,-2.84694615,0.94265846,3.04950058

>  <Name>
ligand

>  <RI>
0

>  <Rbt.Current_Directory>
/home/itssahil/PROJECTS/Mol_Feturizer/New_Systems/rnas/3SLQ

>  <Rbt.Executable>
rbdock ($Id: //depot/dev/client3/rdock/2013.1/src/exe/rbdock.cxx#4 $)

>  <Rbt.Library>
libRbt.so (2013.1, Build901 2013/11/27)

>  <Rbt.Parameter_File>
/export/apps/rDock/src/rDock_2013.1_src/data/scripts/dock_solv.prm

>  <Rbt.Receptor>
prm/pocket_docking_5.prm

>  <SCORE>
-10.824

>  <SCORE.INTER>
-5.48329

>  <SCORE.INTER.CONST>
1

>  <SCORE.INTER.POLAR>
0

>  <SCORE.INTER.ROT>
4

>  <SCORE.INTER.SOLV>
9.15686

>  <SCORE.INTER.VDW>
-12.9745

>  <SCORE.INTER.norm>
-0.22847

>  <SCORE.INTRA>
-5.34068

>  <SCORE.INTRA.DIHEDRAL>
-10.8838

>  <SCORE.INTRA.DIHEDRAL.0>
13.2525

>  <SCORE.INTRA.POLAR>
0

>  <SCORE.INTRA.POLAR.0>
0

>  <SCORE.INTRA.REPUL>
0

>  <SCORE.INTRA.REPUL.0>
0

>  <SCORE.INTRA.SOLV>
0.420726

>  <SCORE.INTRA.SOLV.lig_0>
-70.7221

>  <SCORE.INTRA.VDW>
-0.109169

>  <SCORE.INTRA.VDW.0>
-1.46337

>  <SCORE.INTRA.norm>
-0.222528

>  <SCORE.RESTR>
0

>  <SCORE.RESTR.CAVITY>
0

>  <SCORE.RESTR.norm>
0

>  <SCORE.SYSTEM>
0

>  <SCORE.SYSTEM.CONST>
0

>  <SCORE.SYSTEM.DIHEDRAL>
0

>  <SCORE.SYSTEM.SOLV>
0

>  <SCORE.SYSTEM.norm>
0

>  <SCORE.heavy>
24

>  <SCORE.norm>
-0.450999

>  <RMSD>
7.846

$$$$
ligand
 OpenBabel11021811483D
libRbt.so/2013.1/901 2013/11/27
 24 26  0  0  0  0  0  0  0  0999 V2000
   -8.0459   -5.4727    9.9680 P   0  0  1  0  0  0  0  0  0  0  0  0
   -9.4618   -5.3166   10.4803 O   0  0  0  0  0  0  0  0  0  0  0  0
   -7.8241   -6.5441    8.9266 O   0  5  0  0  0  0  0  0  0  0  0  0
   -7.3678   -4.1580    9.6126 O   0  0  0  0  0  0  0  0  0  0  0  0
   -5.8217   -6.3119   11.2574 C   0  0  0  0  0  0  0  0  0  0  0  0
   -7.2445   -6.1041   11.2315 O   0  0  0  0  0  0  0  0  0  0  0  0
   -5.4024   -6.8763   12.6180 C   0  0  1  0  0  0  0  0  0  0  0  0
   -5.9460   -6.1141   13.7032 O   0  0  0  0  0  0  0  0  0  0  0  0
   -5.8283   -8.3123   12.8716 C   0  0  1  0  0  0  0  0  0  0  0  0
   -4.7898   -9.1890   12.4248 O   0  0  0  0  0  0  0  0  0  0  0  0
   -5.9929   -8.3674   14.3816 C   0  0  1  0  0  0  0  0  0  0  0  0
   -4.7232   -8.5692   15.0184 O   0  0  0  0  0  0  0  0  0  0  0  0
   -6.4262   -6.9631   14.7530 C   0  0  2  0  0  0  0  0  0  0  0  0
  -10.7443   -8.7979   16.7639 N   0  0  0  0  0  0  0  0  0  0  0  0
   -9.4680   -9.2036   16.9533 C   0  0  1  0  0  0  0  0  0  0  0  0
   -9.2216  -10.2374   17.7893 N   0  0  0  0  0  0  0  0  0  0  0  0
   -8.4412   -8.5906   16.3192 N   0  0  0  0  0  0  0  0  0  0  0  0
   -8.6946   -7.5560   15.4825 C   0  0  1  0  0  0  0  0  0  0  0  0
   -9.9882   -7.1219   15.2692 C   0  0  2  0  0  0  0  0  0  0  0  0
  -11.0247   -7.7676   15.9330 C   0  0  0  0  0  0  0  0  0  0  0  0
  -12.2072   -7.4078   15.7688 O   0  0  0  0  0  0  0  0  0  0  0  0
   -9.9265   -6.0963   14.3956 N   0  0  0  0  0  0  0  0  0  0  0  0
   -8.6245   -5.8979   14.0836 C   0  0  0  0  0  0  0  0  0  0  0  0
   -7.8911   -6.7922   14.7539 N   0  0  1  0  0  0  0  0  0  0  0  0
  1  2  1  1  0  0  0
  1  3  1  0  0  0  0
  1  4  2  0  0  0  0
  1  6  1  0  0  0  0
  5  6  1  0  0  0  0
  7  5  1  6  0  0  0
  7  8  1  0  0  0  0
  7  9  1  0  0  0  0
  9 10  1  1  0  0  0
  9 11  1  0  0  0  0
 11 12  1  1  0  0  0
 11 13  1  0  0  0  0
 13  8  1  6  0  0  0
 13 24  1  0  0  0  0
 14 15  1  0  0  0  0
 14 20  1  0  0  0  0
 15 16  1  6  0  0  0
 15 17  1  0  0  0  0
 18 17  1  1  0  0  0
 18 19  1  0  0  0  0
 18 24  1  0  0  0  0
 19 20  1  6  0  0  0
 19 22  1  0  0  0  0
 20 21  2  0  0  0  0
 22 23  1  0  0  0  0
 24 23  1  1  0  0  0
M  CHG  1   3  -1
M  END
>  <CHROM.1>
-173.87683139,-49.62860823,178.02684608,171.10902848,-7.92133150,-7.11858053
13.47773768,1.20198935,0.26198767,-1.05759729

>  <Name>
ligand

>  <RI>
0

>  <Rbt.Current_Directory>
/home/itssahil/PROJECTS/Mol_Feturizer/New_Systems/rnas/3SLQ

>  <Rbt.Executable>
rbdock ($Id: //depot/dev/client3/rdock/2013.1/src/exe/rbdock.cxx#4 $)

>  <Rbt.Library>
libRbt.so (2013.1, Build901 2013/11/27)

>  <Rbt.Parameter_File>
/export/apps/rDock/src/rDock_2013.1_src/data/scripts/dock_solv.prm

>  <Rbt.Receptor>
prm/pocket_docking_5.prm

>  <SCORE>
-12.9566

>  <SCORE.INTER>
-6.68057

>  <SCORE.INTER.CONST>
1

>  <SCORE.INTER.POLAR>
0

>  <SCORE.INTER.ROT>
4

>  <SCORE.INTER.SOLV>
9.41756

>  <SCORE.INTER.VDW>
-13.8596

>  <SCORE.INTER.norm>
-0.278357

>  <SCORE.INTRA>
-6.27599

>  <SCORE.INTRA.DIHEDRAL>
-11.6006

>  <SCORE.INTRA.DIHEDRAL.0>
13.2525

>  <SCORE.INTRA.POLAR>
0

>  <SCORE.INTRA.POLAR.0>
0

>  <SCORE.INTRA.REPUL>
0

>  <SCORE.INTRA.REPUL.0>
0

>  <SCORE.INTRA.SOLV>
0.527461

>  <SCORE.INTRA.SOLV.lig_0>
-70.7221

>  <SCORE.INTRA.VDW>
-0.739408

>  <SCORE.INTRA.VDW.0>
-1.46337

>  <SCORE.INTRA.norm>
-0.261499

>  <SCORE.RESTR>
0

>  <SCORE.RESTR.CAVITY>
0

>  <SCORE.RESTR.norm>
0

>  <SCORE.SYSTEM>
0

>  <SCORE.SYSTEM.CONST>
0

>  <SCORE.SYSTEM.DIHEDRAL>
0

>  <SCORE.SYSTEM.SOLV>
0

>  <SCORE.SYSTEM.norm>
0

>  <SCORE.heavy>
24

>  <SCORE.norm>
-0.539856

>  <RMSD>
7.881

$$$$
ligand
 OpenBabel11021811483D
libRbt.so/2013.1/901 2013/11/27
 24 26  0  0  0  0  0  0  0  0999 V2000
   -8.5648   -6.7547   11.3023 P   0  0  1  0  0  0  0  0  0  0  0  0
   -7.7038   -7.9393   10.9191 O   0  0  0  0  0  0  0  0  0  0  0  0
   -9.6923   -7.0303   12.2691 O   0  5  0  0  0  0  0  0  0  0  0  0
   -7.7743   -5.5055   11.6617 O   0  0  0  0  0  0  0  0  0  0  0  0
   -8.7860   -6.1719    8.6708 C   0  0  0  0  0  0  0  0  0  0  0  0
   -9.3975   -6.4269    9.9472 O   0  0  0  0  0  0  0  0  0  0  0  0
   -8.8561   -7.4293    7.7992 C   0  0  1  0  0  0  0  0  0  0  0  0
   -8.0828   -8.5039    8.3482 O   0  0  0  0  0  0  0  0  0  0  0  0
  -10.2538   -7.9900    7.5997 C   0  0  1  0  0  0  0  0  0  0  0  0
  -10.8257   -7.4020    6.4275 O   0  0  0  0  0  0  0  0  0  0  0  0
  -10.0107   -9.4789    7.4143 C   0  0  1  0  0  0  0  0  0  0  0  0
   -9.6394   -9.7624    6.0578 O   0  0  0  0  0  0  0  0  0  0  0  0
   -8.7763   -9.7540    8.2499 C   0  0  2  0  0  0  0  0  0  0  0  0
   -6.8572  -12.0467   12.3871 N   0  0  0  0  0  0  0  0  0  0  0  0
   -6.2946  -11.8552   11.1722 C   0  0  1  0  0  0  0  0  0  0  0  0
   -5.0389  -12.3044   10.9484 N   0  0  0  0  0  0  0  0  0  0  0  0
   -6.9700  -11.2234   10.1839 N   0  0  0  0  0  0  0  0  0  0  0  0
   -8.2277  -10.7763   10.4140 C   0  0  1  0  0  0  0  0  0  0  0  0
   -8.8273  -10.9596   11.6445 C   0  0  2  0  0  0  0  0  0  0  0  0
   -8.1121  -11.6106   12.6428 C   0  0  0  0  0  0  0  0  0  0  0  0
   -8.6160  -11.7971   13.7680 O   0  0  0  0  0  0  0  0  0  0  0  0
  -10.0620  -10.4218   11.5713 N   0  0  0  0  0  0  0  0  0  0  0  0
  -10.2169   -9.9121   10.3271 C   0  0  0  0  0  0  0  0  0  0  0  0
   -9.0927  -10.1352    9.6390 N   0  0  1  0  0  0  0  0  0  0  0  0
  1  2  1  6  0  0  0
  1  3  1  0  0  0  0
  1  4  2  0  0  0  0
  1  6  1  0  0  0  0
  5  6  1  0  0  0  0
  7  5  1  1  0  0  0
  7  8  1  0  0  0  0
  7  9  1  0  0  0  0
  9 10  1  6  0  0  0
  9 11  1  0  0  0  0
 11 12  1  6  0  0  0
 11 13  1  0  0  0  0
 13  8  1  1  0  0  0
 13 24  1  0  0  0  0
 14 15  1  0  0  0  0
 14 20  1  0  0  0  0
 15 16  1  6  0  0  0
 15 17  1  0  0  0  0
 18 17  1  1  0  0  0
 18 19  1  0  0  0  0
 18 24  1  0  0  0  0
 19 20  1  6  0  0  0
 19 22  1  0  0  0  0
 20 21  2  0  0  0  0
 22 23  1  0  0  0  0
 24 23  1  1  0  0  0
M  CHG  1   3  -1
M  END
>  <CHROM.1>
-55.10710659,-64.89197823,100.54291717,-84.66837528,-8.62347438,-9.08027722
10.10260634,-3.02320373,1.20876929,-2.44264587

>  <Name>
ligand

>  <RI>
0

>  <Rbt.Current_Directory>
/home/itssahil/PROJECTS/Mol_Feturizer/New_Systems/rnas/3SLQ

>  <Rbt.Executable>
rbdock ($Id: //depot/dev/client3/rdock/2013.1/src/exe/rbdock.cxx#4 $)

>  <Rbt.Library>
libRbt.so (2013.1, Build901 2013/11/27)

>  <Rbt.Parameter_File>
/export/apps/rDock/src/rDock_2013.1_src/data/scripts/dock_solv.prm

>  <Rbt.Receptor>
prm/pocket_docking_7.prm

>  <SCORE>
-14.9918

>  <SCORE.INTER>
-9.83378

>  <SCORE.INTER.CONST>
1

>  <SCORE.INTER.POLAR>
0

>  <SCORE.INTER.ROT>
4

>  <SCORE.INTER.SOLV>
11.0476

>  <SCORE.INTER.VDW>
-16.5051

>  <SCORE.INTER.norm>
-0.409741

>  <SCORE.INTRA>
-5.15804

>  <SCORE.INTRA.DIHEDRAL>
-6.45591

>  <SCORE.INTRA.DIHEDRAL.0>
13.2525

>  <SCORE.INTRA.POLAR>
0

>  <SCORE.INTRA.POLAR.0>
0

>  <SCORE.INTRA.REPUL>
0

>  <SCORE.INTRA.REPUL.0>
0

>  <SCORE.INTRA.SOLV>
1.5522

>  <SCORE.INTRA.SOLV.lig_0>
-70.7221

>  <SCORE.INTRA.VDW>
-2.70618

>  <SCORE.INTRA.VDW.0>
-1.46337

>  <SCORE.INTRA.norm>
-0.214918

>  <SCORE.RESTR>
0

>  <SCORE.RESTR.CAVITY>
0

>  <SCORE.RESTR.norm>
0

>  <SCORE.SYSTEM>
0

>  <SCORE.SYSTEM.CONST>
0

>  <SCORE.SYSTEM.DIHEDRAL>
0

>  <SCORE.SYSTEM.SOLV>
0

>  <SCORE.SYSTEM.norm>
0

>  <SCORE.heavy>
24

>  <SCORE.norm>
-0.624659

>  <RMSD>
7.930

$$$$
ligand
 OpenBabel11021811483D
libRbt.so/2013.1/901 2013/11/27
 24 26  0  0  0  0  0  0  0  0999 V2000
   -7.9731   -5.7129   11.3818 P   0  0  1  0  0  0  0  0  0  0  0  0
   -8.8883   -6.1660   12.4991 O   0  0  0  0  0  0  0  0  0  0  0  0
   -8.2589   -4.3522   10.7912 O   0  5  0  0  0  0  0  0  0  0  0  0
   -6.4945   -5.9319   11.6655 O   0  0  0  0  0  0  0  0  0  0  0  0
   -7.9102   -6.4837    8.7903 C   0  0  0  0  0  0  0  0  0  0  0  0
   -8.3746   -6.6764   10.1377 O   0  0  0  0  0  0  0  0  0  0  0  0
   -8.3663   -7.6513    7.9103 C   0  0  1  0  0  0  0  0  0  0  0  0
   -7.8604   -8.9061    8.3829 O   0  0  0  0  0  0  0  0  0  0  0  0
   -9.8721   -7.8265    7.8130 C   0  0  1  0  0  0  0  0  0  0  0  0
  -10.3549   -7.0728    6.6969 O   0  0  0  0  0  0  0  0  0  0  0  0
  -10.0371   -9.3208    7.5895 C   0  0  1  0  0  0  0  0  0  0  0  0
   -9.8505   -9.6455    6.2046 O   0  0  0  0  0  0  0  0  0  0  0  0
   -8.8593   -9.9318    8.3225 C   0  0  2  0  0  0  0  0  0  0  0  0
   -6.8701  -11.9967   12.5457 N   0  0  0  0  0  0  0  0  0  0  0  0
   -6.3148  -11.8394   11.3225 C   0  0  1  0  0  0  0  0  0  0  0  0
   -5.0471  -12.2615   11.1142 N   0  0  0  0  0  0  0  0  0  0  0  0
   -7.0093  -11.2683   10.3107 N   0  0  0  0  0  0  0  0  0  0  0  0
   -8.2789  -10.8480   10.5254 C   0  0  1  0  0  0  0  0  0  0  0  0
   -8.8715  -10.9976   11.7639 C   0  0  2  0  0  0  0  0  0  0  0  0
   -8.1366  -11.5864   12.7863 C   0  0  0  0  0  0  0  0  0  0  0  0
   -8.6335  -11.7406   13.9195 O   0  0  0  0  0  0  0  0  0  0  0  0
  -10.1210  -10.4986   11.6718 N   0  0  0  0  0  0  0  0  0  0  0  0
  -10.2920  -10.0451   10.4081 C   0  0  0  0  0  0  0  0  0  0  0  0
   -9.1629  -10.2643    9.7269 N   0  0  1  0  0  0  0  0  0  0  0  0
  1  2  1  1  0  0  0
  1  3  1  0  0  0  0
  1  4  2  0  0  0  0
  1  6  1  0  0  0  0
  5  6  1  0  0  0  0
  7  5  1  1  0  0  0
  7  8  1  0  0  0  0
  7  9  1  0  0  0  0
  9 10  1  6  0  0  0
  9 11  1  0  0  0  0
 11 12  1  6  0  0  0
 11 13  1  0  0  0  0
 13  8  1  1  0  0  0
 13 24  1  0  0  0  0
 14 15  1  0  0  0  0
 14 20  1  0  0  0  0
 15 16  1  6  0  0  0
 15 17  1  0  0  0  0
 18 17  1  1  0  0  0
 18 19  1  0  0  0  0
 18 24  1  0  0  0  0
 19 20  1  6  0  0  0
 19 22  1  0  0  0  0
 20 21  2  0  0  0  0
 22 23  1  0  0  0  0
 24 23  1  1  0  0  0
M  CHG  1   3  -1
M  END
>  <CHROM.1>
170.15312385,-59.78826053,174.25815680,-67.12767756,-8.38823997,-8.84307750
10.22144364,-2.12970546,1.19294908,-3.09049633

>  <Name>
ligand

>  <RI>
0

>  <Rbt.Current_Directory>
/home/itssahil/PROJECTS/Mol_Feturizer/New_Systems/rnas/3SLQ

>  <Rbt.Executable>
rbdock ($Id: //depot/dev/client3/rdock/2013.1/src/exe/rbdock.cxx#4 $)

>  <Rbt.Library>
libRbt.so (2013.1, Build901 2013/11/27)

>  <Rbt.Parameter_File>
/export/apps/rDock/src/rDock_2013.1_src/data/scripts/dock_solv.prm

>  <Rbt.Receptor>
prm/pocket_docking_7.prm

>  <SCORE>
-16.0558

>  <SCORE.INTER>
-9.97708

>  <SCORE.INTER.CONST>
1

>  <SCORE.INTER.POLAR>
0

>  <SCORE.INTER.ROT>
4

>  <SCORE.INTER.SOLV>
13.0072

>  <SCORE.INTER.VDW>
-17.2538

>  <SCORE.INTER.norm>
-0.415712

>  <SCORE.INTRA>
-6.07877

>  <SCORE.INTRA.DIHEDRAL>
-11.7435

>  <SCORE.INTRA.DIHEDRAL.0>
13.2525

>  <SCORE.INTRA.POLAR>
0

>  <SCORE.INTRA.POLAR.0>
0

>  <SCORE.INTRA.REPUL>
0

>  <SCORE.INTRA.REPUL.0>
0

>  <SCORE.INTRA.SOLV>
0.605621

>  <SCORE.INTRA.SOLV.lig_0>
-70.7221

>  <SCORE.INTRA.VDW>
-0.509816

>  <SCORE.INTRA.VDW.0>
-1.46337

>  <SCORE.INTRA.norm>
-0.253282

>  <SCORE.RESTR>
0

>  <SCORE.RESTR.CAVITY>
0

>  <SCORE.RESTR.norm>
0

>  <SCORE.SYSTEM>
0

>  <SCORE.SYSTEM.CONST>
0

>  <SCORE.SYSTEM.DIHEDRAL>
0

>  <SCORE.SYSTEM.SOLV>
0

>  <SCORE.SYSTEM.norm>
0

>  <SCORE.heavy>
24

>  <SCORE.norm>
-0.668994

>  <RMSD>
7.932

$$$$
ligand
 OpenBabel11021811483D
libRbt.so/2013.1/901 2013/11/27
 24 26  0  0  0  0  0  0  0  0999 V2000
   -4.8201  -11.8513   10.3268 P   0  0  1  0  0  0  0  0  0  0  0  0
   -5.7260  -12.8898    9.7004 O   0  0  0  0  0  0  0  0  0  0  0  0
   -3.9070  -12.3352   11.4285 O   0  5  0  0  0  0  0  0  0  0  0  0
   -4.1057  -10.9640    9.3183 O   0  0  0  0  0  0  0  0  0  0  0  0
   -6.9673  -10.2281   10.5886 C   0  0  0  0  0  0  0  0  0  0  0  0
   -5.8383  -10.9056   11.1671 O   0  0  0  0  0  0  0  0  0  0  0  0
   -7.6275   -9.3277   11.6369 C   0  0  1  0  0  0  0  0  0  0  0  0
   -8.6629   -8.5160   11.0684 O   0  0  0  0  0  0  0  0  0  0  0  0
   -8.2750  -10.0664   12.7957 C   0  0  1  0  0  0  0  0  0  0  0  0
   -7.3120  -10.2210   13.8424 O   0  0  0  0  0  0  0  0  0  0  0  0
   -9.4069   -9.1415   13.2121 C   0  0  1  0  0  0  0  0  0  0  0  0
   -8.9167   -8.1024   14.0713 O   0  0  0  0  0  0  0  0  0  0  0  0
   -9.8128   -8.4575   11.9216 C   0  0  2  0  0  0  0  0  0  0  0  0
  -13.0356   -8.0818    7.9810 N   0  0  0  0  0  0  0  0  0  0  0  0
  -12.1343   -7.1851    8.4424 C   0  0  1  0  0  0  0  0  0  0  0  0
  -12.0076   -5.9943    7.8143 N   0  0  0  0  0  0  0  0  0  0  0  0
  -11.3629   -7.4641    9.5191 N   0  0  0  0  0  0  0  0  0  0  0  0
  -11.4950   -8.6585   10.1443 C   0  0  1  0  0  0  0  0  0  0  0  0
  -12.4084   -9.5922    9.6957 C   0  0  2  0  0  0  0  0  0  0  0  0
  -13.1878   -9.2815    8.5876 C   0  0  0  0  0  0  0  0  0  0  0  0
  -14.0246  -10.0957    8.1500 O   0  0  0  0  0  0  0  0  0  0  0  0
  -12.3168  -10.6636   10.5097 N   0  0  0  0  0  0  0  0  0  0  0  0
  -11.3638  -10.3995   11.4337 C   0  0  0  0  0  0  0  0  0  0  0  0
  -10.8748   -9.1783   11.1954 N   0  0  1  0  0  0  0  0  0  0  0  0
  1  2  1  6  0  0  0
  1  3  1  0  0  0  0
  1  4  2  0  0  0  0
  1  6  1  0  0  0  0
  5  6  1  0  0  0  0
  7  5  1  6  0  0  0
  7  8  1  0  0  0  0
  7  9  1  0  0  0  0
  9 10  1  1  0  0  0
  9 11  1  0  0  0  0
 11 12  1  1  0  0  0
 11 13  1  0  0  0  0
 13  8  1  6  0  0  0
 13 24  1  0  0  0  0
 14 15  1  0  0  0  0
 14 20  1  0  0  0  0
 15 16  1  1  0  0  0
 15 17  1  0  0  0  0
 18 17  1  6  0  0  0
 18 19  1  0  0  0  0
 18 24  1  0  0  0  0
 19 20  1  1  0  0  0
 19 22  1  0  0  0  0
 20 21  2  0  0  0  0
 22 23  1  0  0  0  0
 24 23  1  6  0  0  0
M  CHG  1   3  -1
M  END
>  <CHROM.1>
-56.36849509,173.33778216,-174.82865235,-74.16066665,-9.01744567,-9.73675916
10.62151470,-0.11344480,0.43087673,-1.86075616

>  <Name>
ligand

>  <RI>
0

>  <Rbt.Current_Directory>
/home/itssahil/PROJECTS/Mol_Feturizer/New_Systems/rnas/3SLQ

>  <Rbt.Executable>
rbdock ($Id: //depot/dev/client3/rdock/2013.1/src/exe/rbdock.cxx#4 $)

>  <Rbt.Library>
libRbt.so (2013.1, Build901 2013/11/27)

>  <Rbt.Parameter_File>
/export/apps/rDock/src/rDock_2013.1_src/data/scripts/dock_solv.prm

>  <Rbt.Receptor>
prm/pocket_docking_7.prm

>  <SCORE>
-16.81

>  <SCORE.INTER>
-10.6718

>  <SCORE.INTER.CONST>
1

>  <SCORE.INTER.POLAR>
0

>  <SCORE.INTER.ROT>
4

>  <SCORE.INTER.SOLV>
12.86

>  <SCORE.INTER.VDW>
-17.6678

>  <SCORE.INTER.norm>
-0.444657

>  <SCORE.INTRA>
-6.13826

>  <SCORE.INTRA.DIHEDRAL>
-11.7516

>  <SCORE.INTRA.DIHEDRAL.0>
13.2525

>  <SCORE.INTRA.POLAR>
0

>  <SCORE.INTRA.POLAR.0>
0

>  <SCORE.INTRA.REPUL>
0

>  <SCORE.INTRA.REPUL.0>
0

>  <SCORE.INTRA.SOLV>
-0.0142637

>  <SCORE.INTRA.SOLV.lig_0>
-70.7221

>  <SCORE.INTRA.VDW>
-0.255303

>  <SCORE.INTRA.VDW.0>
-1.46337

>  <SCORE.INTRA.norm>
-0.255761

>  <SCORE.RESTR>
0

>  <SCORE.RESTR.CAVITY>
0

>  <SCORE.RESTR.norm>
0

>  <SCORE.SYSTEM>
0

>  <SCORE.SYSTEM.CONST>
0

>  <SCORE.SYSTEM.DIHEDRAL>
0

>  <SCORE.SYSTEM.SOLV>
0

>  <SCORE.SYSTEM.norm>
0

>  <SCORE.heavy>
24

>  <SCORE.norm>
-0.700418

>  <RMSD>
7.935

$$$$
ligand
 OpenBabel11021811483D
libRbt.so/2013.1/901 2013/11/27
 24 26  0  0  0  0  0  0  0  0999 V2000
   -8.0259   -5.6813   11.3518 P   0  0  1  0  0  0  0  0  0  0  0  0
   -8.9048   -6.1742   12.4815 O   0  0  0  0  0  0  0  0  0  0  0  0
   -8.3697   -4.3274   10.7767 O   0  5  0  0  0  0  0  0  0  0  0  0
   -6.5358   -5.8499   11.6081 O   0  0  0  0  0  0  0  0  0  0  0  0
   -7.9365   -6.4630    8.7644 C   0  0  0  0  0  0  0  0  0  0  0  0
   -8.4152   -6.6496   10.1076 O   0  0  0  0  0  0  0  0  0  0  0  0
   -8.3821   -7.6352    7.8852 C   0  0  1  0  0  0  0  0  0  0  0  0
   -7.8681   -8.8856    8.3608 O   0  0  0  0  0  0  0  0  0  0  0  0
   -9.8864   -7.8216    7.7849 C   0  0  1  0  0  0  0  0  0  0  0  0
  -10.3723   -7.0731    6.6666 O   0  0  0  0  0  0  0  0  0  0  0  0
  -10.0400   -9.3174    7.5633 C   0  0  1  0  0  0  0  0  0  0  0  0
   -9.8480   -9.6428    6.1792 O   0  0  0  0  0  0  0  0  0  0  0  0
   -8.8593   -9.9186    8.2998 C   0  0  2  0  0  0  0  0  0  0  0  0
   -6.8769  -11.9971   12.5195 N   0  0  0  0  0  0  0  0  0  0  0  0
   -6.3216  -11.8410   11.2961 C   0  0  1  0  0  0  0  0  0  0  0  0
   -5.0560  -12.2687   11.0866 N   0  0  0  0  0  0  0  0  0  0  0  0
   -7.0141  -11.2657   10.2854 N   0  0  0  0  0  0  0  0  0  0  0  0
   -8.2818  -10.8399   10.5014 C   0  0  1  0  0  0  0  0  0  0  0  0
   -8.8742  -10.9880   11.7400 C   0  0  2  0  0  0  0  0  0  0  0  0
   -8.1414  -11.5812   12.7614 C   0  0  0  0  0  0  0  0  0  0  0  0
   -8.6382  -11.7344   13.8947 O   0  0  0  0  0  0  0  0  0  0  0  0
  -10.1215  -10.4833   11.6493 N   0  0  0  0  0  0  0  0  0  0  0  0
  -10.2912  -10.0277   10.3861 C   0  0  0  0  0  0  0  0  0  0  0  0
   -9.1635  -10.2512    9.7040 N   0  0  1  0  0  0  0  0  0  0  0  0
  1  2  1  1  0  0  0
  1  3  1  0  0  0  0
  1  4  2  0  0  0  0
  1  6  1  0  0  0  0
  5  6  1  0  0  0  0
  7  5  1  1  0  0  0
  7  8  1  0  0  0  0
  7  9  1  0  0  0  0
  9 10  1  6  0  0  0
  9 11  1  0  0  0  0
 11 12  1  6  0  0  0
 11 13  1  0  0  0  0
 13  8  1  1  0  0  0
 13 24  1  0  0  0  0
 14 15  1  0  0  0  0
 14 20  1  0  0  0  0
 15 16  1  6  0  0  0
 15 17  1  0  0  0  0
 18 17  1  1  0  0  0
 18 19  1  0  0  0  0
 18 24  1  0  0  0  0
 19 20  1  6  0  0  0
 19 22  1  0  0  0  0
 20 21  2  0  0  0  0
 22 23  1  0  0  0  0
 24 23  1  1  0  0  0
M  CHG  1   3  -1
M  END
>  <CHROM.1>
172.85590845,-60.43263703,174.14993436,-67.84158161,-8.40714571,-8.82894253
10.19504157,-2.14941161,1.19913243,-3.06137782

>  <Name>
ligand

>  <RI>
0

>  <Rbt.Current_Directory>
/home/itssahil/PROJECTS/Mol_Feturizer/New_Systems/rnas/3SLQ

>  <Rbt.Executable>
rbdock ($Id: //depot/dev/client3/rdock/2013.1/src/exe/rbdock.cxx#4 $)

>  <Rbt.Library>
libRbt.so (2013.1, Build901 2013/11/27)

>  <Rbt.Parameter_File>
/export/apps/rDock/src/rDock_2013.1_src/data/scripts/dock_solv.prm

>  <Rbt.Receptor>
prm/pocket_docking_7.prm

>  <SCORE>
-16.0383

>  <SCORE.INTER>
-9.89819

>  <SCORE.INTER.CONST>
1

>  <SCORE.INTER.POLAR>
0

>  <SCORE.INTER.ROT>
4

>  <SCORE.INTER.SOLV>
13.448

>  <SCORE.INTER.VDW>
-17.3481

>  <SCORE.INTER.norm>
-0.412424

>  <SCORE.INTRA>
-6.1401

>  <SCORE.INTRA.DIHEDRAL>
-11.8099

>  <SCORE.INTRA.DIHEDRAL.0>
13.2525

>  <SCORE.INTRA.POLAR>
0

>  <SCORE.INTRA.POLAR.0>
0

>  <SCORE.INTRA.REPUL>
0

>  <SCORE.INTRA.REPUL.0>
0

>  <SCORE.INTRA.SOLV>
0.6063

>  <SCORE.INTRA.SOLV.lig_0>
-70.7221

>  <SCORE.INTRA.VDW>
-0.538288

>  <SCORE.INTRA.VDW.0>
-1.46337

>  <SCORE.INTRA.norm>
-0.255837

>  <SCORE.RESTR>
0

>  <SCORE.RESTR.CAVITY>
0

>  <SCORE.RESTR.norm>
0

>  <SCORE.SYSTEM>
0

>  <SCORE.SYSTEM.CONST>
0

>  <SCORE.SYSTEM.DIHEDRAL>
0

>  <SCORE.SYSTEM.SOLV>
0

>  <SCORE.SYSTEM.norm>
0

>  <SCORE.heavy>
24

>  <SCORE.norm>
-0.668262

>  <RMSD>
7.936

$$$$
ligand
 OpenBabel11021811483D
libRbt.so/2013.1/901 2013/11/27
 24 26  0  0  0  0  0  0  0  0999 V2000
   -9.6426  -10.2975   10.6719 P   0  0  1  0  0  0  0  0  0  0  0  0
   -8.8857  -10.4365    9.3684 O   0  0  0  0  0  0  0  0  0  0  0  0
  -11.1388  -10.1203   10.5628 O   0  5  0  0  0  0  0  0  0  0  0  0
   -9.2470  -11.3176   11.7291 O   0  0  0  0  0  0  0  0  0  0  0  0
   -7.8389   -8.4510   11.4784 C   0  0  0  0  0  0  0  0  0  0  0  0
   -9.2009   -8.8349   11.2220 O   0  0  0  0  0  0  0  0  0  0  0  0
   -7.7996   -7.0467   12.0885 C   0  0  1  0  0  0  0  0  0  0  0  0
   -8.5895   -6.9600   13.2813 O   0  0  0  0  0  0  0  0  0  0  0  0
   -6.4146   -6.5587   12.4774 C   0  0  1  0  0  0  0  0  0  0  0  0
   -5.8401   -5.8628   11.3672 O   0  0  0  0  0  0  0  0  0  0  0  0
   -6.6878   -5.6209   13.6419 C   0  0  1  0  0  0  0  0  0  0  0  0
   -7.0747   -4.3248   13.1633 O   0  0  0  0  0  0  0  0  0  0  0  0
   -7.9211   -6.2065   14.3005 C   0  0  2  0  0  0  0  0  0  0  0  0
   -9.9999   -8.9946   18.0370 N   0  0  0  0  0  0  0  0  0  0  0  0
  -10.5871   -8.1184   17.1903 C   0  0  1  0  0  0  0  0  0  0  0  0
  -11.9187   -7.9022   17.2836 N   0  0  0  0  0  0  0  0  0  0  0  0
   -9.8615   -7.4593   16.2569 N   0  0  0  0  0  0  0  0  0  0  0  0
   -8.5279   -7.6797   16.1689 C   0  0  1  0  0  0  0  0  0  0  0  0
   -7.9020   -8.5676   17.0216 C   0  0  2  0  0  0  0  0  0  0  0  0
   -8.6697   -9.2323   17.9707 C   0  0  0  0  0  0  0  0  0  0  0  0
   -8.1445  -10.0420   18.7601 O   0  0  0  0  0  0  0  0  0  0  0  0
   -6.5916   -8.5717   16.7023 N   0  0  0  0  0  0  0  0  0  0  0  0
   -6.4153   -7.7121   15.6718 C   0  0  0  0  0  0  0  0  0  0  0  0
   -7.6019   -7.1810   15.3604 N   0  0  1  0  0  0  0  0  0  0  0  0
  1  2  1  6  0  0  0
  1  3  1  0  0  0  0
  1  4  2  0  0  0  0
  1  6  1  0  0  0  0
  5  6  1  0  0  0  0
  7  5  1  1  0  0  0
  7  8  1  0  0  0  0
  7  9  1  0  0  0  0
  9 10  1  6  0  0  0
  9 11  1  0  0  0  0
 11 12  1  6  0  0  0
 11 13  1  0  0  0  0
 13  8  1  6  0  0  0
 13 24  1  0  0  0  0
 14 15  1  0  0  0  0
 14 20  1  0  0  0  0
 15 16  1  1  0  0  0
 15 17  1  0  0  0  0
 18 17  1  6  0  0  0
 18 19  1  0  0  0  0
 18 24  1  0  0  0  0
 19 20  1  1  0  0  0
 19 22  1  0  0  0  0
 20 21  2  0  0  0  0
 22 23  1  0  0  0  0
 24 23  1  6  0  0  0
M  CHG  1   3  -1
M  END
>  <CHROM.1>
-57.85462476,56.29045355,-175.63347194,-73.49115247,-8.51276459,-8.20168958
13.92917476,1.57427685,-0.89515646,-1.69724709

>  <Name>
ligand

>  <RI>
0

>  <Rbt.Current_Directory>
/home/itssahil/PROJECTS/Mol_Feturizer/New_Systems/rnas/3SLQ

>  <Rbt.Executable>
rbdock ($Id: //depot/dev/client3/rdock/2013.1/src/exe/rbdock.cxx#4 $)

>  <Rbt.Library>
libRbt.so (2013.1, Build901 2013/11/27)

>  <Rbt.Parameter_File>
/export/apps/rDock/src/rDock_2013.1_src/data/scripts/dock_solv.prm

>  <Rbt.Receptor>
prm/pocket_docking_7.prm

>  <SCORE>
-13.8094

>  <SCORE.INTER>
-7.63442

>  <SCORE.INTER.CONST>
1

>  <SCORE.INTER.POLAR>
0

>  <SCORE.INTER.ROT>
4

>  <SCORE.INTER.SOLV>
16.0741

>  <SCORE.INTER.VDW>
-16.7143

>  <SCORE.INTER.norm>
-0.318101

>  <SCORE.INTRA>
-6.17497

>  <SCORE.INTRA.DIHEDRAL>
-11.9127

>  <SCORE.INTRA.DIHEDRAL.0>
13.2525

>  <SCORE.INTRA.POLAR>
0

>  <SCORE.INTRA.POLAR.0>
0

>  <SCORE.INTRA.REPUL>
0

>  <SCORE.INTRA.REPUL.0>
0

>  <SCORE.INTRA.SOLV>
-0.0781637

>  <SCORE.INTRA.SOLV.lig_0>
-70.7221

>  <SCORE.INTRA.VDW>
-0.179517

>  <SCORE.INTRA.VDW.0>
-1.46337

>  <SCORE.INTRA.norm>
-0.25729

>  <SCORE.RESTR>
0

>  <SCORE.RESTR.CAVITY>
0

>  <SCORE.RESTR.norm>
0

>  <SCORE.SYSTEM>
0

>  <SCORE.SYSTEM.CONST>
0

>  <SCORE.SYSTEM.DIHEDRAL>
0

>  <SCORE.SYSTEM.SOLV>
0

>  <SCORE.SYSTEM.norm>
0

>  <SCORE.heavy>
24

>  <SCORE.norm>
-0.575391

>  <RMSD>
8.002

$$$$
ligand
 OpenBabel11021811483D
libRbt.so/2013.1/901 2013/11/27
 24 26  0  0  0  0  0  0  0  0999 V2000
  -10.0805   -9.0671    6.7747 P   0  0  1  0  0  0  0  0  0  0  0  0
   -9.2528  -10.2818    6.4127 O   0  0  0  0  0  0  0  0  0  0  0  0
   -9.4120   -7.7239    6.5993 O   0  5  0  0  0  0  0  0  0  0  0  0
  -11.4969   -9.0958    6.2201 O   0  0  0  0  0  0  0  0  0  0  0  0
  -11.3506   -8.7273    9.1379 C   0  0  0  0  0  0  0  0  0  0  0  0
  -10.1930   -9.1435    8.3929 O   0  0  0  0  0  0  0  0  0  0  0  0
  -11.0557   -8.7953   10.6393 C   0  0  1  0  0  0  0  0  0  0  0  0
  -10.5548  -10.0806   11.0279 O   0  0  0  0  0  0  0  0  0  0  0  0
  -10.0311   -7.7889   11.1344 C   0  0  1  0  0  0  0  0  0  0  0  0
  -10.7106   -6.5959   11.5365 O   0  0  0  0  0  0  0  0  0  0  0  0
   -9.3929   -8.4934   12.3204 C   0  0  1  0  0  0  0  0  0  0  0  0
  -10.2026   -8.3353   13.4941 O   0  0  0  0  0  0  0  0  0  0  0  0
   -9.4699   -9.9630   11.9566 C   0  0  2  0  0  0  0  0  0  0  0  0
   -4.3866  -10.3270   12.2469 N   0  0  0  0  0  0  0  0  0  0  0  0
   -5.2605   -9.7817   13.1236 C   0  0  1  0  0  0  0  0  0  0  0  0
   -4.7927   -9.2399   14.2707 N   0  0  0  0  0  0  0  0  0  0  0  0
   -6.5895   -9.7721   12.8671 N   0  0  0  0  0  0  0  0  0  0  0  0
   -7.0519  -10.3159   11.7159 C   0  0  1  0  0  0  0  0  0  0  0  0
   -6.1821  -10.8779   10.8021 C   0  0  2  0  0  0  0  0  0  0  0  0
   -4.8222  -10.8759   11.0896 C   0  0  0  0  0  0  0  0  0  0  0  0
   -4.0026  -11.3727   10.2921 O   0  0  0  0  0  0  0  0  0  0  0  0
   -6.9233  -11.3253    9.7680 N   0  0  0  0  0  0  0  0  0  0  0  0
   -8.2205  -11.0522   10.0415 C   0  0  0  0  0  0  0  0  0  0  0  0
   -8.2795  -10.4407   11.2288 N   0  0  1  0  0  0  0  0  0  0  0  0
  1  2  1  6  0  0  0
  1  3  1  0  0  0  0
  1  4  2  0  0  0  0
  1  6  1  0  0  0  0
  5  6  1  0  0  0  0
  7  5  1  6  0  0  0
  7  8  1  0  0  0  0
  7  9  1  0  0  0  0
  9 10  1  1  0  0  0
  9 11  1  0  0  0  0
 11 12  1  1  0  0  0
 11 13  1  0  0  0  0
 13  8  1  6  0  0  0
 13 24  1  0  0  0  0
 14 15  1  0  0  0  0
 14 20  1  0  0  0  0
 15 16  1  6  0  0  0
 15 17  1  0  0  0  0
 18 17  1  1  0  0  0
 18 19  1  0  0  0  0
 18 24  1  0  0  0  0
 19 20  1  6  0  0  0
 19 22  1  0  0  0  0
 20 21  2  0  0  0  0
 22 23  1  0  0  0  0
 24 23  1  1  0  0  0
M  CHG  1   3  -1
M  END
>  <CHROM.1>
-145.38977992,-52.82837271,-173.89408761,171.05025823,-8.49562556,-9.49632129
10.27353355,-2.47502525,-0.43160467,1.36891545

>  <Name>
ligand

>  <RI>
0

>  <Rbt.Current_Directory>
/home/itssahil/PROJECTS/Mol_Feturizer/New_Systems/rnas/3SLQ

>  <Rbt.Executable>
rbdock ($Id: //depot/dev/client3/rdock/2013.1/src/exe/rbdock.cxx#4 $)

>  <Rbt.Library>
libRbt.so (2013.1, Build901 2013/11/27)

>  <Rbt.Parameter_File>
/export/apps/rDock/src/rDock_2013.1_src/data/scripts/dock_solv.prm

>  <Rbt.Receptor>
prm/pocket_docking_5.prm

>  <SCORE>
-17.4924

>  <SCORE.INTER>
-12.0265

>  <SCORE.INTER.CONST>
1

>  <SCORE.INTER.POLAR>
0

>  <SCORE.INTER.ROT>
4

>  <SCORE.INTER.SOLV>
14.1

>  <SCORE.INTER.VDW>
-18.9843

>  <SCORE.INTER.norm>
-0.501104

>  <SCORE.INTRA>
-5.46587

>  <SCORE.INTRA.DIHEDRAL>
-10.2054

>  <SCORE.INTRA.DIHEDRAL.0>
13.2525

>  <SCORE.INTRA.POLAR>
0

>  <SCORE.INTRA.POLAR.0>
0

>  <SCORE.INTRA.REPUL>
0

>  <SCORE.INTRA.REPUL.0>
0

>  <SCORE.INTRA.SOLV>
0.538809

>  <SCORE.INTRA.SOLV.lig_0>
-70.7221

>  <SCORE.INTRA.VDW>
-0.632563

>  <SCORE.INTRA.VDW.0>
-1.46337

>  <SCORE.INTRA.norm>
-0.227745

>  <SCORE.RESTR>
0

>  <SCORE.RESTR.CAVITY>
0

>  <SCORE.RESTR.norm>
0

>  <SCORE.SYSTEM>
0

>  <SCORE.SYSTEM.CONST>
0

>  <SCORE.SYSTEM.DIHEDRAL>
0

>  <SCORE.SYSTEM.SOLV>
0

>  <SCORE.SYSTEM.norm>
0

>  <SCORE.heavy>
24

>  <SCORE.norm>
-0.728849

>  <RMSD>
8.004

$$$$
ligand
 OpenBabel11021811483D
libRbt.so/2013.1/901 2013/11/27
 24 26  0  0  0  0  0  0  0  0999 V2000
   -6.7189  -10.9407   12.1954 P   0  0  1  0  0  0  0  0  0  0  0  0
   -7.2789  -12.2907   12.5896 O   0  0  0  0  0  0  0  0  0  0  0  0
   -5.3986  -10.5545   12.8195 O   0  5  0  0  0  0  0  0  0  0  0  0
   -6.7657  -10.6639   10.7002 O   0  0  0  0  0  0  0  0  0  0  0  0
   -9.1255   -9.7878   12.6341 C   0  0  0  0  0  0  0  0  0  0  0  0
   -7.7182   -9.8819   12.9148 O   0  0  0  0  0  0  0  0  0  0  0  0
   -9.7578   -8.6954   13.5017 C   0  0  1  0  0  0  0  0  0  0  0  0
   -9.4165   -8.8476   14.8853 O   0  0  0  0  0  0  0  0  0  0  0  0
   -9.3570   -7.2770   13.1338 C   0  0  1  0  0  0  0  0  0  0  0  0
  -10.2913   -6.7645   12.1793 O   0  0  0  0  0  0  0  0  0  0  0  0
   -9.4471   -6.5335   14.4564 C   0  0  1  0  0  0  0  0  0  0  0  0
  -10.8021   -6.1445   14.7230 O   0  0  0  0  0  0  0  0  0  0  0  0
   -9.1053   -7.5869   15.4914 C   0  0  2  0  0  0  0  0  0  0  0  0
   -5.3873  -10.7402   17.0044 N   0  0  0  0  0  0  0  0  0  0  0  0
   -6.7037  -10.9901   16.8198 C   0  0  1  0  0  0  0  0  0  0  0  0
   -7.1762  -12.2372   17.0433 N   0  0  0  0  0  0  0  0  0  0  0  0
   -7.5482  -10.0120   16.4168 N   0  0  0  0  0  0  0  0  0  0  0  0
   -7.0689   -8.7646   16.1952 C   0  0  1  0  0  0  0  0  0  0  0  0
   -5.7297   -8.4809   16.3774 C   0  0  2  0  0  0  0  0  0  0  0  0
   -4.8832   -9.5030   16.7908 C   0  0  0  0  0  0  0  0  0  0  0  0
   -3.6675   -9.2900   16.9674 O   0  0  0  0  0  0  0  0  0  0  0  0
   -5.5552   -7.1749   16.0898 N   0  0  0  0  0  0  0  0  0  0  0  0
   -6.7576   -6.6672   15.7313 C   0  0  0  0  0  0  0  0  0  0  0  0
   -7.6644   -7.6471   15.7997 N   0  0  1  0  0  0  0  0  0  0  0  0
  1  2  1  1  0  0  0
  1  3  1  0  0  0  0
  1  4  2  0  0  0  0
  1  6  1  0  0  0  0
  5  6  1  0  0  0  0
  7  5  1  6  0  0  0
  7  8  1  0  0  0  0
  7  9  1  0  0  0  0
  9 10  1  6  0  0  0
  9 11  1  0  0  0  0
 11 12  1  1  0  0  0
 11 13  1  0  0  0  0
 13  8  1  6  0  0  0
 13 24  1  0  0  0  0
 14 15  1  0  0  0  0
 14 20  1  0  0  0  0
 15 16  1  1  0  0  0
 15 17  1  0  0  0  0
 18 17  1  6  0  0  0
 18 19  1  0  0  0  0
 18 24  1  0  0  0  0
 19 20  1  1  0  0  0
 19 22  1  0  0  0  0
 20 21  2  0  0  0  0
 22 23  1  0  0  0  0
 24 23  1  6  0  0  0
M  CHG  1   3  -1
M  END
>  <CHROM.1>
-61.37376977,-50.48715603,179.39511906,-35.97556174,-7.45805523,-9.18441263
14.51004424,-0.14818450,0.73764616,-2.18637490

>  <Name>
ligand

>  <RI>
0

>  <Rbt.Current_Directory>
/home/itssahil/PROJECTS/Mol_Feturizer/New_Systems/rnas/3SLQ

>  <Rbt.Executable>
rbdock ($Id: //depot/dev/client3/rdock/2013.1/src/exe/rbdock.cxx#4 $)

>  <Rbt.Library>
libRbt.so (2013.1, Build901 2013/11/27)

>  <Rbt.Parameter_File>
/export/apps/rDock/src/rDock_2013.1_src/data/scripts/dock_solv.prm

>  <Rbt.Receptor>
prm/pocket_docking_6.prm

>  <SCORE>
-11.8084

>  <SCORE.INTER>
-4.80957

>  <SCORE.INTER.CONST>
1

>  <SCORE.INTER.POLAR>
0

>  <SCORE.INTER.ROT>
4

>  <SCORE.INTER.SOLV>
5.73602

>  <SCORE.INTER.VDW>
-11.3851

>  <SCORE.INTER.norm>
-0.200399

>  <SCORE.INTRA>
-6.99885

>  <SCORE.INTRA.DIHEDRAL>
-11.7077

>  <SCORE.INTRA.DIHEDRAL.0>
13.2525

>  <SCORE.INTRA.POLAR>
0

>  <SCORE.INTRA.POLAR.0>
0

>  <SCORE.INTRA.REPUL>
0

>  <SCORE.INTRA.REPUL.0>
0

>  <SCORE.INTRA.SOLV>
-0.00527522

>  <SCORE.INTRA.SOLV.lig_0>
-70.7221

>  <SCORE.INTRA.VDW>
-1.14234

>  <SCORE.INTRA.VDW.0>
-1.46337

>  <SCORE.INTRA.norm>
-0.291619

>  <SCORE.RESTR>
0

>  <SCORE.RESTR.CAVITY>
0

>  <SCORE.RESTR.norm>
0

>  <SCORE.SYSTEM>
0

>  <SCORE.SYSTEM.CONST>
0

>  <SCORE.SYSTEM.DIHEDRAL>
0

>  <SCORE.SYSTEM.SOLV>
0

>  <SCORE.SYSTEM.norm>
0

>  <SCORE.heavy>
24

>  <SCORE.norm>
-0.492017

>  <RMSD>
8.026

$$$$
ligand
 OpenBabel11021811483D
libRbt.so/2013.1/901 2013/11/27
 24 26  0  0  0  0  0  0  0  0999 V2000
  -10.1316   -8.6191    6.8041 P   0  0  1  0  0  0  0  0  0  0  0  0
  -10.3817   -7.1453    6.5652 O   0  0  0  0  0  0  0  0  0  0  0  0
  -11.2305   -9.5634    6.3769 O   0  5  0  0  0  0  0  0  0  0  0  0
   -8.7508   -9.0904    6.3728 O   0  0  0  0  0  0  0  0  0  0  0  0
  -11.3873   -8.4819    9.1953 C   0  0  0  0  0  0  0  0  0  0  0  0
  -10.2110   -8.7685    8.4192 O   0  0  0  0  0  0  0  0  0  0  0  0
  -11.0812   -8.6501   10.6865 C   0  0  1  0  0  0  0  0  0  0  0  0
  -10.6243   -9.9737   10.9922 O   0  0  0  0  0  0  0  0  0  0  0  0
  -10.0156   -7.7129   11.2286 C   0  0  1  0  0  0  0  0  0  0  0  0
  -10.6470   -6.5222   11.7087 O   0  0  0  0  0  0  0  0  0  0  0  0
   -9.3927   -8.5097   12.3632 C   0  0  1  0  0  0  0  0  0  0  0  0
  -10.1851   -8.3928   13.5535 O   0  0  0  0  0  0  0  0  0  0  0  0
   -9.5271   -9.9511   11.9137 C   0  0  2  0  0  0  0  0  0  0  0  0
   -4.4459  -10.4106   12.0770 N   0  0  0  0  0  0  0  0  0  0  0  0
   -5.2902   -9.8769   12.9891 C   0  0  1  0  0  0  0  0  0  0  0  0
   -4.7873   -9.3776   14.1407 N   0  0  0  0  0  0  0  0  0  0  0  0
   -6.6242   -9.8368   12.7634 N   0  0  0  0  0  0  0  0  0  0  0  0
   -7.1218  -10.3380   11.6075 C   0  0  1  0  0  0  0  0  0  0  0  0
   -6.2828  -10.8873   10.6580 C   0  0  2  0  0  0  0  0  0  0  0  0
   -4.9170  -10.9172   10.9143 C   0  0  0  0  0  0  0  0  0  0  0  0
   -4.1243  -11.4039   10.0839 O   0  0  0  0  0  0  0  0  0  0  0  0
   -7.0547  -11.2908    9.6283 N   0  0  0  0  0  0  0  0  0  0  0  0
   -8.3403  -11.0039    9.9393 C   0  0  0  0  0  0  0  0  0  0  0  0
   -8.3619  -10.4271   11.1451 N   0  0  1  0  0  0  0  0  0  0  0  0
  1  2  1  6  0  0  0
  1  3  1  0  0  0  0
  1  4  2  0  0  0  0
  1  6  1  0  0  0  0
  5  6  1  0  0  0  0
  7  5  1  6  0  0  0
  7  8  1  0  0  0  0
  7  9  1  0  0  0  0
  9 10  1  1  0  0  0
  9 11  1  0  0  0  0
 11 12  1  1  0  0  0
 11 13  1  0  0  0  0
 13  8  1  6  0  0  0
 13 24  1  0  0  0  0
 14 15  1  0  0  0  0
 14 20  1  0  0  0  0
 15 16  1  6  0  0  0
 15 17  1  0  0  0  0
 18 17  1  1  0  0  0
 18 19  1  0  0  0  0
 18 24  1  0  0  0  0
 19 20  1  6  0  0  0
 19 22  1  0  0  0  0
 20 21  2  0  0  0  0
 22 23  1  0  0  0  0
 24 23  1  1  0  0  0
M  CHG  1   3  -1
M  END
>  <CHROM.1>
62.08684659,-58.45730617,-176.63126209,168.90028887,-8.54479300,-9.37333623
10.24071253,-2.49162679,-0.45533950,1.43542571

>  <Name>
ligand

>  <RI>
0

>  <Rbt.Current_Directory>
/home/itssahil/PROJECTS/Mol_Feturizer/New_Systems/rnas/3SLQ

>  <Rbt.Executable>
rbdock ($Id: //depot/dev/client3/rdock/2013.1/src/exe/rbdock.cxx#4 $)

>  <Rbt.Library>
libRbt.so (2013.1, Build901 2013/11/27)

>  <Rbt.Parameter_File>
/export/apps/rDock/src/rDock_2013.1_src/data/scripts/dock_solv.prm

>  <Rbt.Receptor>
prm/pocket_docking_6.prm

>  <SCORE>
-15.8424

>  <SCORE.INTER>
-9.2606

>  <SCORE.INTER.CONST>
1

>  <SCORE.INTER.POLAR>
0

>  <SCORE.INTER.ROT>
4

>  <SCORE.INTER.SOLV>
16.3882

>  <SCORE.INTER.VDW>
-17.9031

>  <SCORE.INTER.norm>
-0.385858

>  <SCORE.INTRA>
-6.58185

>  <SCORE.INTRA.DIHEDRAL>
-11.9907

>  <SCORE.INTRA.DIHEDRAL.0>
13.2525

>  <SCORE.INTRA.POLAR>
0

>  <SCORE.INTRA.POLAR.0>
0

>  <SCORE.INTRA.REPUL>
0

>  <SCORE.INTRA.REPUL.0>
0

>  <SCORE.INTRA.SOLV>
0.0555381

>  <SCORE.INTRA.SOLV.lig_0>
-70.7221

>  <SCORE.INTRA.VDW>
-0.614251

>  <SCORE.INTRA.VDW.0>
-1.46337

>  <SCORE.INTRA.norm>
-0.274244

>  <SCORE.RESTR>
0

>  <SCORE.RESTR.CAVITY>
0

>  <SCORE.RESTR.norm>
0

>  <SCORE.SYSTEM>
0

>  <SCORE.SYSTEM.CONST>
0

>  <SCORE.SYSTEM.DIHEDRAL>
0

>  <SCORE.SYSTEM.SOLV>
0

>  <SCORE.SYSTEM.norm>
0

>  <SCORE.heavy>
24

>  <SCORE.norm>
-0.660102

>  <RMSD>
8.033

$$$$
ligand
 OpenBabel11021811483D
libRbt.so/2013.1/901 2013/11/27
 24 26  0  0  0  0  0  0  0  0999 V2000
  -10.7713   -9.6094   10.7058 P   0  0  1  0  0  0  0  0  0  0  0  0
  -10.4718  -10.7523   11.6521 O   0  0  0  0  0  0  0  0  0  0  0  0
  -10.0608   -9.6388    9.3730 O   0  5  0  0  0  0  0  0  0  0  0  0
  -12.2521   -9.2855   10.5756 O   0  0  0  0  0  0  0  0  0  0  0  0
   -8.6363   -8.2119   11.6018 C   0  0  0  0  0  0  0  0  0  0  0  0
  -10.0561   -8.3301   11.4051 O   0  0  0  0  0  0  0  0  0  0  0  0
   -8.3067   -6.8453   12.2095 C   0  0  1  0  0  0  0  0  0  0  0  0
   -8.8860   -6.6852   13.5106 O   0  0  0  0  0  0  0  0  0  0  0  0
   -6.8238   -6.5654   12.3834 C   0  0  1  0  0  0  0  0  0  0  0  0
   -6.3321   -5.9233   11.2032 O   0  0  0  0  0  0  0  0  0  0  0  0
   -6.7816   -5.6336   13.5835 C   0  0  1  0  0  0  0  0  0  0  0  0
   -7.0495   -4.2829   13.1806 O   0  0  0  0  0  0  0  0  0  0  0  0
   -7.9708   -6.0619   14.4202 C   0  0  2  0  0  0  0  0  0  0  0  0
   -9.9828   -9.0491   18.0375 N   0  0  0  0  0  0  0  0  0  0  0  0
  -10.5817   -8.1171   17.2615 C   0  0  1  0  0  0  0  0  0  0  0  0
  -11.9076   -7.8930   17.4040 N   0  0  0  0  0  0  0  0  0  0  0  0
   -9.8733   -7.4104   16.3500 N   0  0  0  0  0  0  0  0  0  0  0  0
   -8.5453   -7.6391   16.2123 C   0  0  1  0  0  0  0  0  0  0  0  0
   -7.9077   -8.5835   16.9926 C   0  0  2  0  0  0  0  0  0  0  0  0
   -8.6578   -9.2963   17.9206 C   0  0  0  0  0  0  0  0  0  0  0  0
   -8.1217  -10.1578   18.6451 O   0  0  0  0  0  0  0  0  0  0  0  0
   -6.6065   -8.5821   16.6379 N   0  0  0  0  0  0  0  0  0  0  0  0
   -6.4473   -7.6636   15.6566 C   0  0  0  0  0  0  0  0  0  0  0  0
   -7.6352   -7.1021   15.4104 N   0  0  1  0  0  0  0  0  0  0  0  0
  1  2  1  1  0  0  0
  1  3  1  0  0  0  0
  1  4  2  0  0  0  0
  1  6  1  0  0  0  0
  5  6  1  0  0  0  0
  7  5  1  1  0  0  0
  7  8  1  0  0  0  0
  7  9  1  0  0  0  0
  9 10  1  6  0  0  0
  9 11  1  0  0  0  0
 11 12  1  6  0  0  0
 11 13  1  0  0  0  0
 13  8  1  6  0  0  0
 13 24  1  0  0  0  0
 14 15  1  0  0  0  0
 14 20  1  0  0  0  0
 15 16  1  1  0  0  0
 15 17  1  0  0  0  0
 18 17  1  6  0  0  0
 18 19  1  0  0  0  0
 18 24  1  0  0  0  0
 19 20  1  1  0  0  0
 19 22  1  0  0  0  0
 20 21  2  0  0  0  0
 22 23  1  0  0  0  0
 24 23  1  6  0  0  0
M  CHG  1   3  -1
M  END
>  <CHROM.1>
64.10024263,63.27130485,176.54829078,-62.81421670,-8.91422440,-7.98899132
13.95289984,1.83238697,-0.73582225,-1.44973858

>  <Name>
ligand

>  <RI>
0

>  <Rbt.Current_Directory>
/home/itssahil/PROJECTS/Mol_Feturizer/New_Systems/rnas/3SLQ

>  <Rbt.Executable>
rbdock ($Id: //depot/dev/client3/rdock/2013.1/src/exe/rbdock.cxx#4 $)

>  <Rbt.Library>
libRbt.so (2013.1, Build901 2013/11/27)

>  <Rbt.Parameter_File>
/export/apps/rDock/src/rDock_2013.1_src/data/scripts/dock_solv.prm

>  <Rbt.Receptor>
prm/pocket_docking_6.prm

>  <SCORE>
-15.7781

>  <SCORE.INTER>
-9.77164

>  <SCORE.INTER.CONST>
1

>  <SCORE.INTER.POLAR>
0

>  <SCORE.INTER.ROT>
4

>  <SCORE.INTER.SOLV>
14.1529

>  <SCORE.INTER.VDW>
-17.4987

>  <SCORE.INTER.norm>
-0.407152

>  <SCORE.INTRA>
-6.0065

>  <SCORE.INTRA.DIHEDRAL>
-11.9292

>  <SCORE.INTRA.DIHEDRAL.0>
13.2525

>  <SCORE.INTRA.POLAR>
0

>  <SCORE.INTRA.POLAR.0>
0

>  <SCORE.INTRA.REPUL>
0

>  <SCORE.INTRA.REPUL.0>
0

>  <SCORE.INTRA.SOLV>
0.00257555

>  <SCORE.INTRA.SOLV.lig_0>
-70.7221

>  <SCORE.INTRA.VDW>
-0.0431839

>  <SCORE.INTRA.VDW.0>
-1.46337

>  <SCORE.INTRA.norm>
-0.250271

>  <SCORE.RESTR>
0

>  <SCORE.RESTR.CAVITY>
0

>  <SCORE.RESTR.norm>
0

>  <SCORE.SYSTEM>
0

>  <SCORE.SYSTEM.CONST>
0

>  <SCORE.SYSTEM.DIHEDRAL>
0

>  <SCORE.SYSTEM.SOLV>
0

>  <SCORE.SYSTEM.norm>
0

>  <SCORE.heavy>
24

>  <SCORE.norm>
-0.657422

>  <RMSD>
8.046

$$$$
ligand
 OpenBabel11021811483D
libRbt.so/2013.1/901 2013/11/27
 24 26  0  0  0  0  0  0  0  0999 V2000
   -6.5402   -4.0118    9.7272 P   0  0  1  0  0  0  0  0  0  0  0  0
   -7.2133   -2.7267    9.2947 O   0  0  0  0  0  0  0  0  0  0  0  0
   -5.1291   -4.2285    9.2333 O   0  5  0  0  0  0  0  0  0  0  0  0
   -6.6999   -4.3265   11.2070 O   0  0  0  0  0  0  0  0  0  0  0  0
   -7.1306   -6.5729    9.0901 C   0  0  0  0  0  0  0  0  0  0  0  0
   -7.3336   -5.1619    8.8997 O   0  0  0  0  0  0  0  0  0  0  0  0
   -8.0051   -7.3617    8.1110 C   0  0  1  0  0  0  0  0  0  0  0  0
   -7.8184   -8.7761    8.2479 O   0  0  0  0  0  0  0  0  0  0  0  0
   -9.4988   -7.1287    8.2596 C   0  0  1  0  0  0  0  0  0  0  0  0
   -9.8862   -6.0481    7.4058 O   0  0  0  0  0  0  0  0  0  0  0  0
  -10.1058   -8.4452    7.8026 C   0  0  1  0  0  0  0  0  0  0  0  0
  -10.1949   -8.4874    6.3713 O   0  0  0  0  0  0  0  0  0  0  0  0
   -9.0655   -9.4791    8.1855 C   0  0  2  0  0  0  0  0  0  0  0  0
   -6.7561  -12.0796   11.9219 N   0  0  0  0  0  0  0  0  0  0  0  0
   -6.2834  -11.7184   10.7072 C   0  0  1  0  0  0  0  0  0  0  0  0
   -5.0195  -12.0553   10.3643 N   0  0  0  0  0  0  0  0  0  0  0  0
   -7.0563  -11.0283    9.8363 N   0  0  0  0  0  0  0  0  0  0  0  0
   -8.3217  -10.6942   10.1854 C   0  0  1  0  0  0  0  0  0  0  0  0
   -8.8308  -11.0515   11.4184 C   0  0  2  0  0  0  0  0  0  0  0  0
   -8.0165  -11.7591   12.2949 C   0  0  0  0  0  0  0  0  0  0  0  0
   -8.4366  -12.1014   13.4178 O   0  0  0  0  0  0  0  0  0  0  0  0
  -10.0977  -10.5926   11.4757 N   0  0  0  0  0  0  0  0  0  0  0  0
  -10.3608   -9.9606   10.3081 C   0  0  0  0  0  0  0  0  0  0  0  0
   -9.2706  -10.0310    9.5377 N   0  0  1  0  0  0  0  0  0  0  0  0
  1  2  1  6  0  0  0
  1  3  1  0  0  0  0
  1  4  2  0  0  0  0
  1  6  1  0  0  0  0
  5  6  1  0  0  0  0
  7  5  1  1  0  0  0
  7  8  1  0  0  0  0
  7  9  1  0  0  0  0
  9 10  1  6  0  0  0
  9 11  1  0  0  0  0
 11 12  1  6  0  0  0
 11 13  1  0  0  0  0
 13  8  1  1  0  0  0
 13 24  1  0  0  0  0
 14 15  1  0  0  0  0
 14 20  1  0  0  0  0
 15 16  1  6  0  0  0
 15 17  1  0  0  0  0
 18 17  1  1  0  0  0
 18 19  1  0  0  0  0
 18 24  1  0  0  0  0
 19 20  1  6  0  0  0
 19 22  1  0  0  0  0
 20 21  2  0  0  0  0
 22 23  1  0  0  0  0
 24 23  1  1  0  0  0
M  CHG  1   3  -1
M  END
>  <CHROM.1>
-173.41570333,178.97224801,-177.96903610,-48.45613722,-7.94203990,-8.20006395
9.68321383,-1.41288343,0.72639056,2.75461222

>  <Name>
ligand

>  <RI>
0

>  <Rbt.Current_Directory>
/home/itssahil/PROJECTS/Mol_Feturizer/New_Systems/rnas/3SLQ

>  <Rbt.Executable>
rbdock ($Id: //depot/dev/client3/rdock/2013.1/src/exe/rbdock.cxx#4 $)

>  <Rbt.Library>
libRbt.so (2013.1, Build901 2013/11/27)

>  <Rbt.Parameter_File>
/export/apps/rDock/src/rDock_2013.1_src/data/scripts/dock_solv.prm

>  <Rbt.Receptor>
prm/pocket_docking_8.prm

>  <SCORE>
-17.9068

>  <SCORE.INTER>
-12.1499

>  <SCORE.INTER.CONST>
1

>  <SCORE.INTER.POLAR>
0

>  <SCORE.INTER.ROT>
4

>  <SCORE.INTER.SOLV>
18.6833

>  <SCORE.INTER.VDW>
-20.5944

>  <SCORE.INTER.norm>
-0.506246

>  <SCORE.INTRA>
-5.75687

>  <SCORE.INTRA.DIHEDRAL>
-11.9434

>  <SCORE.INTRA.DIHEDRAL.0>
13.2525

>  <SCORE.INTRA.POLAR>
0

>  <SCORE.INTRA.POLAR.0>
0

>  <SCORE.INTRA.REPUL>
0

>  <SCORE.INTRA.REPUL.0>
0

>  <SCORE.INTRA.SOLV>
0.645007

>  <SCORE.INTRA.SOLV.lig_0>
-70.7221

>  <SCORE.INTRA.VDW>
-0.107651

>  <SCORE.INTRA.VDW.0>
-1.46337

>  <SCORE.INTRA.norm>
-0.23987

>  <SCORE.RESTR>
0

>  <SCORE.RESTR.CAVITY>
0

>  <SCORE.RESTR.norm>
0

>  <SCORE.SYSTEM>
0

>  <SCORE.SYSTEM.CONST>
0

>  <SCORE.SYSTEM.DIHEDRAL>
0

>  <SCORE.SYSTEM.SOLV>
0

>  <SCORE.SYSTEM.norm>
0

>  <SCORE.heavy>
24

>  <SCORE.norm>
-0.746116

>  <RMSD>
8.086

$$$$
ligand
 OpenBabel11021811483D
libRbt.so/2013.1/901 2013/11/27
 24 26  0  0  0  0  0  0  0  0999 V2000
   -4.7070  -10.8702   10.6296 P   0  0  1  0  0  0  0  0  0  0  0  0
   -3.8408  -10.4508   11.7981 O   0  0  0  0  0  0  0  0  0  0  0  0
   -4.0583  -10.8302    9.2659 O   0  5  0  0  0  0  0  0  0  0  0  0
   -5.4925  -12.1507   10.8696 O   0  0  0  0  0  0  0  0  0  0  0  0
   -6.6686   -9.2506   11.5475 C   0  0  0  0  0  0  0  0  0  0  0  0
   -5.7828   -9.6615   10.4917 O   0  0  0  0  0  0  0  0  0  0  0  0
   -7.4680   -8.0205   11.1075 C   0  0  1  0  0  0  0  0  0  0  0  0
   -8.3653   -8.3231   10.0317 O   0  0  0  0  0  0  0  0  0  0  0  0
   -8.3261   -7.3953   12.1940 C   0  0  1  0  0  0  0  0  0  0  0  0
   -7.5603   -6.3937   12.8700 O   0  0  0  0  0  0  0  0  0  0  0  0
   -9.4821   -6.7843   11.4190 C   0  0  1  0  0  0  0  0  0  0  0  0
   -9.1118   -5.5025   10.8916 O   0  0  0  0  0  0  0  0  0  0  0  0
   -9.6408   -7.6976   10.2197 C   0  0  2  0  0  0  0  0  0  0  0  0
  -13.8349   -9.9454    8.3720 N   0  0  0  0  0  0  0  0  0  0  0  0
  -13.1680   -8.8617    7.9136 C   0  0  1  0  0  0  0  0  0  0  0  0
  -13.6155   -8.2325    6.8036 N   0  0  0  0  0  0  0  0  0  0  0  0
  -12.0649   -8.4025    8.5496 N   0  0  0  0  0  0  0  0  0  0  0  0
  -11.6218   -9.0368    9.6614 C   0  0  1  0  0  0  0  0  0  0  0  0
  -12.2841  -10.1446   10.1526 C   0  0  2  0  0  0  0  0  0  0  0  0
  -13.4138  -10.5966    9.4807 C   0  0  0  0  0  0  0  0  0  0  0  0
  -14.0415  -11.5931    9.8903 O   0  0  0  0  0  0  0  0  0  0  0  0
  -11.6222  -10.5493   11.2558 N   0  0  0  0  0  0  0  0  0  0  0  0
  -10.5719   -9.7148   11.4360 C   0  0  0  0  0  0  0  0  0  0  0  0
  -10.5867   -8.8038   10.4577 N   0  0  1  0  0  0  0  0  0  0  0  0
  1  2  1  1  0  0  0
  1  3  1  0  0  0  0
  1  4  2  0  0  0  0
  1  6  1  0  0  0  0
  5  6  1  0  0  0  0
  7  5  1  1  0  0  0
  7  8  1  0  0  0  0
  7  9  1  0  0  0  0
  9 10  1  6  0  0  0
  9 11  1  0  0  0  0
 11 12  1  6  0  0  0
 11 13  1  0  0  0  0
 13  8  1  1  0  0  0
 13 24  1  0  0  0  0
 14 15  1  0  0  0  0
 14 20  1  0  0  0  0
 15 16  1  1  0  0  0
 15 17  1  0  0  0  0
 18 17  1  6  0  0  0
 18 19  1  0  0  0  0
 18 24  1  0  0  0  0
 19 20  1  1  0  0  0
 19 22  1  0  0  0  0
 20 21  2  0  0  0  0
 22 23  1  0  0  0  0
 24 23  1  6  0  0  0
M  CHG  1   3  -1
M  END
>  <CHROM.1>
-58.03410046,66.17242073,175.77826908,-119.20527126,-9.07721547,-9.23046952
10.34658747,-0.00088994,0.24816124,-2.81754108

>  <Name>
ligand

>  <RI>
0

>  <Rbt.Current_Directory>
/home/itssahil/PROJECTS/Mol_Feturizer/New_Systems/rnas/3SLQ

>  <Rbt.Executable>
rbdock ($Id: //depot/dev/client3/rdock/2013.1/src/exe/rbdock.cxx#4 $)

>  <Rbt.Library>
libRbt.so (2013.1, Build901 2013/11/27)

>  <Rbt.Parameter_File>
/export/apps/rDock/src/rDock_2013.1_src/data/scripts/dock_solv.prm

>  <Rbt.Receptor>
prm/pocket_docking_8.prm

>  <SCORE>
-17.0233

>  <SCORE.INTER>
-10.6075

>  <SCORE.INTER.CONST>
1

>  <SCORE.INTER.POLAR>
0

>  <SCORE.INTER.ROT>
4

>  <SCORE.INTER.SOLV>
13.5824

>  <SCORE.INTER.VDW>
-17.8658

>  <SCORE.INTER.norm>
-0.44198

>  <SCORE.INTRA>
-6.41583

>  <SCORE.INTRA.DIHEDRAL>
-11.8214

>  <SCORE.INTRA.DIHEDRAL.0>
13.2525

>  <SCORE.INTRA.POLAR>
0

>  <SCORE.INTRA.POLAR.0>
0

>  <SCORE.INTRA.REPUL>
0

>  <SCORE.INTRA.REPUL.0>
0

>  <SCORE.INTRA.SOLV>
-0.207356

>  <SCORE.INTRA.SOLV.lig_0>
-70.7221

>  <SCORE.INTRA.VDW>
-0.401442

>  <SCORE.INTRA.VDW.0>
-1.46337

>  <SCORE.INTRA.norm>
-0.267326

>  <SCORE.RESTR>
0

>  <SCORE.RESTR.CAVITY>
0

>  <SCORE.RESTR.norm>
0

>  <SCORE.SYSTEM>
0

>  <SCORE.SYSTEM.CONST>
0

>  <SCORE.SYSTEM.DIHEDRAL>
0

>  <SCORE.SYSTEM.SOLV>
0

>  <SCORE.SYSTEM.norm>
0

>  <SCORE.heavy>
24

>  <SCORE.norm>
-0.709306

>  <RMSD>
8.091

$$$$
ligand
 OpenBabel11021811483D
libRbt.so/2013.1/901 2013/11/27
 24 26  0  0  0  0  0  0  0  0999 V2000
   -6.8672   -5.4314    9.5001 P   0  0  1  0  0  0  0  0  0  0  0  0
   -6.2535   -6.5306    8.6594 O   0  0  0  0  0  0  0  0  0  0  0  0
   -7.4467   -5.8496   10.8309 O   0  5  0  0  0  0  0  0  0  0  0  0
   -6.0117   -4.1773    9.5993 O   0  0  0  0  0  0  0  0  0  0  0  0
   -9.4248   -5.8140    8.7089 C   0  0  0  0  0  0  0  0  0  0  0  0
   -8.2174   -5.0329    8.6906 O   0  0  0  0  0  0  0  0  0  0  0  0
   -9.2292   -7.0944    7.8915 C   0  0  1  0  0  0  0  0  0  0  0  0
   -8.3520   -8.0185    8.5476 O   0  0  0  0  0  0  0  0  0  0  0  0
  -10.5038   -7.8703    7.6068 C   0  0  1  0  0  0  0  0  0  0  0  0
  -11.0559   -7.4155    6.3678 O   0  0  0  0  0  0  0  0  0  0  0  0
  -10.0233   -9.3090    7.5079 C   0  0  1  0  0  0  0  0  0  0  0  0
   -9.4989   -9.5749    6.1993 O   0  0  0  0  0  0  0  0  0  0  0  0
   -8.8374   -9.3633    8.4504 C   0  0  2  0  0  0  0  0  0  0  0  0
   -7.2208  -11.9455   12.5462 N   0  0  0  0  0  0  0  0  0  0  0  0
   -6.6253  -11.7831   11.3427 C   0  0  1  0  0  0  0  0  0  0  0  0
   -5.4200  -12.3545   11.1205 N   0  0  0  0  0  0  0  0  0  0  0  0
   -7.2186  -11.0601   10.3642 N   0  0  0  0  0  0  0  0  0  0  0  0
   -8.4263  -10.4907   10.5927 C   0  0  1  0  0  0  0  0  0  0  0  0
   -9.0579  -10.6416   11.8115 C   0  0  2  0  0  0  0  0  0  0  0  0
   -8.4272  -11.3881   12.7999 C   0  0  0  0  0  0  0  0  0  0  0  0
   -8.9625  -11.5493   13.9144 O   0  0  0  0  0  0  0  0  0  0  0  0
  -10.2292   -9.9769   11.7394 N   0  0  0  0  0  0  0  0  0  0  0  0
  -10.3140   -9.4228   10.5074 C   0  0  0  0  0  0  0  0  0  0  0  0
   -9.2099   -9.7441    9.8257 N   0  0  1  0  0  0  0  0  0  0  0  0
  1  2  1  6  0  0  0
  1  3  1  0  0  0  0
  1  4  2  0  0  0  0
  1  6  1  0  0  0  0
  5  6  1  0  0  0  0
  7  5  1  1  0  0  0
  7  8  1  0  0  0  0
  7  9  1  0  0  0  0
  9 10  1  6  0  0  0
  9 11  1  0  0  0  0
 11 12  1  6  0  0  0
 11 13  1  0  0  0  0
 13  8  1  1  0  0  0
 13 24  1  0  0  0  0
 14 15  1  0  0  0  0
 14 20  1  0  0  0  0
 15 16  1  6  0  0  0
 15 17  1  0  0  0  0
 18 17  1  1  0  0  0
 18 19  1  0  0  0  0
 18 24  1  0  0  0  0
 19 20  1  6  0  0  0
 19 22  1  0  0  0  0
 20 21  2  0  0  0  0
 22 23  1  0  0  0  0
 24 23  1  1  0  0  0
M  CHG  1   3  -1
M  END
>  <CHROM.1>
77.08599013,70.96250887,-72.45792026,-100.40800809,-8.34894289,-8.54502952
9.72756286,-1.61700704,0.77717172,2.59877112

>  <Name>
ligand

>  <RI>
0

>  <Rbt.Current_Directory>
/home/itssahil/PROJECTS/Mol_Feturizer/New_Systems/rnas/3SLQ

>  <Rbt.Executable>
rbdock ($Id: //depot/dev/client3/rdock/2013.1/src/exe/rbdock.cxx#4 $)

>  <Rbt.Library>
libRbt.so (2013.1, Build901 2013/11/27)

>  <Rbt.Parameter_File>
/export/apps/rDock/src/rDock_2013.1_src/data/scripts/dock_solv.prm

>  <Rbt.Receptor>
prm/pocket_docking_5.prm

>  <SCORE>
-15.7768

>  <SCORE.INTER>
-10.9616

>  <SCORE.INTER.CONST>
1

>  <SCORE.INTER.POLAR>
0

>  <SCORE.INTER.ROT>
4

>  <SCORE.INTER.SOLV>
11.9809

>  <SCORE.INTER.VDW>
-17.568

>  <SCORE.INTER.norm>
-0.456735

>  <SCORE.INTRA>
-4.81516

>  <SCORE.INTRA.DIHEDRAL>
-10.4557

>  <SCORE.INTRA.DIHEDRAL.0>
13.2525

>  <SCORE.INTRA.POLAR>
0

>  <SCORE.INTRA.POLAR.0>
0

>  <SCORE.INTRA.REPUL>
0

>  <SCORE.INTRA.REPUL.0>
0

>  <SCORE.INTRA.SOLV>
1.95505

>  <SCORE.INTRA.SOLV.lig_0>
-70.7221

>  <SCORE.INTRA.VDW>
-0.564832

>  <SCORE.INTRA.VDW.0>
-1.46337

>  <SCORE.INTRA.norm>
-0.200632

>  <SCORE.RESTR>
0

>  <SCORE.RESTR.CAVITY>
0

>  <SCORE.RESTR.norm>
0

>  <SCORE.SYSTEM>
0

>  <SCORE.SYSTEM.CONST>
0

>  <SCORE.SYSTEM.DIHEDRAL>
0

>  <SCORE.SYSTEM.SOLV>
0

>  <SCORE.SYSTEM.norm>
0

>  <SCORE.heavy>
24

>  <SCORE.norm>
-0.657366

>  <RMSD>
8.107

$$$$
ligand
 OpenBabel11021811483D
libRbt.so/2013.1/901 2013/11/27
 24 26  0  0  0  0  0  0  0  0999 V2000
   -6.9276  -10.9625   11.1452 P   0  0  1  0  0  0  0  0  0  0  0  0
   -5.6918  -10.5474   11.9145 O   0  0  0  0  0  0  0  0  0  0  0  0
   -6.6990  -11.5216    9.7606 O   0  5  0  0  0  0  0  0  0  0  0  0
   -7.9138  -11.7885   11.9574 O   0  0  0  0  0  0  0  0  0  0  0  0
   -6.9844   -8.4367   10.1804 C   0  0  0  0  0  0  0  0  0  0  0  0
   -7.6538   -9.5541   10.7900 O   0  0  0  0  0  0  0  0  0  0  0  0
   -7.9777   -7.2922    9.9586 C   0  0  1  0  0  0  0  0  0  0  0  0
   -9.0481   -7.6753    9.0860 O   0  0  0  0  0  0  0  0  0  0  0  0
   -8.6437   -6.7720   11.2210 C   0  0  1  0  0  0  0  0  0  0  0  0
   -7.8557   -5.7033   11.7535 O   0  0  0  0  0  0  0  0  0  0  0  0
   -9.9930   -6.2768   10.7265 C   0  0  1  0  0  0  0  0  0  0  0  0
   -9.8730   -4.9577   10.1754 O   0  0  0  0  0  0  0  0  0  0  0  0
  -10.3106   -7.1887    9.5580 C   0  0  2  0  0  0  0  0  0  0  0  0
  -14.3620  -10.0404    8.3290 N   0  0  0  0  0  0  0  0  0  0  0  0
  -13.9011   -8.9079    7.7507 C   0  0  1  0  0  0  0  0  0  0  0  0
  -14.5544   -8.4003    6.6810 N   0  0  0  0  0  0  0  0  0  0  0  0
  -12.8007   -8.2805    8.2277 N   0  0  0  0  0  0  0  0  0  0  0  0
  -12.1510   -8.7935    9.2999 C   0  0  1  0  0  0  0  0  0  0  0  0
  -12.6004   -9.9476    9.9111 C   0  0  2  0  0  0  0  0  0  0  0  0
  -13.7322  -10.5731    9.4013 C   0  0  0  0  0  0  0  0  0  0  0  0
  -14.1717  -11.6168    9.9231 O   0  0  0  0  0  0  0  0  0  0  0  0
  -11.7664  -10.2062   10.9389 N   0  0  0  0  0  0  0  0  0  0  0  0
  -10.8204   -9.2382   10.9561 C   0  0  0  0  0  0  0  0  0  0  0  0
  -11.0691   -8.3902    9.9530 N   0  0  1  0  0  0  0  0  0  0  0  0
  1  2  1  1  0  0  0
  1  3  1  0  0  0  0
  1  4  2  0  0  0  0
  1  6  1  0  0  0  0
  5  6  1  0  0  0  0
  7  5  1  1  0  0  0
  7  8  1  0  0  0  0
  7  9  1  0  0  0  0
  9 10  1  6  0  0  0
  9 11  1  0  0  0  0
 11 12  1  6  0  0  0
 11 13  1  0  0  0  0
 13  8  1  1  0  0  0
 13 24  1  0  0  0  0
 14 15  1  0  0  0  0
 14 20  1  0  0  0  0
 15 16  1  1  0  0  0
 15 17  1  0  0  0  0
 18 17  1  6  0  0  0
 18 19  1  0  0  0  0
 18 24  1  0  0  0  0
 19 20  1  1  0  0  0
 19 22  1  0  0  0  0
 20 21  2  0  0  0  0
 22 23  1  0  0  0  0
 24 23  1  6  0  0  0
M  CHG  1   3  -1
M  END
>  <CHROM.1>
50.65264164,-60.92570646,178.58591166,-112.47929780,-10.02101040,-8.99561445
10.07996817,0.05537241,0.35198376,3.05584148

>  <Name>
ligand

>  <RI>
0

>  <Rbt.Current_Directory>
/home/itssahil/PROJECTS/Mol_Feturizer/New_Systems/rnas/3SLQ

>  <Rbt.Executable>
rbdock ($Id: //depot/dev/client3/rdock/2013.1/src/exe/rbdock.cxx#4 $)

>  <Rbt.Library>
libRbt.so (2013.1, Build901 2013/11/27)

>  <Rbt.Parameter_File>
/export/apps/rDock/src/rDock_2013.1_src/data/scripts/dock_solv.prm

>  <Rbt.Receptor>
prm/pocket_docking_8.prm

>  <SCORE>
-15.3937

>  <SCORE.INTER>
-8.55707

>  <SCORE.INTER.CONST>
1

>  <SCORE.INTER.POLAR>
0

>  <SCORE.INTER.ROT>
4

>  <SCORE.INTER.SOLV>
11.9849

>  <SCORE.INTER.VDW>
-15.9664

>  <SCORE.INTER.norm>
-0.356545

>  <SCORE.INTRA>
-6.85341

>  <SCORE.INTRA.DIHEDRAL>
-11.9068

>  <SCORE.INTRA.DIHEDRAL.0>
13.2525

>  <SCORE.INTRA.POLAR>
0

>  <SCORE.INTRA.POLAR.0>
0

>  <SCORE.INTRA.REPUL>
0

>  <SCORE.INTRA.REPUL.0>
0

>  <SCORE.INTRA.SOLV>
0.00309553

>  <SCORE.INTRA.SOLV.lig_0>
-70.7221

>  <SCORE.INTRA.VDW>
-0.901575

>  <SCORE.INTRA.VDW.0>
-1.46337

>  <SCORE.INTRA.norm>
-0.285559

>  <SCORE.RESTR>
0.0167658

>  <SCORE.RESTR.CAVITY>
0.0167658

>  <SCORE.RESTR.norm>
0.000698573

>  <SCORE.SYSTEM>
0

>  <SCORE.SYSTEM.CONST>
0

>  <SCORE.SYSTEM.DIHEDRAL>
0

>  <SCORE.SYSTEM.SOLV>
0

>  <SCORE.SYSTEM.norm>
0

>  <SCORE.heavy>
24

>  <SCORE.norm>
-0.641405

>  <RMSD>
8.133

$$$$
ligand
 OpenBabel11021811483D
libRbt.so/2013.1/901 2013/11/27
 24 26  0  0  0  0  0  0  0  0999 V2000
   -6.6813   -4.1262    9.6820 P   0  0  1  0  0  0  0  0  0  0  0  0
   -7.3561   -2.8581    9.2044 O   0  0  0  0  0  0  0  0  0  0  0  0
   -5.2517   -4.3323    9.2397 O   0  5  0  0  0  0  0  0  0  0  0  0
   -6.8868   -4.4173   11.1611 O   0  0  0  0  0  0  0  0  0  0  0  0
   -7.1664   -6.7039    9.0236 C   0  0  0  0  0  0  0  0  0  0  0  0
   -7.4313   -5.3012    8.8490 O   0  0  0  0  0  0  0  0  0  0  0  0
   -8.0670   -7.5236    8.0947 C   0  0  1  0  0  0  0  0  0  0  0  0
   -7.8777   -8.9329    8.2737 O   0  0  0  0  0  0  0  0  0  0  0  0
   -9.5562   -7.2835    8.2749 C   0  0  1  0  0  0  0  0  0  0  0  0
   -9.9653   -6.2313    7.3961 O   0  0  0  0  0  0  0  0  0  0  0  0
  -10.1759   -8.6135    7.8782 C   0  0  1  0  0  0  0  0  0  0  0  0
  -10.3029   -8.7032    6.4520 O   0  0  0  0  0  0  0  0  0  0  0  0
   -9.1266   -9.6357    8.2677 C   0  0  2  0  0  0  0  0  0  0  0  0
   -6.7397  -12.1621   12.0062 N   0  0  0  0  0  0  0  0  0  0  0  0
   -6.3013  -11.8471   10.7660 C   0  0  1  0  0  0  0  0  0  0  0  0
   -5.0556  -12.2175   10.3928 N   0  0  0  0  0  0  0  0  0  0  0  0
   -7.0907  -11.1700    9.8996 N   0  0  0  0  0  0  0  0  0  0  0  0
   -8.3379  -10.8023   10.2792 C   0  0  1  0  0  0  0  0  0  0  0  0
   -8.8119  -11.1121   11.5388 C   0  0  2  0  0  0  0  0  0  0  0  0
   -7.9813  -11.8073   12.4099 C   0  0  0  0  0  0  0  0  0  0  0  0
   -8.3698  -12.1073   13.5561 O   0  0  0  0  0  0  0  0  0  0  0  0
  -10.0681  -10.6286   11.6231 N   0  0  0  0  0  0  0  0  0  0  0  0
  -10.3588  -10.0280   10.4455 C   0  0  0  0  0  0  0  0  0  0  0  0
   -9.2961  -10.1420    9.6424 N   0  0  1  0  0  0  0  0  0  0  0  0
  1  2  1  6  0  0  0
  1  3  1  0  0  0  0
  1  4  2  0  0  0  0
  1  6  1  0  0  0  0
  5  6  1  0  0  0  0
  7  5  1  1  0  0  0
  7  8  1  0  0  0  0
  7  9  1  0  0  0  0
  9 10  1  6  0  0  0
  9 11  1  0  0  0  0
 11 12  1  6  0  0  0
 11 13  1  0  0  0  0
 13  8  1  1  0  0  0
 13 24  1  0  0  0  0
 14 15  1  0  0  0  0
 14 20  1  0  0  0  0
 15 16  1  6  0  0  0
 15 17  1  0  0  0  0
 18 17  1  1  0  0  0
 18 19  1  0  0  0  0
 18 24  1  0  0  0  0
 19 20  1  6  0  0  0
 19 22  1  0  0  0  0
 20 21  2  0  0  0  0
 22 23  1  0  0  0  0
 24 23  1  1  0  0  0
M  CHG  1   3  -1
M  END
>  <CHROM.1>
-176.73717338,-177.57869485,179.09183662,-49.49201263,-7.99902874,-8.31998884
9.71951828,-1.44383083,0.73625883,2.75297721

>  <Name>
ligand

>  <RI>
0

>  <Rbt.Current_Directory>
/home/itssahil/PROJECTS/Mol_Feturizer/New_Systems/rnas/3SLQ

>  <Rbt.Executable>
rbdock ($Id: //depot/dev/client3/rdock/2013.1/src/exe/rbdock.cxx#4 $)

>  <Rbt.Library>
libRbt.so (2013.1, Build901 2013/11/27)

>  <Rbt.Parameter_File>
/export/apps/rDock/src/rDock_2013.1_src/data/scripts/dock_solv.prm

>  <Rbt.Receptor>
prm/pocket_docking_6.prm

>  <SCORE>
-17.8095

>  <SCORE.INTER>
-12.0552

>  <SCORE.INTER.CONST>
1

>  <SCORE.INTER.POLAR>
0

>  <SCORE.INTER.ROT>
4

>  <SCORE.INTER.SOLV>
18.2721

>  <SCORE.INTER.VDW>
-20.3942

>  <SCORE.INTER.norm>
-0.502299

>  <SCORE.INTRA>
-5.75432

>  <SCORE.INTRA.DIHEDRAL>
-11.9976

>  <SCORE.INTRA.DIHEDRAL.0>
13.2525

>  <SCORE.INTRA.POLAR>
0

>  <SCORE.INTRA.POLAR.0>
0

>  <SCORE.INTRA.REPUL>
0

>  <SCORE.INTRA.REPUL.0>
0

>  <SCORE.INTRA.SOLV>
0.669498

>  <SCORE.INTRA.SOLV.lig_0>
-70.7221

>  <SCORE.INTRA.VDW>
-0.0902615

>  <SCORE.INTRA.VDW.0>
-1.46337

>  <SCORE.INTRA.norm>
-0.239763

>  <SCORE.RESTR>
0

>  <SCORE.RESTR.CAVITY>
0

>  <SCORE.RESTR.norm>
0

>  <SCORE.SYSTEM>
0

>  <SCORE.SYSTEM.CONST>
0

>  <SCORE.SYSTEM.DIHEDRAL>
0

>  <SCORE.SYSTEM.SOLV>
0

>  <SCORE.SYSTEM.norm>
0

>  <SCORE.heavy>
24

>  <SCORE.norm>
-0.742062

>  <RMSD>
8.148

$$$$
ligand
 OpenBabel11021811483D
libRbt.so/2013.1/901 2013/11/27
 24 26  0  0  0  0  0  0  0  0999 V2000
   -6.1544  -10.4832   11.0354 P   0  0  1  0  0  0  0  0  0  0  0  0
   -6.1607   -9.3792    9.9997 O   0  0  0  0  0  0  0  0  0  0  0  0
   -7.3866  -11.3550   11.0935 O   0  5  0  0  0  0  0  0  0  0  0  0
   -4.8632  -11.2868   11.0755 O   0  0  0  0  0  0  0  0  0  0  0  0
   -7.5116   -9.1938   12.9871 C   0  0  0  0  0  0  0  0  0  0  0  0
   -6.2744   -9.6900   12.4474 O   0  0  0  0  0  0  0  0  0  0  0  0
   -8.0656   -8.0859   12.0863 C   0  0  1  0  0  0  0  0  0  0  0  0
   -8.5741   -8.6055   10.8513 O   0  0  0  0  0  0  0  0  0  0  0  0
   -9.2025   -7.2804   12.6917 C   0  0  1  0  0  0  0  0  0  0  0  0
   -8.6551   -6.1538   13.3829 O   0  0  0  0  0  0  0  0  0  0  0  0
  -10.0117   -6.8508   11.4789 C   0  0  1  0  0  0  0  0  0  0  0  0
   -9.4308   -5.6869   10.8737 O   0  0  0  0  0  0  0  0  0  0  0  0
   -9.8108   -7.9796   10.4874 C   0  0  2  0  0  0  0  0  0  0  0  0
  -14.0068   -9.8543    8.2657 N   0  0  0  0  0  0  0  0  0  0  0  0
  -13.2511   -8.7890    7.9140 C   0  0  1  0  0  0  0  0  0  0  0  0
  -13.5924   -8.0704    6.8205 N   0  0  0  0  0  0  0  0  0  0  0  0
  -12.1644   -8.4362    8.6397 N   0  0  0  0  0  0  0  0  0  0  0  0
  -11.8281   -9.1596    9.7343 C   0  0  1  0  0  0  0  0  0  0  0  0
  -12.5826  -10.2510   10.1175 C   0  0  2  0  0  0  0  0  0  0  0  0
  -13.6932  -10.5931    9.3549 C   0  0  0  0  0  0  0  0  0  0  0  0
  -14.4017  -11.5709    9.6656 O   0  0  0  0  0  0  0  0  0  0  0  0
  -12.0143  -10.7587   11.2303 N   0  0  0  0  0  0  0  0  0  0  0  0
  -10.9304  -10.0024   11.5218 C   0  0  0  0  0  0  0  0  0  0  0  0
  -10.8322   -9.0373   10.6020 N   0  0  1  0  0  0  0  0  0  0  0  0
  1  2  1  6  0  0  0
  1  3  1  0  0  0  0
  1  4  2  0  0  0  0
  1  6  1  0  0  0  0
  5  6  1  0  0  0  0
  7  5  1  1  0  0  0
  7  8  1  0  0  0  0
  7  9  1  0  0  0  0
  9 10  1  6  0  0  0
  9 11  1  0  0  0  0
 11 12  1  6  0  0  0
 11 13  1  0  0  0  0
 13  8  1  1  0  0  0
 13 24  1  0  0  0  0
 14 15  1  0  0  0  0
 14 20  1  0  0  0  0
 15 16  1  1  0  0  0
 15 17  1  0  0  0  0
 18 17  1  6  0  0  0
 18 19  1  0  0  0  0
 18 24  1  0  0  0  0
 19 20  1  1  0  0  0
 19 22  1  0  0  0  0
 20 21  2  0  0  0  0
 22 23  1  0  0  0  0
 24 23  1  6  0  0  0
M  CHG  1   3  -1
M  END
>  <CHROM.1>
80.60269943,71.97480581,-65.69076634,-140.88899327,-9.73037756,-9.17609596
10.65740206,-0.12821242,0.36669598,-2.81758282

>  <Name>
ligand

>  <RI>
0

>  <Rbt.Current_Directory>
/home/itssahil/PROJECTS/Mol_Feturizer/New_Systems/rnas/3SLQ

>  <Rbt.Executable>
rbdock ($Id: //depot/dev/client3/rdock/2013.1/src/exe/rbdock.cxx#4 $)

>  <Rbt.Library>
libRbt.so (2013.1, Build901 2013/11/27)

>  <Rbt.Parameter_File>
/export/apps/rDock/src/rDock_2013.1_src/data/scripts/dock_solv.prm

>  <Rbt.Receptor>
prm/pocket_docking_8.prm

>  <SCORE>
-15.5802

>  <SCORE.INTER>
-10.6391

>  <SCORE.INTER.CONST>
1

>  <SCORE.INTER.POLAR>
0

>  <SCORE.INTER.ROT>
4

>  <SCORE.INTER.SOLV>
7.80908

>  <SCORE.INTER.VDW>
-15.9624

>  <SCORE.INTER.norm>
-0.443297

>  <SCORE.INTRA>
-4.9411

>  <SCORE.INTRA.DIHEDRAL>
-10.7373

>  <SCORE.INTRA.DIHEDRAL.0>
13.2525

>  <SCORE.INTRA.POLAR>
0

>  <SCORE.INTRA.POLAR.0>
0

>  <SCORE.INTRA.REPUL>
0

>  <SCORE.INTRA.REPUL.0>
0

>  <SCORE.INTRA.SOLV>
2.48584

>  <SCORE.INTRA.SOLV.lig_0>
-70.7221

>  <SCORE.INTRA.VDW>
-0.815373

>  <SCORE.INTRA.VDW.0>
-1.46337

>  <SCORE.INTRA.norm>
-0.205879

>  <SCORE.RESTR>
0

>  <SCORE.RESTR.CAVITY>
0

>  <SCORE.RESTR.norm>
0

>  <SCORE.SYSTEM>
0

>  <SCORE.SYSTEM.CONST>
0

>  <SCORE.SYSTEM.DIHEDRAL>
0

>  <SCORE.SYSTEM.SOLV>
0

>  <SCORE.SYSTEM.norm>
0

>  <SCORE.heavy>
24

>  <SCORE.norm>
-0.649176

>  <RMSD>
8.149

$$$$
ligand
 OpenBabel11021811483D
libRbt.so/2013.1/901 2013/11/27
 24 26  0  0  0  0  0  0  0  0999 V2000
   -4.5029  -11.0065   10.9235 P   0  0  1  0  0  0  0  0  0  0  0  0
   -3.4115  -10.6321   11.9034 O   0  0  0  0  0  0  0  0  0  0  0  0
   -4.1364  -10.9528    9.4591 O   0  5  0  0  0  0  0  0  0  0  0  0
   -5.2594  -12.2734   11.2941 O   0  0  0  0  0  0  0  0  0  0  0  0
   -6.7926   -9.7111   10.2967 C   0  0  0  0  0  0  0  0  0  0  0  0
   -5.5519   -9.7707   11.0216 O   0  0  0  0  0  0  0  0  0  0  0  0
   -7.5344   -8.4158   10.6398 C   0  0  1  0  0  0  0  0  0  0  0  0
   -8.7288   -8.2622    9.8627 O   0  0  0  0  0  0  0  0  0  0  0  0
   -7.9702   -8.2953   12.0901 C   0  0  1  0  0  0  0  0  0  0  0  0
   -6.9326   -7.6490   12.8333 O   0  0  0  0  0  0  0  0  0  0  0  0
   -9.2187   -7.4322   12.0100 C   0  0  1  0  0  0  0  0  0  0  0  0
   -8.8659   -6.0434   11.9390 O   0  0  0  0  0  0  0  0  0  0  0  0
   -9.8165   -7.7792   10.6609 C   0  0  2  0  0  0  0  0  0  0  0  0
  -13.8855   -9.7953    8.3297 N   0  0  0  0  0  0  0  0  0  0  0  0
  -13.1873   -8.6775    8.0257 C   0  0  1  0  0  0  0  0  0  0  0  0
  -13.5595   -7.9374    6.9570 N   0  0  0  0  0  0  0  0  0  0  0  0
  -12.1273   -8.2935    8.7747 N   0  0  0  0  0  0  0  0  0  0  0  0
  -11.7598   -9.0387    9.8444 C   0  0  1  0  0  0  0  0  0  0  0  0
  -12.4556  -10.1838   10.1789 C   0  0  2  0  0  0  0  0  0  0  0  0
  -13.5398  -10.5569    9.3931 C   0  0  0  0  0  0  0  0  0  0  0  0
  -14.1955  -11.5833    9.6599 O   0  0  0  0  0  0  0  0  0  0  0  0
  -11.8686  -10.7016   11.2771 N   0  0  0  0  0  0  0  0  0  0  0  0
  -10.8303   -9.8986   11.6073 C   0  0  0  0  0  0  0  0  0  0  0  0
  -10.7787   -8.8950   10.7257 N   0  0  1  0  0  0  0  0  0  0  0  0
  1  2  1  1  0  0  0
  1  3  1  0  0  0  0
  1  4  2  0  0  0  0
  1  6  1  0  0  0  0
  5  6  1  0  0  0  0
  7  5  1  1  0  0  0
  7  8  1  0  0  0  0
  7  9  1  0  0  0  0
  9 10  1  1  0  0  0
  9 11  1  0  0  0  0
 11 12  1  6  0  0  0
 11 13  1  0  0  0  0
 13  8  1  6  0  0  0
 13 24  1  0  0  0  0
 14 15  1  0  0  0  0
 14 20  1  0  0  0  0
 15 16  1  1  0  0  0
 15 17  1  0  0  0  0
 18 17  1  6  0  0  0
 18 19  1  0  0  0  0
 18 24  1  0  0  0  0
 19 20  1  1  0  0  0
 19 22  1  0  0  0  0
 20 21  2  0  0  0  0
 22 23  1  0  0  0  0
 24 23  1  6  0  0  0
M  CHG  1   3  -1
M  END
>  <CHROM.1>
-177.44999784,175.48949858,179.36350993,-90.92590376,-9.04138438,-9.42440899
10.46205026,0.01341150,0.26403207,-2.77710893

>  <Name>
ligand

>  <RI>
0

>  <Rbt.Current_Directory>
/home/itssahil/PROJECTS/Mol_Feturizer/New_Systems/rnas/3SLQ

>  <Rbt.Executable>
rbdock ($Id: //depot/dev/client3/rdock/2013.1/src/exe/rbdock.cxx#4 $)

>  <Rbt.Library>
libRbt.so (2013.1, Build901 2013/11/27)

>  <Rbt.Parameter_File>
/export/apps/rDock/src/rDock_2013.1_src/data/scripts/dock_solv.prm

>  <Rbt.Receptor>
prm/pocket_docking_8.prm

>  <SCORE>
-17.0229

>  <SCORE.INTER>
-11.0473

>  <SCORE.INTER.CONST>
1

>  <SCORE.INTER.POLAR>
0

>  <SCORE.INTER.ROT>
4

>  <SCORE.INTER.SOLV>
12.2675

>  <SCORE.INTER.VDW>
-17.7207

>  <SCORE.INTER.norm>
-0.460304

>  <SCORE.INTRA>
-5.97562

>  <SCORE.INTRA.DIHEDRAL>
-11.9843

>  <SCORE.INTRA.DIHEDRAL.0>
13.2525

>  <SCORE.INTRA.POLAR>
0

>  <SCORE.INTRA.POLAR.0>
0

>  <SCORE.INTRA.REPUL>
0

>  <SCORE.INTRA.REPUL.0>
0

>  <SCORE.INTRA.SOLV>
0.605543

>  <SCORE.INTRA.SOLV.lig_0>
-70.7221

>  <SCORE.INTRA.VDW>
-0.286223

>  <SCORE.INTRA.VDW.0>
-1.46337

>  <SCORE.INTRA.norm>
-0.248984

>  <SCORE.RESTR>
0

>  <SCORE.RESTR.CAVITY>
0

>  <SCORE.RESTR.norm>
0

>  <SCORE.SYSTEM>
0

>  <SCORE.SYSTEM.CONST>
0

>  <SCORE.SYSTEM.DIHEDRAL>
0

>  <SCORE.SYSTEM.SOLV>
0

>  <SCORE.SYSTEM.norm>
0

>  <SCORE.heavy>
24

>  <SCORE.norm>
-0.709288

>  <RMSD>
8.153

$$$$
ligand
 OpenBabel11021811483D
libRbt.so/2013.1/901 2013/11/27
 24 26  0  0  0  0  0  0  0  0999 V2000
   -6.0137   -4.8829    9.4977 P   0  0  1  0  0  0  0  0  0  0  0  0
   -4.5625   -5.0129    9.0872 O   0  0  0  0  0  0  0  0  0  0  0  0
   -6.3315   -5.1880   10.9426 O   0  5  0  0  0  0  0  0  0  0  0  0
   -6.6849   -3.6099    9.0042 O   0  0  0  0  0  0  0  0  0  0  0  0
   -8.1577   -6.3681    8.7828 C   0  0  0  0  0  0  0  0  0  0  0  0
   -6.7395   -6.1315    8.7550 O   0  0  0  0  0  0  0  0  0  0  0  0
   -8.5027   -7.5698    7.8981 C   0  0  1  0  0  0  0  0  0  0  0  0
   -7.9185   -8.7819    8.3916 O   0  0  0  0  0  0  0  0  0  0  0  0
   -9.9884   -7.8561    7.7621 C   0  0  1  0  0  0  0  0  0  0  0  0
  -10.4952   -7.1447    6.6290 O   0  0  0  0  0  0  0  0  0  0  0  0
  -10.0367   -9.3595    7.5433 C   0  0  1  0  0  0  0  0  0  0  0  0
   -9.7895   -9.6751    6.1658 O   0  0  0  0  0  0  0  0  0  0  0  0
   -8.8372   -9.8787    8.3110 C   0  0  2  0  0  0  0  0  0  0  0  0
   -6.8704  -11.9505   12.5414 N   0  0  0  0  0  0  0  0  0  0  0  0
   -6.3026  -11.7755   11.3263 C   0  0  1  0  0  0  0  0  0  0  0  0
   -5.0267  -12.1782   11.1301 N   0  0  0  0  0  0  0  0  0  0  0  0
   -6.9927  -11.2057   10.3108 N   0  0  0  0  0  0  0  0  0  0  0  0
   -8.2707  -10.8050   10.5134 C   0  0  1  0  0  0  0  0  0  0  0  0
   -8.8760  -10.9729   11.7433 C   0  0  2  0  0  0  0  0  0  0  0  0
   -8.1454  -11.5598   12.7698 C   0  0  0  0  0  0  0  0  0  0  0  0
   -8.6537  -11.7303   13.8955 O   0  0  0  0  0  0  0  0  0  0  0  0
  -10.1312  -10.4906   11.6400 N   0  0  0  0  0  0  0  0  0  0  0  0
  -10.2933  -10.0291   10.3779 C   0  0  0  0  0  0  0  0  0  0  0  0
   -9.1530  -10.2270    9.7089 N   0  0  1  0  0  0  0  0  0  0  0  0
  1  2  1  6  0  0  0
  1  3  1  0  0  0  0
  1  4  2  0  0  0  0
  1  6  1  0  0  0  0
  5  6  1  0  0  0  0
  7  5  1  1  0  0  0
  7  8  1  0  0  0  0
  7  9  1  0  0  0  0
  9 10  1  6  0  0  0
  9 11  1  0  0  0  0
 11 12  1  6  0  0  0
 11 13  1  0  0  0  0
 13  8  1  1  0  0  0
 13 24  1  0  0  0  0
 14 15  1  0  0  0  0
 14 20  1  0  0  0  0
 15 16  1  6  0  0  0
 15 17  1  0  0  0  0
 18 17  1  1  0  0  0
 18 19  1  0  0  0  0
 18 24  1  0  0  0  0
 19 20  1  6  0  0  0
 19 22  1  0  0  0  0
 20 21  2  0  0  0  0
 22 23  1  0  0  0  0
 24 23  1  1  0  0  0
M  CHG  1   3  -1
M  END
>  <CHROM.1>
-175.74169120,63.96815606,175.94784700,-70.74111910,-7.89424363,-8.60351460
9.71379070,-1.33720726,0.72320889,2.54982398

>  <Name>
ligand

>  <RI>
0

>  <Rbt.Current_Directory>
/home/itssahil/PROJECTS/Mol_Feturizer/New_Systems/rnas/3SLQ

>  <Rbt.Executable>
rbdock ($Id: //depot/dev/client3/rdock/2013.1/src/exe/rbdock.cxx#4 $)

>  <Rbt.Library>
libRbt.so (2013.1, Build901 2013/11/27)

>  <Rbt.Parameter_File>
/export/apps/rDock/src/rDock_2013.1_src/data/scripts/dock_solv.prm

>  <Rbt.Receptor>
prm/pocket_docking_6.prm

>  <SCORE>
-20.4881

>  <SCORE.INTER>
-14.6384

>  <SCORE.INTER.CONST>
1

>  <SCORE.INTER.POLAR>
0

>  <SCORE.INTER.ROT>
4

>  <SCORE.INTER.SOLV>
16.1625

>  <SCORE.INTER.VDW>
-21.4131

>  <SCORE.INTER.norm>
-0.609934

>  <SCORE.INTRA>
-5.84965

>  <SCORE.INTRA.DIHEDRAL>
-11.8947

>  <SCORE.INTRA.DIHEDRAL.0>
13.2525

>  <SCORE.INTRA.POLAR>
0

>  <SCORE.INTRA.POLAR.0>
0

>  <SCORE.INTRA.REPUL>
0

>  <SCORE.INTRA.REPUL.0>
0

>  <SCORE.INTRA.SOLV>
0.459335

>  <SCORE.INTRA.SOLV.lig_0>
-70.7221

>  <SCORE.INTRA.VDW>
-0.131955

>  <SCORE.INTRA.VDW.0>
-1.46337

>  <SCORE.INTRA.norm>
-0.243735

>  <SCORE.RESTR>
0

>  <SCORE.RESTR.CAVITY>
0

>  <SCORE.RESTR.norm>
0

>  <SCORE.SYSTEM>
0

>  <SCORE.SYSTEM.CONST>
0

>  <SCORE.SYSTEM.DIHEDRAL>
0

>  <SCORE.SYSTEM.SOLV>
0

>  <SCORE.SYSTEM.norm>
0

>  <SCORE.heavy>
24

>  <SCORE.norm>
-0.85367

>  <RMSD>
8.172

$$$$
ligand
 OpenBabel11021811483D
libRbt.so/2013.1/901 2013/11/27
 24 26  0  0  0  0  0  0  0  0999 V2000
   -6.0032   -4.8836    9.4873 P   0  0  1  0  0  0  0  0  0  0  0  0
   -4.5479   -5.0354    9.0994 O   0  0  0  0  0  0  0  0  0  0  0  0
   -6.3458   -5.1703   10.9303 O   0  5  0  0  0  0  0  0  0  0  0  0
   -6.6514   -3.6076    8.9714 O   0  0  0  0  0  0  0  0  0  0  0  0
   -8.1508   -6.3706    8.7869 C   0  0  0  0  0  0  0  0  0  0  0  0
   -6.7334   -6.1307    8.7463 O   0  0  0  0  0  0  0  0  0  0  0  0
   -8.5008   -7.5732    7.9055 C   0  0  1  0  0  0  0  0  0  0  0  0
   -7.9137   -8.7848    8.3969 O   0  0  0  0  0  0  0  0  0  0  0  0
   -9.9873   -7.8598    7.7784 C   0  0  1  0  0  0  0  0  0  0  0  0
  -10.5008   -7.1497    6.6476 O   0  0  0  0  0  0  0  0  0  0  0  0
  -10.0367   -9.3634    7.5616 C   0  0  1  0  0  0  0  0  0  0  0  0
   -9.7976   -9.6806    6.1830 O   0  0  0  0  0  0  0  0  0  0  0  0
   -8.8327   -9.8818    8.3228 C   0  0  2  0  0  0  0  0  0  0  0  0
   -6.8465  -11.9643   12.5388 N   0  0  0  0  0  0  0  0  0  0  0  0
   -6.2865  -11.7921   11.3197 C   0  0  1  0  0  0  0  0  0  0  0  0
   -5.0142  -12.2014   11.1144 N   0  0  0  0  0  0  0  0  0  0  0  0
   -6.9809  -11.2186   10.3092 N   0  0  0  0  0  0  0  0  0  0  0  0
   -8.2553  -10.8112   10.5210 C   0  0  1  0  0  0  0  0  0  0  0  0
   -8.8526  -10.9762   11.7552 C   0  0  2  0  0  0  0  0  0  0  0  0
   -8.1178  -11.5670   12.7764 C   0  0  0  0  0  0  0  0  0  0  0  0
   -8.6189  -11.7349   13.9058 O   0  0  0  0  0  0  0  0  0  0  0  0
  -10.1060  -10.4873   11.6609 N   0  0  0  0  0  0  0  0  0  0  0  0
  -10.2747  -10.0248   10.4001 C   0  0  0  0  0  0  0  0  0  0  0  0
   -9.1403  -10.2285    9.7229 N   0  0  1  0  0  0  0  0  0  0  0  0
  1  2  1  6  0  0  0
  1  3  1  0  0  0  0
  1  4  2  0  0  0  0
  1  6  1  0  0  0  0
  5  6  1  0  0  0  0
  7  5  1  1  0  0  0
  7  8  1  0  0  0  0
  7  9  1  0  0  0  0
  9 10  1  6  0  0  0
  9 11  1  0  0  0  0
 11 12  1  6  0  0  0
 11 13  1  0  0  0  0
 13  8  1  1  0  0  0
 13 24  1  0  0  0  0
 14 15  1  0  0  0  0
 14 20  1  0  0  0  0
 15 16  1  6  0  0  0
 15 17  1  0  0  0  0
 18 17  1  1  0  0  0
 18 19  1  0  0  0  0
 18 24  1  0  0  0  0
 19 20  1  6  0  0  0
 19 22  1  0  0  0  0
 20 21  2  0  0  0  0
 22 23  1  0  0  0  0
 24 23  1  1  0  0  0
M  CHG  1   3  -1
M  END
>  <CHROM.1>
-177.55329961,64.19272844,176.20403991,-71.06021769,-7.88301133,-8.60795161
9.71746463,-1.34203302,0.71858047,2.55303878

>  <Name>
ligand

>  <RI>
0

>  <Rbt.Current_Directory>
/home/itssahil/PROJECTS/Mol_Feturizer/New_Systems/rnas/3SLQ

>  <Rbt.Executable>
rbdock ($Id: //depot/dev/client3/rdock/2013.1/src/exe/rbdock.cxx#4 $)

>  <Rbt.Library>
libRbt.so (2013.1, Build901 2013/11/27)

>  <Rbt.Parameter_File>
/export/apps/rDock/src/rDock_2013.1_src/data/scripts/dock_solv.prm

>  <Rbt.Receptor>
prm/pocket_docking_6.prm

>  <SCORE>
-20.4837

>  <SCORE.INTER>
-14.6277

>  <SCORE.INTER.CONST>
1

>  <SCORE.INTER.POLAR>
0

>  <SCORE.INTER.ROT>
4

>  <SCORE.INTER.SOLV>
16.1965

>  <SCORE.INTER.VDW>
-21.4173

>  <SCORE.INTER.norm>
-0.609488

>  <SCORE.INTRA>
-5.85601

>  <SCORE.INTRA.DIHEDRAL>
-11.9186

>  <SCORE.INTRA.DIHEDRAL.0>
13.2525

>  <SCORE.INTRA.POLAR>
0

>  <SCORE.INTRA.POLAR.0>
0

>  <SCORE.INTRA.REPUL>
0

>  <SCORE.INTRA.REPUL.0>
0

>  <SCORE.INTRA.SOLV>
0.460382

>  <SCORE.INTRA.SOLV.lig_0>
-70.7221

>  <SCORE.INTRA.VDW>
-0.126921

>  <SCORE.INTRA.VDW.0>
-1.46337

>  <SCORE.INTRA.norm>
-0.244001

>  <SCORE.RESTR>
0

>  <SCORE.RESTR.CAVITY>
0

>  <SCORE.RESTR.norm>
0

>  <SCORE.SYSTEM>
0

>  <SCORE.SYSTEM.CONST>
0

>  <SCORE.SYSTEM.DIHEDRAL>
0

>  <SCORE.SYSTEM.SOLV>
0

>  <SCORE.SYSTEM.norm>
0

>  <SCORE.heavy>
24

>  <SCORE.norm>
-0.853488

>  <RMSD>
8.174

$$$$
ligand
 OpenBabel11021811483D
libRbt.so/2013.1/901 2013/11/27
 24 26  0  0  0  0  0  0  0  0999 V2000
   -5.9770   -4.8768    9.4545 P   0  0  1  0  0  0  0  0  0  0  0  0
   -4.5305   -5.0089    9.0281 O   0  0  0  0  0  0  0  0  0  0  0  0
   -6.2793   -5.1816   10.9028 O   0  5  0  0  0  0  0  0  0  0  0  0
   -6.6517   -3.6028    8.9686 O   0  0  0  0  0  0  0  0  0  0  0  0
   -8.1274   -6.3739    8.7852 C   0  0  0  0  0  0  0  0  0  0  0  0
   -6.7126   -6.1242    8.7197 O   0  0  0  0  0  0  0  0  0  0  0  0
   -8.4860   -7.5735    7.9031 C   0  0  1  0  0  0  0  0  0  0  0  0
   -7.9075   -8.7895    8.3938 O   0  0  0  0  0  0  0  0  0  0  0  0
   -9.9744   -7.8494    7.7758 C   0  0  1  0  0  0  0  0  0  0  0  0
  -10.4829   -7.1349    6.6454 O   0  0  0  0  0  0  0  0  0  0  0  0
  -10.0346   -9.3525    7.5581 C   0  0  1  0  0  0  0  0  0  0  0  0
   -9.7977   -9.6705    6.1793 O   0  0  0  0  0  0  0  0  0  0  0  0
   -8.8343   -9.8799    8.3190 C   0  0  2  0  0  0  0  0  0  0  0  0
   -6.8609  -11.9727   12.5359 N   0  0  0  0  0  0  0  0  0  0  0  0
   -6.2993  -11.8030   11.3172 C   0  0  1  0  0  0  0  0  0  0  0  0
   -5.0289  -12.2186   11.1126 N   0  0  0  0  0  0  0  0  0  0  0  0
   -6.9903  -11.2261   10.3064 N   0  0  0  0  0  0  0  0  0  0  0  0
   -8.2628  -10.8124   10.5174 C   0  0  1  0  0  0  0  0  0  0  0  0
   -8.8616  -10.9745   11.7513 C   0  0  2  0  0  0  0  0  0  0  0  0
   -8.1303  -11.5691   12.7729 C   0  0  0  0  0  0  0  0  0  0  0  0
   -8.6329  -11.7347   13.9019 O   0  0  0  0  0  0  0  0  0  0  0  0
  -10.1125  -10.4795   11.6563 N   0  0  0  0  0  0  0  0  0  0  0  0
  -10.2782  -10.0160   10.3955 C   0  0  0  0  0  0  0  0  0  0  0  0
   -9.1444  -10.2252    9.7189 N   0  0  1  0  0  0  0  0  0  0  0  0
  1  2  1  6  0  0  0
  1  3  1  0  0  0  0
  1  4  2  0  0  0  0
  1  6  1  0  0  0  0
  5  6  1  0  0  0  0
  7  5  1  1  0  0  0
  7  8  1  0  0  0  0
  7  9  1  0  0  0  0
  9 10  1  6  0  0  0
  9 11  1  0  0  0  0
 11 12  1  6  0  0  0
 11 13  1  0  0  0  0
 13  8  1  1  0  0  0
 13 24  1  0  0  0  0
 14 15  1  0  0  0  0
 14 20  1  0  0  0  0
 15 16  1  6  0  0  0
 15 17  1  0  0  0  0
 18 17  1  1  0  0  0
 18 19  1  0  0  0  0
 18 24  1  0  0  0  0
 19 20  1  6  0  0  0
 19 22  1  0  0  0  0
 20 21  2  0  0  0  0
 22 23  1  0  0  0  0
 24 23  1  1  0  0  0
M  CHG  1   3  -1
M  END
>  <CHROM.1>
-177.03998917,65.56318952,176.20318798,-70.92880389,-7.87707931,-8.60553015
9.70648321,-1.33509778,0.71357946,2.54774199

>  <Name>
ligand

>  <RI>
0

>  <Rbt.Current_Directory>
/home/itssahil/PROJECTS/Mol_Feturizer/New_Systems/rnas/3SLQ

>  <Rbt.Executable>
rbdock ($Id: //depot/dev/client3/rdock/2013.1/src/exe/rbdock.cxx#4 $)

>  <Rbt.Library>
libRbt.so (2013.1, Build901 2013/11/27)

>  <Rbt.Parameter_File>
/export/apps/rDock/src/rDock_2013.1_src/data/scripts/dock_solv.prm

>  <Rbt.Receptor>
prm/pocket_docking_8.prm

>  <SCORE>
-20.4669

>  <SCORE.INTER>
-14.6316

>  <SCORE.INTER.CONST>
1

>  <SCORE.INTER.POLAR>
0

>  <SCORE.INTER.ROT>
4

>  <SCORE.INTER.SOLV>
16.4864

>  <SCORE.INTER.VDW>
-21.5165

>  <SCORE.INTER.norm>
-0.609648

>  <SCORE.INTRA>
-5.83536

>  <SCORE.INTRA.DIHEDRAL>
-11.8661

>  <SCORE.INTRA.DIHEDRAL.0>
13.2525

>  <SCORE.INTRA.POLAR>
0

>  <SCORE.INTRA.POLAR.0>
0

>  <SCORE.INTRA.REPUL>
0

>  <SCORE.INTRA.REPUL.0>
0

>  <SCORE.INTRA.SOLV>
0.453831

>  <SCORE.INTRA.SOLV.lig_0>
-70.7221

>  <SCORE.INTRA.VDW>
-0.12922

>  <SCORE.INTRA.VDW.0>
-1.46337

>  <SCORE.INTRA.norm>
-0.24314

>  <SCORE.RESTR>
0

>  <SCORE.RESTR.CAVITY>
0

>  <SCORE.RESTR.norm>
0

>  <SCORE.SYSTEM>
0

>  <SCORE.SYSTEM.CONST>
0

>  <SCORE.SYSTEM.DIHEDRAL>
0

>  <SCORE.SYSTEM.SOLV>
0

>  <SCORE.SYSTEM.norm>
0

>  <SCORE.heavy>
24

>  <SCORE.norm>
-0.852788

>  <RMSD>
8.182

$$$$
ligand
 OpenBabel11021811483D
libRbt.so/2013.1/901 2013/11/27
 24 26  0  0  0  0  0  0  0  0999 V2000
  -10.5541   -9.4788   10.4594 P   0  0  1  0  0  0  0  0  0  0  0  0
  -10.0994  -10.6799   11.2605 O   0  0  0  0  0  0  0  0  0  0  0  0
  -10.0459   -9.3884    9.0397 O   0  5  0  0  0  0  0  0  0  0  0  0
  -12.0435   -9.1887   10.5702 O   0  0  0  0  0  0  0  0  0  0  0  0
   -9.8777   -7.8833   12.5355 C   0  0  0  0  0  0  0  0  0  0  0  0
   -9.7668   -8.2351   11.1455 O   0  0  0  0  0  0  0  0  0  0  0  0
   -8.9222   -6.7307   12.8588 C   0  0  1  0  0  0  0  0  0  0  0  0
   -8.9550   -6.3833   14.2488 O   0  0  0  0  0  0  0  0  0  0  0  0
   -7.4625   -7.0034   12.5384 C   0  0  1  0  0  0  0  0  0  0  0  0
   -7.1934   -6.5717   11.2012 O   0  0  0  0  0  0  0  0  0  0  0  0
   -6.7164   -6.1579   13.5576 C   0  0  1  0  0  0  0  0  0  0  0  0
   -6.6219   -4.7981   13.1100 O   0  0  0  0  0  0  0  0  0  0  0  0
   -7.6391   -6.1371   14.7601 C   0  0  2  0  0  0  0  0  0  0  0  0
   -9.8763   -9.1861   18.1886 N   0  0  0  0  0  0  0  0  0  0  0  0
  -10.4119   -8.1925   17.4435 C   0  0  1  0  0  0  0  0  0  0  0  0
  -11.7291   -7.9122   17.5664 N   0  0  0  0  0  0  0  0  0  0  0  0
   -9.6492   -7.4796   16.5819 N   0  0  0  0  0  0  0  0  0  0  0  0
   -8.3303   -7.7647   16.4637 C   0  0  1  0  0  0  0  0  0  0  0  0
   -7.7567   -8.7728   17.2133 C   0  0  2  0  0  0  0  0  0  0  0  0
   -8.5618   -9.4905   18.0901 C   0  0  0  0  0  0  0  0  0  0  0  0
   -8.0842  -10.4085   18.7857 O   0  0  0  0  0  0  0  0  0  0  0  0
   -6.4484   -8.8172   16.8885 N   0  0  0  0  0  0  0  0  0  0  0  0
   -6.2226   -7.8638   15.9547 C   0  0  0  0  0  0  0  0  0  0  0  0
   -7.3767   -7.2359   15.7082 N   0  0  1  0  0  0  0  0  0  0  0  0
  1  2  1  1  0  0  0
  1  3  1  0  0  0  0
  1  4  2  0  0  0  0
  1  6  1  0  0  0  0
  5  6  1  0  0  0  0
  7  5  1  1  0  0  0
  7  8  1  0  0  0  0
  7  9  1  0  0  0  0
  9 10  1  6  0  0  0
  9 11  1  0  0  0  0
 11 12  1  6  0  0  0
 11 13  1  0  0  0  0
 13  8  1  6  0  0  0
 13 24  1  0  0  0  0
 14 15  1  0  0  0  0
 14 20  1  0  0  0  0
 15 16  1  1  0  0  0
 15 17  1  0  0  0  0
 18 17  1  6  0  0  0
 18 19  1  0  0  0  0
 18 24  1  0  0  0  0
 19 20  1  1  0  0  0
 19 22  1  0  0  0  0
 20 21  2  0  0  0  0
 22 23  1  0  0  0  0
 24 23  1  6  0  0  0
M  CHG  1   3  -1
M  END
>  <CHROM.1>
-57.96396998,-177.45669155,175.76296409,-35.02463413,-8.89133057,-8.07535959
14.08208284,1.85835328,-0.72200161,-1.41061312

>  <Name>
ligand

>  <RI>
0

>  <Rbt.Current_Directory>
/home/itssahil/PROJECTS/Mol_Feturizer/New_Systems/rnas/3SLQ

>  <Rbt.Executable>
rbdock ($Id: //depot/dev/client3/rdock/2013.1/src/exe/rbdock.cxx#4 $)

>  <Rbt.Library>
libRbt.so (2013.1, Build901 2013/11/27)

>  <Rbt.Parameter_File>
/export/apps/rDock/src/rDock_2013.1_src/data/scripts/dock_solv.prm

>  <Rbt.Receptor>
prm/pocket_docking_7.prm

>  <SCORE>
-16.7316

>  <SCORE.INTER>
-10.7542

>  <SCORE.INTER.CONST>
1

>  <SCORE.INTER.POLAR>
0

>  <SCORE.INTER.ROT>
4

>  <SCORE.INTER.SOLV>
11.8389

>  <SCORE.INTER.VDW>
-17.3825

>  <SCORE.INTER.norm>
-0.448093

>  <SCORE.INTRA>
-5.97734

>  <SCORE.INTRA.DIHEDRAL>
-11.9129

>  <SCORE.INTRA.DIHEDRAL.0>
13.2525

>  <SCORE.INTRA.POLAR>
0

>  <SCORE.INTRA.POLAR.0>
0

>  <SCORE.INTRA.REPUL>
0

>  <SCORE.INTRA.REPUL.0>
0

>  <SCORE.INTRA.SOLV>
0.0820521

>  <SCORE.INTRA.SOLV.lig_0>
-70.7221

>  <SCORE.INTRA.VDW>
-0.0618951

>  <SCORE.INTRA.VDW.0>
-1.46337

>  <SCORE.INTRA.norm>
-0.249056

>  <SCORE.RESTR>
0

>  <SCORE.RESTR.CAVITY>
0

>  <SCORE.RESTR.norm>
0

>  <SCORE.SYSTEM>
0

>  <SCORE.SYSTEM.CONST>
0

>  <SCORE.SYSTEM.DIHEDRAL>
0

>  <SCORE.SYSTEM.SOLV>
0

>  <SCORE.SYSTEM.norm>
0

>  <SCORE.heavy>
24

>  <SCORE.norm>
-0.697149

>  <RMSD>
8.186

$$$$
ligand
 OpenBabel11021811483D
libRbt.so/2013.1/901 2013/11/27
 24 26  0  0  0  0  0  0  0  0999 V2000
   -5.9644   -4.8680    9.4664 P   0  0  1  0  0  0  0  0  0  0  0  0
   -6.1686   -5.1646   10.9367 O   0  0  0  0  0  0  0  0  0  0  0  0
   -6.7333   -3.6946    8.9062 O   0  5  0  0  0  0  0  0  0  0  0  0
   -4.5071   -4.8786    9.0295 O   0  0  0  0  0  0  0  0  0  0  0  0
   -8.1145   -6.3674    8.8013 C   0  0  0  0  0  0  0  0  0  0  0  0
   -6.7033   -6.1040    8.7158 O   0  0  0  0  0  0  0  0  0  0  0  0
   -8.4762   -7.5617    7.9133 C   0  0  1  0  0  0  0  0  0  0  0  0
   -7.9015   -8.7817    8.3985 O   0  0  0  0  0  0  0  0  0  0  0  0
   -9.9653   -7.8327    7.7841 C   0  0  1  0  0  0  0  0  0  0  0  0
  -10.4711   -7.1113    6.6569 O   0  0  0  0  0  0  0  0  0  0  0  0
  -10.0298   -9.3345    7.5591 C   0  0  1  0  0  0  0  0  0  0  0  0
   -9.7932   -9.6466    6.1790 O   0  0  0  0  0  0  0  0  0  0  0  0
   -8.8314   -9.8690    8.3180 C   0  0  2  0  0  0  0  0  0  0  0  0
   -6.8574  -11.9636   12.5338 N   0  0  0  0  0  0  0  0  0  0  0  0
   -6.2937  -11.7874   11.3170 C   0  0  1  0  0  0  0  0  0  0  0  0
   -5.0206  -12.1955   11.1144 N   0  0  0  0  0  0  0  0  0  0  0  0
   -6.9852  -11.2111   10.3061 N   0  0  0  0  0  0  0  0  0  0  0  0
   -8.2604  -10.8049   10.5152 C   0  0  1  0  0  0  0  0  0  0  0  0
   -8.8615  -10.9739   11.7470 C   0  0  2  0  0  0  0  0  0  0  0  0
   -8.1296  -11.5675   12.7687 C   0  0  0  0  0  0  0  0  0  0  0  0
   -8.6341  -11.7392   13.8959 O   0  0  0  0  0  0  0  0  0  0  0  0
  -10.1148  -10.4853   11.6503 N   0  0  0  0  0  0  0  0  0  0  0  0
  -10.2798  -10.0191   10.3904 C   0  0  0  0  0  0  0  0  0  0  0  0
   -9.1432  -10.2202    9.7161 N   0  0  1  0  0  0  0  0  0  0  0  0
  1  2  1  1  0  0  0
  1  3  1  0  0  0  0
  1  4  2  0  0  0  0
  1  6  1  0  0  0  0
  5  6  1  0  0  0  0
  7  5  1  1  0  0  0
  7  8  1  0  0  0  0
  7  9  1  0  0  0  0
  9 10  1  6  0  0  0
  9 11  1  0  0  0  0
 11 12  1  6  0  0  0
 11 13  1  0  0  0  0
 13  8  1  1  0  0  0
 13 24  1  0  0  0  0
 14 15  1  0  0  0  0
 14 20  1  0  0  0  0
 15 16  1  6  0  0  0
 15 17  1  0  0  0  0
 18 17  1  1  0  0  0
 18 19  1  0  0  0  0
 18 24  1  0  0  0  0
 19 20  1  6  0  0  0
 19 22  1  0  0  0  0
 20 21  2  0  0  0  0
 22 23  1  0  0  0  0
 24 23  1  1  0  0  0
M  CHG  1   3  -1
M  END
>  <CHROM.1>
63.52661044,66.76338428,177.01601912,-70.42695202,-7.86988813,-8.59411805
9.70697090,-1.33136657,0.71021610,2.54652811

>  <Name>
ligand

>  <RI>
0

>  <Rbt.Current_Directory>
/home/itssahil/PROJECTS/Mol_Feturizer/New_Systems/rnas/3SLQ

>  <Rbt.Executable>
rbdock ($Id: //depot/dev/client3/rdock/2013.1/src/exe/rbdock.cxx#4 $)

>  <Rbt.Library>
libRbt.so (2013.1, Build901 2013/11/27)

>  <Rbt.Parameter_File>
/export/apps/rDock/src/rDock_2013.1_src/data/scripts/dock_solv.prm

>  <Rbt.Receptor>
prm/pocket_docking_7.prm

>  <SCORE>
-18.6953

>  <SCORE.INTER>
-12.6901

>  <SCORE.INTER.CONST>
1

>  <SCORE.INTER.POLAR>
0

>  <SCORE.INTER.ROT>
4

>  <SCORE.INTER.SOLV>
20.7479

>  <SCORE.INTER.VDW>
-21.6427

>  <SCORE.INTER.norm>
-0.528753

>  <SCORE.INTRA>
-6.00521

>  <SCORE.INTRA.DIHEDRAL>
-11.8341

>  <SCORE.INTRA.DIHEDRAL.0>
13.2525

>  <SCORE.INTRA.POLAR>
0

>  <SCORE.INTRA.POLAR.0>
0

>  <SCORE.INTRA.REPUL>
0

>  <SCORE.INTRA.REPUL.0>
0

>  <SCORE.INTRA.SOLV>
-0.0242342

>  <SCORE.INTRA.SOLV.lig_0>
-70.7221

>  <SCORE.INTRA.VDW>
-0.0760233

>  <SCORE.INTRA.VDW.0>
-1.46337

>  <SCORE.INTRA.norm>
-0.250217

>  <SCORE.RESTR>
0

>  <SCORE.RESTR.CAVITY>
0

>  <SCORE.RESTR.norm>
0

>  <SCORE.SYSTEM>
0

>  <SCORE.SYSTEM.CONST>
0

>  <SCORE.SYSTEM.DIHEDRAL>
0

>  <SCORE.SYSTEM.SOLV>
0

>  <SCORE.SYSTEM.norm>
0

>  <SCORE.heavy>
24

>  <SCORE.norm>
-0.77897

>  <RMSD>
8.189

$$$$
ligand
 OpenBabel11021811483D
libRbt.so/2013.1/901 2013/11/27
 24 26  0  0  0  0  0  0  0  0999 V2000
   -6.0190   -4.8336    9.4459 P   0  0  1  0  0  0  0  0  0  0  0  0
   -4.5685   -4.9524    9.0294 O   0  0  0  0  0  0  0  0  0  0  0  0
   -6.3265   -5.1273   10.8954 O   0  5  0  0  0  0  0  0  0  0  0  0
   -6.7061   -3.5729    8.9428 O   0  0  0  0  0  0  0  0  0  0  0  0
   -8.1466   -6.3655    8.7822 C   0  0  0  0  0  0  0  0  0  0  0  0
   -6.7351   -6.0973    8.7195 O   0  0  0  0  0  0  0  0  0  0  0  0
   -8.4868   -7.5730    7.9036 C   0  0  1  0  0  0  0  0  0  0  0  0
   -7.8986   -8.7804    8.4038 O   0  0  0  0  0  0  0  0  0  0  0  0
   -9.9714   -7.8653    7.7682 C   0  0  1  0  0  0  0  0  0  0  0  0
  -10.4801   -7.1616    6.6312 O   0  0  0  0  0  0  0  0  0  0  0  0
  -10.0142   -9.3700    7.5574 C   0  0  1  0  0  0  0  0  0  0  0  0
   -9.7652   -9.6919    6.1817 O   0  0  0  0  0  0  0  0  0  0  0  0
   -8.8133   -9.8809    8.3284 C   0  0  2  0  0  0  0  0  0  0  0  0
   -6.8663  -11.9922   12.5483 N   0  0  0  0  0  0  0  0  0  0  0  0
   -6.3014  -11.8284   11.3303 C   0  0  1  0  0  0  0  0  0  0  0  0
   -5.0349  -12.2565   11.1274 N   0  0  0  0  0  0  0  0  0  0  0  0
   -6.9853  -11.2448   10.3185 N   0  0  0  0  0  0  0  0  0  0  0  0
   -8.2539  -10.8186   10.5277 C   0  0  1  0  0  0  0  0  0  0  0  0
   -8.8560  -10.9746   11.7608 C   0  0  2  0  0  0  0  0  0  0  0  0
   -8.1319  -11.5761   12.7835 C   0  0  0  0  0  0  0  0  0  0  0  0
   -8.6377  -11.7365   13.9119 O   0  0  0  0  0  0  0  0  0  0  0  0
  -10.1019  -10.4672   11.6641 N   0  0  0  0  0  0  0  0  0  0  0  0
  -10.2613  -10.0025   10.4029 C   0  0  0  0  0  0  0  0  0  0  0  0
   -9.1287  -10.2230    9.7279 N   0  0  1  0  0  0  0  0  0  0  0  0
  1  2  1  6  0  0  0
  1  3  1  0  0  0  0
  1  4  2  0  0  0  0
  1  6  1  0  0  0  0
  5  6  1  0  0  0  0
  7  5  1  1  0  0  0
  7  8  1  0  0  0  0
  7  9  1  0  0  0  0
  9 10  1  6  0  0  0
  9 11  1  0  0  0  0
 11 12  1  6  0  0  0
 11 13  1  0  0  0  0
 13  8  1  1  0  0  0
 13 24  1  0  0  0  0
 14 15  1  0  0  0  0
 14 20  1  0  0  0  0
 15 16  1  6  0  0  0
 15 17  1  0  0  0  0
 18 17  1  1  0  0  0
 18 19  1  0  0  0  0
 18 24  1  0  0  0  0
 19 20  1  6  0  0  0
 19 22  1  0  0  0  0
 20 21  2  0  0  0  0
 22 23  1  0  0  0  0
 24 23  1  1  0  0  0
M  CHG  1   3  -1
M  END
>  <CHROM.1>
-177.21737209,65.82966624,175.90212622,-72.16352281,-7.88371585,-8.60024833
9.70851175,-1.34357118,0.72514807,2.55222995

>  <Name>
ligand

>  <RI>
0

>  <Rbt.Current_Directory>
/home/itssahil/PROJECTS/Mol_Feturizer/New_Systems/rnas/3SLQ

>  <Rbt.Executable>
rbdock ($Id: //depot/dev/client3/rdock/2013.1/src/exe/rbdock.cxx#4 $)

>  <Rbt.Library>
libRbt.so (2013.1, Build901 2013/11/27)

>  <Rbt.Parameter_File>
/export/apps/rDock/src/rDock_2013.1_src/data/scripts/dock_solv.prm

>  <Rbt.Receptor>
prm/pocket_docking_7.prm

>  <SCORE>
-20.4522

>  <SCORE.INTER>
-14.6204

>  <SCORE.INTER.CONST>
1

>  <SCORE.INTER.POLAR>
0

>  <SCORE.INTER.ROT>
4

>  <SCORE.INTER.SOLV>
16.4157

>  <SCORE.INTER.VDW>
-21.4855

>  <SCORE.INTER.norm>
-0.609182

>  <SCORE.INTRA>
-5.8318

>  <SCORE.INTRA.DIHEDRAL>
-11.8465

>  <SCORE.INTRA.DIHEDRAL.0>
13.2525

>  <SCORE.INTRA.POLAR>
0

>  <SCORE.INTRA.POLAR.0>
0

>  <SCORE.INTRA.REPUL>
0

>  <SCORE.INTRA.REPUL.0>
0

>  <SCORE.INTRA.SOLV>
0.451024

>  <SCORE.INTRA.SOLV.lig_0>
-70.7221

>  <SCORE.INTRA.VDW>
-0.134079

>  <SCORE.INTRA.VDW.0>
-1.46337

>  <SCORE.INTRA.norm>
-0.242992

>  <SCORE.RESTR>
0

>  <SCORE.RESTR.CAVITY>
0

>  <SCORE.RESTR.norm>
0

>  <SCORE.SYSTEM>
0

>  <SCORE.SYSTEM.CONST>
0

>  <SCORE.SYSTEM.DIHEDRAL>
0

>  <SCORE.SYSTEM.SOLV>
0

>  <SCORE.SYSTEM.norm>
0

>  <SCORE.heavy>
24

>  <SCORE.norm>
-0.852174

>  <RMSD>
8.191

$$$$
ligand
 OpenBabel11021811483D
libRbt.so/2013.1/901 2013/11/27
 24 26  0  0  0  0  0  0  0  0999 V2000
   -6.0020   -4.7219    9.3812 P   0  0  1  0  0  0  0  0  0  0  0  0
   -6.5766   -3.5896    8.5570 O   0  0  0  0  0  0  0  0  0  0  0  0
   -4.5460   -5.0492    9.1477 O   0  5  0  0  0  0  0  0  0  0  0  0
   -6.3602   -4.6559   10.8584 O   0  0  0  0  0  0  0  0  0  0  0  0
   -8.1371   -6.2598    8.7569 C   0  0  0  0  0  0  0  0  0  0  0  0
   -6.7149   -6.0465    8.7695 O   0  0  0  0  0  0  0  0  0  0  0  0
   -8.4715   -7.4915    7.9102 C   0  0  1  0  0  0  0  0  0  0  0  0
   -7.9306   -8.6920    8.4762 O   0  0  0  0  0  0  0  0  0  0  0  0
   -9.9562   -7.7566    7.7283 C   0  0  1  0  0  0  0  0  0  0  0  0
  -10.4054   -7.0848    6.5477 O   0  0  0  0  0  0  0  0  0  0  0  0
  -10.0257   -9.2667    7.5707 C   0  0  1  0  0  0  0  0  0  0  0  0
   -9.7323   -9.6449    6.2183 O   0  0  0  0  0  0  0  0  0  0  0  0
   -8.8668   -9.7745    8.4056 C   0  0  2  0  0  0  0  0  0  0  0  0
   -7.2271  -11.9950   12.6995 N   0  0  0  0  0  0  0  0  0  0  0  0
   -6.6249  -11.9112   11.4913 C   0  0  1  0  0  0  0  0  0  0  0  0
   -5.4046  -12.4689   11.3224 N   0  0  0  0  0  0  0  0  0  0  0  0
   -7.2261  -11.2800   10.4558 N   0  0  0  0  0  0  0  0  0  0  0  0
   -8.4487  -10.7239   10.6311 C   0  0  1  0  0  0  0  0  0  0  0  0
   -9.0875  -10.7957   11.8534 C   0  0  2  0  0  0  0  0  0  0  0  0
   -8.4484  -11.4488   12.9009 C   0  0  0  0  0  0  0  0  0  0  0  0
   -8.9898  -11.5367   14.0206 O   0  0  0  0  0  0  0  0  0  0  0  0
  -10.2733  -10.1668   11.7220 N   0  0  0  0  0  0  0  0  0  0  0  0
  -10.3600   -9.7113   10.4505 C   0  0  0  0  0  0  0  0  0  0  0  0
   -9.2426  -10.0574    9.8034 N   0  0  1  0  0  0  0  0  0  0  0  0
  1  2  1  6  0  0  0
  1  3  1  0  0  0  0
  1  4  2  0  0  0  0
  1  6  1  0  0  0  0
  5  6  1  0  0  0  0
  7  5  1  1  0  0  0
  7  8  1  0  0  0  0
  7  9  1  0  0  0  0
  9 10  1  6  0  0  0
  9 11  1  0  0  0  0
 11 12  1  6  0  0  0
 11 13  1  0  0  0  0
 13  8  1  1  0  0  0
 13 24  1  0  0  0  0
 14 15  1  0  0  0  0
 14 20  1  0  0  0  0
 15 16  1  6  0  0  0
 15 17  1  0  0  0  0
 18 17  1  1  0  0  0
 18 19  1  0  0  0  0
 18 24  1  0  0  0  0
 19 20  1  6  0  0  0
 19 22  1  0  0  0  0
 20 21  2  0  0  0  0
 22 23  1  0  0  0  0
 24 23  1  1  0  0  0
M  CHG  1   3  -1
M  END
>  <CHROM.1>
-60.04052337,64.23619290,170.84896034,-76.94811720,-7.97828338,-8.50557728
9.74054096,-1.29082558,0.74446425,2.49167876

>  <Name>
ligand

>  <RI>
0

>  <Rbt.Current_Directory>
/home/itssahil/PROJECTS/Mol_Feturizer/New_Systems/rnas/3SLQ

>  <Rbt.Executable>
rbdock ($Id: //depot/dev/client3/rdock/2013.1/src/exe/rbdock.cxx#4 $)

>  <Rbt.Library>
libRbt.so (2013.1, Build901 2013/11/27)

>  <Rbt.Parameter_File>
/export/apps/rDock/src/rDock_2013.1_src/data/scripts/dock_solv.prm

>  <Rbt.Receptor>
prm/pocket_docking_5.prm

>  <SCORE>
-19.1095

>  <SCORE.INTER>
-13.0831

>  <SCORE.INTER.CONST>
1

>  <SCORE.INTER.POLAR>
0

>  <SCORE.INTER.ROT>
4

>  <SCORE.INTER.SOLV>
19.1127

>  <SCORE.INTER.VDW>
-21.3597

>  <SCORE.INTER.norm>
-0.545131

>  <SCORE.INTRA>
-6.10097

>  <SCORE.INTRA.DIHEDRAL>
-11.5977

>  <SCORE.INTRA.DIHEDRAL.0>
13.2525

>  <SCORE.INTRA.POLAR>
0

>  <SCORE.INTRA.POLAR.0>
0

>  <SCORE.INTRA.REPUL>
0

>  <SCORE.INTRA.REPUL.0>
0

>  <SCORE.INTRA.SOLV>
-0.185938

>  <SCORE.INTRA.SOLV.lig_0>
-70.7221

>  <SCORE.INTRA.VDW>
-0.20915

>  <SCORE.INTRA.VDW.0>
-1.46337

>  <SCORE.INTRA.norm>
-0.254207

>  <SCORE.RESTR>
0.0745999

>  <SCORE.RESTR.CAVITY>
0.0745999

>  <SCORE.RESTR.norm>
0.00310833

>  <SCORE.SYSTEM>
0

>  <SCORE.SYSTEM.CONST>
0

>  <SCORE.SYSTEM.DIHEDRAL>
0

>  <SCORE.SYSTEM.SOLV>
0

>  <SCORE.SYSTEM.norm>
0

>  <SCORE.heavy>
24

>  <SCORE.norm>
-0.79623

>  <RMSD>
8.212

$$$$
ligand
 OpenBabel11021811483D
libRbt.so/2013.1/901 2013/11/27
 24 26  0  0  0  0  0  0  0  0999 V2000
   -6.0818   -4.8666    9.4425 P   0  0  1  0  0  0  0  0  0  0  0  0
   -4.6316   -4.9819    9.0243 O   0  0  0  0  0  0  0  0  0  0  0  0
   -6.3880   -5.1694   10.8904 O   0  5  0  0  0  0  0  0  0  0  0  0
   -6.7701   -3.6032    8.9477 O   0  0  0  0  0  0  0  0  0  0  0  0
   -8.2146   -6.3708    8.7338 C   0  0  0  0  0  0  0  0  0  0  0  0
   -6.7976   -6.1262    8.7089 O   0  0  0  0  0  0  0  0  0  0  0  0
   -8.5482   -7.5882    7.8663 C   0  0  1  0  0  0  0  0  0  0  0  0
   -7.9397   -8.7848    8.3680 O   0  0  0  0  0  0  0  0  0  0  0  0
  -10.0303   -7.9002    7.7479 C   0  0  1  0  0  0  0  0  0  0  0  0
  -10.5594   -7.2103    6.6118 O   0  0  0  0  0  0  0  0  0  0  0  0
  -10.0561   -9.4065    7.5469 C   0  0  1  0  0  0  0  0  0  0  0  0
   -9.8169   -9.7341    6.1708 O   0  0  0  0  0  0  0  0  0  0  0  0
   -8.8410   -9.8973    8.3088 C   0  0  2  0  0  0  0  0  0  0  0  0
   -6.8648  -12.0620   12.4880 N   0  0  0  0  0  0  0  0  0  0  0  0
   -6.3194  -11.9093   11.2597 C   0  0  1  0  0  0  0  0  0  0  0  0
   -5.0675  -12.3669   11.0321 N   0  0  0  0  0  0  0  0  0  0  0  0
   -7.0084  -11.3078   10.2618 N   0  0  0  0  0  0  0  0  0  0  0  0
   -8.2623  -10.8521   10.4958 C   0  0  1  0  0  0  0  0  0  0  0  0
   -8.8444  -10.9960   11.7398 C   0  0  2  0  0  0  0  0  0  0  0  0
   -8.1156  -11.6165   12.7477 C   0  0  0  0  0  0  0  0  0  0  0  0
   -8.6034  -11.7669   13.8853 O   0  0  0  0  0  0  0  0  0  0  0  0
  -10.0795  -10.4592   11.6675 N   0  0  0  0  0  0  0  0  0  0  0  0
  -10.2518   -9.9884   10.4103 C   0  0  0  0  0  0  0  0  0  0  0  0
   -9.1378  -10.2344    9.7135 N   0  0  1  0  0  0  0  0  0  0  0  0
  1  2  1  6  0  0  0
  1  3  1  0  0  0  0
  1  4  2  0  0  0  0
  1  6  1  0  0  0  0
  5  6  1  0  0  0  0
  7  5  1  1  0  0  0
  7  8  1  0  0  0  0
  7  9  1  0  0  0  0
  9 10  1  6  0  0  0
  9 11  1  0  0  0  0
 11 12  1  6  0  0  0
 11 13  1  0  0  0  0
 13  8  1  1  0  0  0
 13 24  1  0  0  0  0
 14 15  1  0  0  0  0
 14 20  1  0  0  0  0
 15 16  1  6  0  0  0
 15 17  1  0  0  0  0
 18 17  1  1  0  0  0
 18 19  1  0  0  0  0
 18 24  1  0  0  0  0
 19 20  1  6  0  0  0
 19 22  1  0  0  0  0
 20 21  2  0  0  0  0
 22 23  1  0  0  0  0
 24 23  1  1  0  0  0
M  CHG  1   3  -1
M  END
>  <CHROM.1>
-175.05178533,62.93186064,176.30623674,-74.35803787,-7.91759314,-8.63386562
9.68426690,-1.36399842,0.72857151,2.56911625

>  <Name>
ligand

>  <RI>
0

>  <Rbt.Current_Directory>
/home/itssahil/PROJECTS/Mol_Feturizer/New_Systems/rnas/3SLQ

>  <Rbt.Executable>
rbdock ($Id: //depot/dev/client3/rdock/2013.1/src/exe/rbdock.cxx#4 $)

>  <Rbt.Library>
libRbt.so (2013.1, Build901 2013/11/27)

>  <Rbt.Parameter_File>
/export/apps/rDock/src/rDock_2013.1_src/data/scripts/dock_solv.prm

>  <Rbt.Receptor>
prm/pocket_docking_7.prm

>  <SCORE>
-20.4954

>  <SCORE.INTER>
-14.6129

>  <SCORE.INTER.CONST>
1

>  <SCORE.INTER.POLAR>
0

>  <SCORE.INTER.ROT>
4

>  <SCORE.INTER.SOLV>
16.6329

>  <SCORE.INTER.VDW>
-21.5529

>  <SCORE.INTER.norm>
-0.608873

>  <SCORE.INTRA>
-5.88243

>  <SCORE.INTRA.DIHEDRAL>
-11.9264

>  <SCORE.INTRA.DIHEDRAL.0>
13.2525

>  <SCORE.INTRA.POLAR>
0

>  <SCORE.INTRA.POLAR.0>
0

>  <SCORE.INTRA.REPUL>
0

>  <SCORE.INTRA.REPUL.0>
0

>  <SCORE.INTRA.SOLV>
0.461048

>  <SCORE.INTRA.SOLV.lig_0>
-70.7221

>  <SCORE.INTRA.VDW>
-0.149734

>  <SCORE.INTRA.VDW.0>
-1.46337

>  <SCORE.INTRA.norm>
-0.245101

>  <SCORE.RESTR>
0

>  <SCORE.RESTR.CAVITY>
0

>  <SCORE.RESTR.norm>
0

>  <SCORE.SYSTEM>
0

>  <SCORE.SYSTEM.CONST>
0

>  <SCORE.SYSTEM.DIHEDRAL>
0

>  <SCORE.SYSTEM.SOLV>
0

>  <SCORE.SYSTEM.norm>
0

>  <SCORE.heavy>
24

>  <SCORE.norm>
-0.853974

>  <RMSD>
8.217

$$$$
ligand
 OpenBabel11021811483D
libRbt.so/2013.1/901 2013/11/27
 24 26  0  0  0  0  0  0  0  0999 V2000
   -6.9788   -5.6472    9.5378 P   0  0  1  0  0  0  0  0  0  0  0  0
   -7.3492   -6.2457   10.8780 O   0  0  0  0  0  0  0  0  0  0  0  0
   -6.3587   -4.2701    9.5670 O   0  5  0  0  0  0  0  0  0  0  0  0
   -6.2402   -6.6051    8.6151 O   0  0  0  0  0  0  0  0  0  0  0  0
   -9.5302   -6.2276    8.8544 C   0  0  0  0  0  0  0  0  0  0  0  0
   -8.4132   -5.3219    8.8494 O   0  0  0  0  0  0  0  0  0  0  0  0
   -9.2461   -7.4101    7.9234 C   0  0  1  0  0  0  0  0  0  0  0  0
   -8.2634   -8.2978    8.4717 O   0  0  0  0  0  0  0  0  0  0  0  0
  -10.4524   -8.2779    7.6081 C   0  0  1  0  0  0  0  0  0  0  0  0
  -11.0889   -7.7755    6.4295 O   0  0  0  0  0  0  0  0  0  0  0  0
   -9.8440   -9.6505    7.3709 C   0  0  1  0  0  0  0  0  0  0  0  0
   -9.3449   -9.7540    6.0299 O   0  0  0  0  0  0  0  0  0  0  0  0
   -8.6248   -9.6699    8.2714 C   0  0  2  0  0  0  0  0  0  0  0  0
   -6.6219  -12.4074   12.0860 N   0  0  0  0  0  0  0  0  0  0  0  0
   -6.0874  -12.0868   10.8856 C   0  0  1  0  0  0  0  0  0  0  0  0
   -4.8405  -12.5138   10.5835 N   0  0  0  0  0  0  0  0  0  0  0  0
   -6.7822  -11.3484    9.9889 N   0  0  0  0  0  0  0  0  0  0  0  0
   -8.0311  -10.9241   10.2972 C   0  0  1  0  0  0  0  0  0  0  0  0
   -8.6022  -11.2381   11.5148 C   0  0  2  0  0  0  0  0  0  0  0  0
   -7.8675  -11.9969   12.4184 C   0  0  0  0  0  0  0  0  0  0  0  0
   -8.3454  -12.3029   13.5287 O   0  0  0  0  0  0  0  0  0  0  0  0
   -9.8347  -10.6907   11.5311 N   0  0  0  0  0  0  0  0  0  0  0  0
  -10.0161  -10.0478   10.3539 C   0  0  0  0  0  0  0  0  0  0  0  0
   -8.9102  -10.1990    9.6182 N   0  0  1  0  0  0  0  0  0  0  0  0
  1  2  1  1  0  0  0
  1  3  1  0  0  0  0
  1  4  2  0  0  0  0
  1  6  1  0  0  0  0
  5  6  1  0  0  0  0
  7  5  1  1  0  0  0
  7  8  1  0  0  0  0
  7  9  1  0  0  0  0
  9 10  1  6  0  0  0
  9 11  1  0  0  0  0
 11 12  1  6  0  0  0
 11 13  1  0  0  0  0
 13  8  1  1  0  0  0
 13 24  1  0  0  0  0
 14 15  1  0  0  0  0
 14 20  1  0  0  0  0
 15 16  1  6  0  0  0
 15 17  1  0  0  0  0
 18 17  1  1  0  0  0
 18 19  1  0  0  0  0
 18 24  1  0  0  0  0
 19 20  1  6  0  0  0
 19 22  1  0  0  0  0
 20 21  2  0  0  0  0
 22 23  1  0  0  0  0
 24 23  1  1  0  0  0
M  CHG  1   3  -1
M  END
>  <CHROM.1>
-44.43185747,72.12014886,-71.25530685,-100.11562097,-8.16240341,-8.90844586
9.58230822,-1.74648064,0.77350118,2.77016658

>  <Name>
ligand

>  <RI>
0

>  <Rbt.Current_Directory>
/home/itssahil/PROJECTS/Mol_Feturizer/New_Systems/rnas/3SLQ

>  <Rbt.Executable>
rbdock ($Id: //depot/dev/client3/rdock/2013.1/src/exe/rbdock.cxx#4 $)

>  <Rbt.Library>
libRbt.so (2013.1, Build901 2013/11/27)

>  <Rbt.Parameter_File>
/export/apps/rDock/src/rDock_2013.1_src/data/scripts/dock_solv.prm

>  <Rbt.Receptor>
prm/pocket_docking_6.prm

>  <SCORE>
-15.5358

>  <SCORE.INTER>
-10.7548

>  <SCORE.INTER.CONST>
1

>  <SCORE.INTER.POLAR>
0

>  <SCORE.INTER.ROT>
4

>  <SCORE.INTER.SOLV>
16.6815

>  <SCORE.INTER.VDW>
-18.997

>  <SCORE.INTER.norm>
-0.448117

>  <SCORE.INTRA>
-4.78099

>  <SCORE.INTRA.DIHEDRAL>
-10.5691

>  <SCORE.INTRA.DIHEDRAL.0>
13.2525

>  <SCORE.INTRA.POLAR>
0

>  <SCORE.INTRA.POLAR.0>
0

>  <SCORE.INTRA.REPUL>
0

>  <SCORE.INTRA.REPUL.0>
0

>  <SCORE.INTRA.SOLV>
2.66211

>  <SCORE.INTRA.SOLV.lig_0>
-70.7221

>  <SCORE.INTRA.VDW>
-0.827508

>  <SCORE.INTRA.VDW.0>
-1.46337

>  <SCORE.INTRA.norm>
-0.199208

>  <SCORE.RESTR>
0

>  <SCORE.RESTR.CAVITY>
0

>  <SCORE.RESTR.norm>
0

>  <SCORE.SYSTEM>
0

>  <SCORE.SYSTEM.CONST>
0

>  <SCORE.SYSTEM.DIHEDRAL>
0

>  <SCORE.SYSTEM.SOLV>
0

>  <SCORE.SYSTEM.norm>
0

>  <SCORE.heavy>
24

>  <SCORE.norm>
-0.647325

>  <RMSD>
8.238

$$$$
ligand
 OpenBabel11021811483D
libRbt.so/2013.1/901 2013/11/27
 24 26  0  0  0  0  0  0  0  0999 V2000
   -7.0845   -5.0054    9.5507 P   0  0  1  0  0  0  0  0  0  0  0  0
   -6.3785   -6.0806    8.7525 O   0  0  0  0  0  0  0  0  0  0  0  0
   -6.3186   -4.4233   10.7154 O   0  5  0  0  0  0  0  0  0  0  0  0
   -7.7546   -3.9397    8.6963 O   0  0  0  0  0  0  0  0  0  0  0  0
   -9.4656   -6.2786    9.7007 C   0  0  0  0  0  0  0  0  0  0  0  0
   -8.2601   -5.8104   10.3298 O   0  0  0  0  0  0  0  0  0  0  0  0
   -9.1235   -7.3134    8.6246 C   0  0  1  0  0  0  0  0  0  0  0  0
   -8.1262   -8.2402    9.0724 O   0  0  0  0  0  0  0  0  0  0  0  0
  -10.2945   -8.1630    8.1613 C   0  0  1  0  0  0  0  0  0  0  0  0
  -10.9196   -7.5212    7.0459 O   0  0  0  0  0  0  0  0  0  0  0  0
   -9.6382   -9.4723    7.7549 C   0  0  1  0  0  0  0  0  0  0  0  0
   -9.1058   -9.3764    6.4262 O   0  0  0  0  0  0  0  0  0  0  0  0
   -8.4397   -9.5813    8.6766 C   0  0  2  0  0  0  0  0  0  0  0  0
   -6.4155  -12.7030   12.1715 N   0  0  0  0  0  0  0  0  0  0  0  0
   -5.8612  -12.1998   11.0450 C   0  0  1  0  0  0  0  0  0  0  0  0
   -4.5846  -12.5220   10.7370 N   0  0  0  0  0  0  0  0  0  0  0  0
   -6.5657  -11.3828   10.2274 N   0  0  0  0  0  0  0  0  0  0  0  0
   -7.8443  -11.0642   10.5410 C   0  0  1  0  0  0  0  0  0  0  0  0
   -8.4359  -11.5650   11.6840 C   0  0  2  0  0  0  0  0  0  0  0  0
   -7.6908  -12.4011   12.5073 C   0  0  0  0  0  0  0  0  0  0  0  0
   -8.1865  -12.8751   13.5486 O   0  0  0  0  0  0  0  0  0  0  0  0
   -9.6955  -11.0849   11.7251 N   0  0  0  0  0  0  0  0  0  0  0  0
   -9.8737  -10.3002   10.6367 C   0  0  0  0  0  0  0  0  0  0  0  0
   -8.7388  -10.2984    9.9302 N   0  0  1  0  0  0  0  0  0  0  0  0
  1  2  1  6  0  0  0
  1  3  1  0  0  0  0
  1  4  2  0  0  0  0
  1  6  1  0  0  0  0
  5  6  1  0  0  0  0
  7  5  1  1  0  0  0
  7  8  1  0  0  0  0
  7  9  1  0  0  0  0
  9 10  1  6  0  0  0
  9 11  1  0  0  0  0
 11 12  1  6  0  0  0
 11 13  1  0  0  0  0
 13  8  1  1  0  0  0
 13 24  1  0  0  0  0
 14 15  1  0  0  0  0
 14 20  1  0  0  0  0
 15 16  1  6  0  0  0
 15 17  1  0  0  0  0
 18 17  1  1  0  0  0
 18 19  1  0  0  0  0
 18 24  1  0  0  0  0
 19 20  1  6  0  0  0
 19 22  1  0  0  0  0
 20 21  2  0  0  0  0
 22 23  1  0  0  0  0
 24 23  1  1  0  0  0
M  CHG  1   3  -1
M  END
>  <CHROM.1>
-75.32578559,43.18793901,63.04004288,-98.75345619,-8.05910103,-8.80770422
9.86238728,-1.69622477,0.69720817,2.83562068

>  <Name>
ligand

>  <RI>
0

>  <Rbt.Current_Directory>
/home/itssahil/PROJECTS/Mol_Feturizer/New_Systems/rnas/3SLQ

>  <Rbt.Executable>
rbdock ($Id: //depot/dev/client3/rdock/2013.1/src/exe/rbdock.cxx#4 $)

>  <Rbt.Library>
libRbt.so (2013.1, Build901 2013/11/27)

>  <Rbt.Parameter_File>
/export/apps/rDock/src/rDock_2013.1_src/data/scripts/dock_solv.prm

>  <Rbt.Receptor>
prm/pocket_docking_6.prm

>  <SCORE>
-16.0183

>  <SCORE.INTER>
-10.6369

>  <SCORE.INTER.CONST>
1

>  <SCORE.INTER.POLAR>
0

>  <SCORE.INTER.ROT>
4

>  <SCORE.INTER.SOLV>
14.1941

>  <SCORE.INTER.VDW>
-18.0893

>  <SCORE.INTER.norm>
-0.443203

>  <SCORE.INTRA>
-5.38141

>  <SCORE.INTRA.DIHEDRAL>
-10.7006

>  <SCORE.INTRA.DIHEDRAL.0>
13.2525

>  <SCORE.INTRA.POLAR>
0

>  <SCORE.INTRA.POLAR.0>
0

>  <SCORE.INTRA.REPUL>
0

>  <SCORE.INTRA.REPUL.0>
0

>  <SCORE.INTRA.SOLV>
1.2433

>  <SCORE.INTRA.SOLV.lig_0>
-70.7221

>  <SCORE.INTRA.VDW>
-0.65274

>  <SCORE.INTRA.VDW.0>
-1.46337

>  <SCORE.INTRA.norm>
-0.224225

>  <SCORE.RESTR>
0

>  <SCORE.RESTR.CAVITY>
0

>  <SCORE.RESTR.norm>
0

>  <SCORE.SYSTEM>
0

>  <SCORE.SYSTEM.CONST>
0

>  <SCORE.SYSTEM.DIHEDRAL>
0

>  <SCORE.SYSTEM.SOLV>
0

>  <SCORE.SYSTEM.norm>
0

>  <SCORE.heavy>
24

>  <SCORE.norm>
-0.667428

>  <RMSD>
8.290

$$$$
ligand
 OpenBabel11021811483D
libRbt.so/2013.1/901 2013/11/27
 24 26  0  0  0  0  0  0  0  0999 V2000
  -10.2666   -9.2085   11.4092 P   0  0  1  0  0  0  0  0  0  0  0  0
  -11.4603  -10.0734   11.0649 O   0  0  0  0  0  0  0  0  0  0  0  0
  -10.3104   -8.5070   12.7463 O   0  5  0  0  0  0  0  0  0  0  0  0
   -8.9239   -9.8696   11.1358 O   0  0  0  0  0  0  0  0  0  0  0  0
   -9.6243   -6.7393   10.5125 C   0  0  0  0  0  0  0  0  0  0  0  0
  -10.3988   -7.9455   10.3969 O   0  0  0  0  0  0  0  0  0  0  0  0
  -10.0375   -5.7485    9.4201 C   0  0  1  0  0  0  0  0  0  0  0  0
   -9.6792   -6.2142    8.1129 O   0  0  0  0  0  0  0  0  0  0  0  0
  -11.5264   -5.4533    9.3566 C   0  0  1  0  0  0  0  0  0  0  0  0
  -11.8111   -4.3267   10.1911 O   0  0  0  0  0  0  0  0  0  0  0  0
  -11.7575   -5.1323    7.8890 C   0  0  1  0  0  0  0  0  0  0  0  0
  -11.4149   -3.7667    7.6133 O   0  0  0  0  0  0  0  0  0  0  0  0
  -10.7262   -5.9745    7.1644 C   0  0  2  0  0  0  0  0  0  0  0  0
  -14.9631   -8.5337    5.9171 N   0  0  0  0  0  0  0  0  0  0  0  0
  -14.8122   -7.2309    6.2479 C   0  0  1  0  0  0  0  0  0  0  0  0
  -15.8978   -6.4249    6.2661 N   0  0  0  0  0  0  0  0  0  0  0  0
  -13.5947   -6.7281    6.5592 N   0  0  0  0  0  0  0  0  0  0  0  0
  -12.5111   -7.5407    6.5397 C   0  0  1  0  0  0  0  0  0  0  0  0
  -12.6363   -8.8753    6.2073 C   0  0  2  0  0  0  0  0  0  0  0  0
  -13.8974   -9.3668    5.8908 C   0  0  0  0  0  0  0  0  0  0  0  0
  -14.0548  -10.5653    5.5852 O   0  0  0  0  0  0  0  0  0  0  0  0
  -11.4056   -9.4221    6.2795 N   0  0  0  0  0  0  0  0  0  0  0  0
  -10.5408   -8.4456    6.6406 C   0  0  0  0  0  0  0  0  0  0  0  0
  -11.2295   -7.3100    6.7927 N   0  0  1  0  0  0  0  0  0  0  0  0
  1  2  1  6  0  0  0
  1  3  1  0  0  0  0
  1  4  2  0  0  0  0
  1  6  1  0  0  0  0
  5  6  1  0  0  0  0
  7  5  1  1  0  0  0
  7  8  1  0  0  0  0
  7  9  1  0  0  0  0
  9 10  1  1  0  0  0
  9 11  1  0  0  0  0
 11 12  1  1  0  0  0
 11 13  1  0  0  0  0
 13  8  1  1  0  0  0
 13 24  1  0  0  0  0
 14 15  1  0  0  0  0
 14 20  1  0  0  0  0
 15 16  1  1  0  0  0
 15 17  1  0  0  0  0
 18 17  1  6  0  0  0
 18 19  1  0  0  0  0
 18 24  1  0  0  0  0
 19 20  1  1  0  0  0
 19 22  1  0  0  0  0
 20 21  2  0  0  0  0
 22 23  1  0  0  0  0
 24 23  1  6  0  0  0
M  CHG  1   3  -1
M  END
>  <CHROM.1>
168.34753017,-67.21074950,-178.28190506,144.28960702,-11.68050051,-7.56428564
8.43297771,0.18962236,0.91530953,2.97182699

>  <Name>
ligand

>  <RI>
0

>  <Rbt.Current_Directory>
/home/itssahil/PROJECTS/Mol_Feturizer/New_Systems/rnas/3SLQ

>  <Rbt.Executable>
rbdock ($Id: //depot/dev/client3/rdock/2013.1/src/exe/rbdock.cxx#4 $)

>  <Rbt.Library>
libRbt.so (2013.1, Build901 2013/11/27)

>  <Rbt.Parameter_File>
/export/apps/rDock/src/rDock_2013.1_src/data/scripts/dock_solv.prm

>  <Rbt.Receptor>
prm/pocket_docking_8.prm

>  <SCORE>
-14.2188

>  <SCORE.INTER>
-8.85606

>  <SCORE.INTER.CONST>
1

>  <SCORE.INTER.POLAR>
0

>  <SCORE.INTER.ROT>
4

>  <SCORE.INTER.SOLV>
9.43291

>  <SCORE.INTER.VDW>
-15.315

>  <SCORE.INTER.norm>
-0.369003

>  <SCORE.INTRA>
-5.36278

>  <SCORE.INTRA.DIHEDRAL>
-11.6552

>  <SCORE.INTRA.DIHEDRAL.0>
13.2525

>  <SCORE.INTRA.POLAR>
0

>  <SCORE.INTRA.POLAR.0>
0

>  <SCORE.INTRA.REPUL>
0

>  <SCORE.INTRA.REPUL.0>
0

>  <SCORE.INTRA.SOLV>
0.593996

>  <SCORE.INTRA.SOLV.lig_0>
-70.7221

>  <SCORE.INTRA.VDW>
0.167808

>  <SCORE.INTRA.VDW.0>
-1.46337

>  <SCORE.INTRA.norm>
-0.223449

>  <SCORE.RESTR>
0

>  <SCORE.RESTR.CAVITY>
0

>  <SCORE.RESTR.norm>
0

>  <SCORE.SYSTEM>
0

>  <SCORE.SYSTEM.CONST>
0

>  <SCORE.SYSTEM.DIHEDRAL>
0

>  <SCORE.SYSTEM.SOLV>
0

>  <SCORE.SYSTEM.norm>
0

>  <SCORE.heavy>
24

>  <SCORE.norm>
-0.592452

>  <RMSD>
8.299

$$$$
ligand
 OpenBabel11021811483D
libRbt.so/2013.1/901 2013/11/27
 24 26  0  0  0  0  0  0  0  0999 V2000
   -8.0848  -10.5152   10.5418 P   0  0  1  0  0  0  0  0  0  0  0  0
   -8.2422  -10.7096    9.0488 O   0  0  0  0  0  0  0  0  0  0  0  0
   -8.0270   -9.0867   11.0294 O   0  5  0  0  0  0  0  0  0  0  0  0
   -9.0090  -11.3857   11.3801 O   0  0  0  0  0  0  0  0  0  0  0  0
   -5.9178  -12.0841   10.1462 C   0  0  0  0  0  0  0  0  0  0  0  0
   -6.5635  -11.0007   10.8372 O   0  0  0  0  0  0  0  0  0  0  0  0
   -4.5463  -12.3566   10.7711 C   0  0  1  0  0  0  0  0  0  0  0  0
   -3.7686  -11.1593   10.8959 O   0  0  0  0  0  0  0  0  0  0  0  0
   -4.5888  -12.9652   12.1623 C   0  0  1  0  0  0  0  0  0  0  0  0
   -4.5834  -14.3910   12.0445 O   0  0  0  0  0  0  0  0  0  0  0  0
   -3.3107  -12.4545   12.8072 C   0  0  1  0  0  0  0  0  0  0  0  0
   -2.1935  -13.2676   12.4214 O   0  0  0  0  0  0  0  0  0  0  0  0
   -3.0874  -11.1042   12.1555 C   0  0  2  0  0  0  0  0  0  0  0  0
   -3.4536   -8.9645   16.7754 N   0  0  0  0  0  0  0  0  0  0  0  0
   -2.7642  -10.0622   16.3891 C   0  0  1  0  0  0  0  0  0  0  0  0
   -2.0369  -10.7407   17.3051 N   0  0  0  0  0  0  0  0  0  0  0  0
   -2.7942  -10.4867   15.1042 N   0  0  0  0  0  0  0  0  0  0  0  0
   -3.5251   -9.8031   14.1913 C   0  0  1  0  0  0  0  0  0  0  0  0
   -4.2400   -8.6799   14.5583 C   0  0  2  0  0  0  0  0  0  0  0  0
   -4.1919   -8.2642   15.8838 C   0  0  0  0  0  0  0  0  0  0  0  0
   -4.8225   -7.2556   16.2575 O   0  0  0  0  0  0  0  0  0  0  0  0
   -4.8639   -8.2246   13.4527 N   0  0  0  0  0  0  0  0  0  0  0  0
   -4.5351   -9.0437   12.4266 C   0  0  0  0  0  0  0  0  0  0  0  0
   -3.7204   -9.9953   12.8934 N   0  0  1  0  0  0  0  0  0  0  0  0
  1  2  1  6  0  0  0
  1  3  1  0  0  0  0
  1  4  2  0  0  0  0
  1  6  1  0  0  0  0
  5  6  1  0  0  0  0
  7  5  1  1  0  0  0
  7  8  1  0  0  0  0
  7  9  1  0  0  0  0
  9 10  1  6  0  0  0
  9 11  1  0  0  0  0
 11 12  1  6  0  0  0
 11 13  1  0  0  0  0
 13  8  1  6  0  0  0
 13 24  1  0  0  0  0
 14 15  1  0  0  0  0
 14 20  1  0  0  0  0
 15 16  1  1  0  0  0
 15 17  1  0  0  0  0
 18 17  1  6  0  0  0
 18 19  1  0  0  0  0
 18 24  1  0  0  0  0
 19 20  1  1  0  0  0
 19 22  1  0  0  0  0
 20 21  2  0  0  0  0
 22 23  1  0  0  0  0
 24 23  1  6  0  0  0
M  CHG  1   3  -1
M  END
>  <CHROM.1>
-35.35440750,-50.55844987,-174.37485961,167.07180773,-4.95141230,-10.62182797
12.76920163,2.37381712,0.60488394,-2.39967861

>  <Name>
ligand

>  <RI>
0

>  <Rbt.Current_Directory>
/home/itssahil/PROJECTS/Mol_Feturizer/New_Systems/rnas/3SLQ

>  <Rbt.Executable>
rbdock ($Id: //depot/dev/client3/rdock/2013.1/src/exe/rbdock.cxx#4 $)

>  <Rbt.Library>
libRbt.so (2013.1, Build901 2013/11/27)

>  <Rbt.Parameter_File>
/export/apps/rDock/src/rDock_2013.1_src/data/scripts/dock_solv.prm

>  <Rbt.Receptor>
prm/pocket_docking_8.prm

>  <SCORE>
-12.3426

>  <SCORE.INTER>
-6.40998

>  <SCORE.INTER.CONST>
1

>  <SCORE.INTER.POLAR>
0

>  <SCORE.INTER.ROT>
4

>  <SCORE.INTER.SOLV>
10.9141

>  <SCORE.INTER.VDW>
-14.178

>  <SCORE.INTER.norm>
-0.267083

>  <SCORE.INTRA>
-5.93263

>  <SCORE.INTRA.DIHEDRAL>
-10.723

>  <SCORE.INTRA.DIHEDRAL.0>
13.2525

>  <SCORE.INTRA.POLAR>
0

>  <SCORE.INTRA.POLAR.0>
0

>  <SCORE.INTRA.REPUL>
0

>  <SCORE.INTRA.REPUL.0>
0

>  <SCORE.INTRA.SOLV>
-0.0550397

>  <SCORE.INTRA.SOLV.lig_0>
-70.7221

>  <SCORE.INTRA.VDW>
-0.543612

>  <SCORE.INTRA.VDW.0>
-1.46337

>  <SCORE.INTRA.norm>
-0.247193

>  <SCORE.RESTR>
0

>  <SCORE.RESTR.CAVITY>
0

>  <SCORE.RESTR.norm>
0

>  <SCORE.SYSTEM>
0

>  <SCORE.SYSTEM.CONST>
0

>  <SCORE.SYSTEM.DIHEDRAL>
0

>  <SCORE.SYSTEM.SOLV>
0

>  <SCORE.SYSTEM.norm>
0

>  <SCORE.heavy>
24

>  <SCORE.norm>
-0.514276

>  <RMSD>
8.299

$$$$
ligand
 OpenBabel11021811483D
libRbt.so/2013.1/901 2013/11/27
 24 26  0  0  0  0  0  0  0  0999 V2000
   -4.8811  -11.4498   10.4230 P   0  0  1  0  0  0  0  0  0  0  0  0
   -5.7576  -12.6224   10.0380 O   0  0  0  0  0  0  0  0  0  0  0  0
   -4.0848  -11.5983   11.6981 O   0  5  0  0  0  0  0  0  0  0  0  0
   -4.0535  -10.8923    9.2746 O   0  0  0  0  0  0  0  0  0  0  0  0
   -7.1452  -10.0004   10.1288 C   0  0  0  0  0  0  0  0  0  0  0  0
   -5.9420  -10.2996   10.8575 O   0  0  0  0  0  0  0  0  0  0  0  0
   -7.8372   -8.7806   10.7445 C   0  0  1  0  0  0  0  0  0  0  0  0
   -9.0223   -8.4185   10.0245 O   0  0  0  0  0  0  0  0  0  0  0  0
   -8.2724   -8.9559   12.1893 C   0  0  1  0  0  0  0  0  0  0  0  0
   -7.2127   -8.5238   13.0479 O   0  0  0  0  0  0  0  0  0  0  0  0
   -9.4862   -8.0480   12.3021 C   0  0  1  0  0  0  0  0  0  0  0  0
   -9.0795   -6.6908   12.5273 O   0  0  0  0  0  0  0  0  0  0  0  0
  -10.0929   -8.0756   10.9132 C   0  0  2  0  0  0  0  0  0  0  0  0
  -14.0764   -9.5069    8.0603 N   0  0  0  0  0  0  0  0  0  0  0  0
  -13.3193   -8.3890    7.9796 C   0  0  1  0  0  0  0  0  0  0  0  0
  -13.5947   -7.4732    7.0236 N   0  0  0  0  0  0  0  0  0  0  0  0
  -12.2958   -8.1777    8.8398 N   0  0  0  0  0  0  0  0  0  0  0  0
  -12.0253   -9.0985    9.7957 C   0  0  1  0  0  0  0  0  0  0  0  0
  -12.7830  -10.2482    9.9021 C   0  0  2  0  0  0  0  0  0  0  0  0
  -13.8278  -10.4418    9.0061 C   0  0  0  0  0  0  0  0  0  0  0  0
  -14.5368  -11.4657    9.0671 O   0  0  0  0  0  0  0  0  0  0  0  0
  -12.2869  -10.9594   10.9351 N   0  0  0  0  0  0  0  0  0  0  0  0
  -11.2429  -10.2678   11.4485 C   0  0  0  0  0  0  0  0  0  0  0  0
  -11.0979   -9.1415   10.7433 N   0  0  1  0  0  0  0  0  0  0  0  0
  1  2  1  6  0  0  0
  1  3  1  0  0  0  0
  1  4  2  0  0  0  0
  1  6  1  0  0  0  0
  5  6  1  0  0  0  0
  7  5  1  6  0  0  0
  7  8  1  0  0  0  0
  7  9  1  0  0  0  0
  9 10  1  1  0  0  0
  9 11  1  0  0  0  0
 11 12  1  6  0  0  0
 11 13  1  0  0  0  0
 13  8  1  6  0  0  0
 13 24  1  0  0  0  0
 14 15  1  0  0  0  0
 14 20  1  0  0  0  0
 15 16  1  1  0  0  0
 15 17  1  0  0  0  0
 18 17  1  6  0  0  0
 18 19  1  0  0  0  0
 18 24  1  0  0  0  0
 19 20  1  1  0  0  0
 19 22  1  0  0  0  0
 20 21  2  0  0  0  0
 22 23  1  0  0  0  0
 24 23  1  6  0  0  0
M  CHG  1   3  -1
M  END
>  <CHROM.1>
-43.41262012,178.19908247,-174.77479780,-86.15434203,-9.34072456,-9.68485321
10.32516432,0.01284199,0.28435030,-2.50729900

>  <Name>
ligand

>  <RI>
0

>  <Rbt.Current_Directory>
/home/itssahil/PROJECTS/Mol_Feturizer/New_Systems/rnas/3SLQ

>  <Rbt.Executable>
rbdock ($Id: //depot/dev/client3/rdock/2013.1/src/exe/rbdock.cxx#4 $)

>  <Rbt.Library>
libRbt.so (2013.1, Build901 2013/11/27)

>  <Rbt.Parameter_File>
/export/apps/rDock/src/rDock_2013.1_src/data/scripts/dock_solv.prm

>  <Rbt.Receptor>
prm/pocket_docking_8.prm

>  <SCORE>
-17.8026

>  <SCORE.INTER>
-11.7777

>  <SCORE.INTER.CONST>
1

>  <SCORE.INTER.POLAR>
0

>  <SCORE.INTER.ROT>
4

>  <SCORE.INTER.SOLV>
13.4467

>  <SCORE.INTER.VDW>
-18.6007

>  <SCORE.INTER.norm>
-0.490739

>  <SCORE.INTRA>
-6.02483

>  <SCORE.INTRA.DIHEDRAL>
-11.4975

>  <SCORE.INTRA.DIHEDRAL.0>
13.2525

>  <SCORE.INTRA.POLAR>
0

>  <SCORE.INTRA.POLAR.0>
0

>  <SCORE.INTRA.REPUL>
0

>  <SCORE.INTRA.REPUL.0>
0

>  <SCORE.INTRA.SOLV>
-0.0851011

>  <SCORE.INTRA.SOLV.lig_0>
-70.7221

>  <SCORE.INTRA.VDW>
-0.233533

>  <SCORE.INTRA.VDW.0>
-1.46337

>  <SCORE.INTRA.norm>
-0.251035

>  <SCORE.RESTR>
0

>  <SCORE.RESTR.CAVITY>
0

>  <SCORE.RESTR.norm>
0

>  <SCORE.SYSTEM>
0

>  <SCORE.SYSTEM.CONST>
0

>  <SCORE.SYSTEM.DIHEDRAL>
0

>  <SCORE.SYSTEM.SOLV>
0

>  <SCORE.SYSTEM.norm>
0

>  <SCORE.heavy>
24

>  <SCORE.norm>
-0.741774

>  <RMSD>
8.370

$$$$
ligand
 OpenBabel11021811483D
libRbt.so/2013.1/901 2013/11/27
 24 26  0  0  0  0  0  0  0  0999 V2000
   -6.7216   -3.3704   10.2298 P   0  0  1  0  0  0  0  0  0  0  0  0
   -8.0458   -3.8707    9.6933 O   0  0  0  0  0  0  0  0  0  0  0  0
   -5.4884   -3.7803    9.4597 O   0  5  0  0  0  0  0  0  0  0  0  0
   -6.7210   -1.8943   10.5982 O   0  0  0  0  0  0  0  0  0  0  0  0
   -6.6913   -5.6358   11.7065 C   0  0  0  0  0  0  0  0  0  0  0  0
   -6.5177   -4.2119   11.6036 O   0  0  0  0  0  0  0  0  0  0  0  0
   -6.1886   -6.1247   13.0681 C   0  0  1  0  0  0  0  0  0  0  0  0
   -6.9509   -5.5726   14.1489 O   0  0  0  0  0  0  0  0  0  0  0  0
   -6.2338   -7.6308   13.2615 C   0  0  1  0  0  0  0  0  0  0  0  0
   -4.9871   -8.1898   12.8372 O   0  0  0  0  0  0  0  0  0  0  0  0
   -6.4325   -7.7856   14.7604 C   0  0  1  0  0  0  0  0  0  0  0  0
   -5.1780   -7.6757   15.4477 O   0  0  0  0  0  0  0  0  0  0  0  0
   -7.2304   -6.5575   15.1516 C   0  0  2  0  0  0  0  0  0  0  0  0
  -11.0229   -9.3565   17.1109 N   0  0  0  0  0  0  0  0  0  0  0  0
   -9.6959   -9.4079   17.3675 C   0  0  1  0  0  0  0  0  0  0  0  0
   -9.2325  -10.3030   18.2688 N   0  0  0  0  0  0  0  0  0  0  0  0
   -8.8320   -8.5790   16.7360 N   0  0  0  0  0  0  0  0  0  0  0  0
   -9.3023   -7.6849   15.8337 C   0  0  1  0  0  0  0  0  0  0  0  0
  -10.6521   -7.6117   15.5510 C   0  0  2  0  0  0  0  0  0  0  0  0
  -11.5184   -8.4733   16.2137 C   0  0  0  0  0  0  0  0  0  0  0  0
  -12.7443   -8.4406   15.9881 O   0  0  0  0  0  0  0  0  0  0  0  0
  -10.8142   -6.6462   14.6234 N   0  0  0  0  0  0  0  0  0  0  0  0
   -9.5936   -6.1311   14.3465 C   0  0  0  0  0  0  0  0  0  0  0  0
   -8.6881   -6.7729   15.0916 N   0  0  1  0  0  0  0  0  0  0  0  0
  1  2  1  6  0  0  0
  1  3  1  0  0  0  0
  1  4  2  0  0  0  0
  1  6  1  0  0  0  0
  5  6  1  0  0  0  0
  7  5  1  6  0  0  0
  7  8  1  0  0  0  0
  7  9  1  0  0  0  0
  9 10  1  1  0  0  0
  9 11  1  0  0  0  0
 11 12  1  1  0  0  0
 11 13  1  0  0  0  0
 13  8  1  6  0  0  0
 13 24  1  0  0  0  0
 14 15  1  0  0  0  0
 14 20  1  0  0  0  0
 15 16  1  6  0  0  0
 15 17  1  0  0  0  0
 18 17  1  1  0  0  0
 18 19  1  0  0  0  0
 18 24  1  0  0  0  0
 19 20  1  6  0  0  0
 19 22  1  0  0  0  0
 20 21  2  0  0  0  0
 22 23  1  0  0  0  0
 24 23  1  1  0  0  0
M  CHG  1   3  -1
M  END
>  <CHROM.1>
47.85575970,63.45023158,170.24772207,176.01405219,-7.99086662,-6.48448959
13.82033461,1.12028680,0.15610392,-0.81352068

>  <Name>
ligand

>  <RI>
0

>  <Rbt.Current_Directory>
/home/itssahil/PROJECTS/Mol_Feturizer/New_Systems/rnas/3SLQ

>  <Rbt.Executable>
rbdock ($Id: //depot/dev/client3/rdock/2013.1/src/exe/rbdock.cxx#4 $)

>  <Rbt.Library>
libRbt.so (2013.1, Build901 2013/11/27)

>  <Rbt.Parameter_File>
/export/apps/rDock/src/rDock_2013.1_src/data/scripts/dock_solv.prm

>  <Rbt.Receptor>
prm/pocket_docking_7.prm

>  <SCORE>
-15.4683

>  <SCORE.INTER>
-9.65833

>  <SCORE.INTER.CONST>
1

>  <SCORE.INTER.POLAR>
0

>  <SCORE.INTER.ROT>
4

>  <SCORE.INTER.SOLV>
16.8307

>  <SCORE.INTER.VDW>
-18.3158

>  <SCORE.INTER.norm>
-0.40243

>  <SCORE.INTRA>
-5.80999

>  <SCORE.INTRA.DIHEDRAL>
-11.3222

>  <SCORE.INTRA.DIHEDRAL.0>
13.2525

>  <SCORE.INTRA.POLAR>
0

>  <SCORE.INTRA.POLAR.0>
0

>  <SCORE.INTRA.REPUL>
0

>  <SCORE.INTRA.REPUL.0>
0

>  <SCORE.INTRA.SOLV>
-0.125504

>  <SCORE.INTRA.SOLV.lig_0>
-70.7221

>  <SCORE.INTRA.VDW>
-0.0861415

>  <SCORE.INTRA.VDW.0>
-1.46337

>  <SCORE.INTRA.norm>
-0.242083

>  <SCORE.RESTR>
0

>  <SCORE.RESTR.CAVITY>
0

>  <SCORE.RESTR.norm>
0

>  <SCORE.SYSTEM>
0

>  <SCORE.SYSTEM.CONST>
0

>  <SCORE.SYSTEM.DIHEDRAL>
0

>  <SCORE.SYSTEM.SOLV>
0

>  <SCORE.SYSTEM.norm>
0

>  <SCORE.heavy>
24

>  <SCORE.norm>
-0.644513

>  <RMSD>
8.410

$$$$
ligand
 OpenBabel11021811483D
libRbt.so/2013.1/901 2013/11/27
 24 26  0  0  0  0  0  0  0  0999 V2000
   -6.4133  -13.5124   12.6498 P   0  0  1  0  0  0  0  0  0  0  0  0
   -7.4422  -14.4482   12.0523 O   0  0  0  0  0  0  0  0  0  0  0  0
   -6.1337  -13.6775   14.1251 O   0  5  0  0  0  0  0  0  0  0  0  0
   -5.1437  -13.3787   11.8222 O   0  0  0  0  0  0  0  0  0  0  0  0
   -7.8623  -11.5361   11.5061 C   0  0  0  0  0  0  0  0  0  0  0  0
   -7.1523  -12.0664   12.6387 O   0  0  0  0  0  0  0  0  0  0  0  0
   -8.2961  -10.0952   11.7914 C   0  0  1  0  0  0  0  0  0  0  0  0
   -9.0020   -9.5205   10.6844 O   0  0  0  0  0  0  0  0  0  0  0  0
   -9.2122   -9.9307   12.9920 C   0  0  1  0  0  0  0  0  0  0  0  0
   -8.4132   -9.6969   14.1555 O   0  0  0  0  0  0  0  0  0  0  0  0
  -10.0444   -8.7106   12.6330 C   0  0  1  0  0  0  0  0  0  0  0  0
   -9.3283   -7.5059   12.9399 O   0  0  0  0  0  0  0  0  0  0  0  0
  -10.1386   -8.7650   11.1211 C   0  0  2  0  0  0  0  0  0  0  0  0
  -13.9399   -8.6544    7.7160 N   0  0  0  0  0  0  0  0  0  0  0  0
  -12.9624   -7.7473    7.9424 C   0  0  1  0  0  0  0  0  0  0  0  0
  -12.9178   -6.6241    7.1909 N   0  0  0  0  0  0  0  0  0  0  0  0
  -12.0344   -7.9498    8.9067 N   0  0  0  0  0  0  0  0  0  0  0  0
  -12.0848   -9.0767    9.6566 C   0  0  1  0  0  0  0  0  0  0  0  0
  -13.0727  -10.0189    9.4484 C   0  0  2  0  0  0  0  0  0  0  0  0
  -14.0132   -9.7877    8.4513 C   0  0  0  0  0  0  0  0  0  0  0  0
  -14.9219  -10.6124    8.2302 O   0  0  0  0  0  0  0  0  0  0  0  0
  -12.8704  -11.0131   10.3370 N   0  0  0  0  0  0  0  0  0  0  0  0
  -11.7786  -10.6946   11.0707 C   0  0  0  0  0  0  0  0  0  0  0  0
  -11.3141   -9.5164   10.6427 N   0  0  1  0  0  0  0  0  0  0  0  0
  1  2  1  6  0  0  0
  1  3  1  0  0  0  0
  1  4  2  0  0  0  0
  1  6  1  0  0  0  0
  5  6  1  0  0  0  0
  7  5  1  6  0  0  0
  7  8  1  0  0  0  0
  7  9  1  0  0  0  0
  9 10  1  1  0  0  0
  9 11  1  0  0  0  0
 11 12  1  6  0  0  0
 11 13  1  0  0  0  0
 13  8  1  6  0  0  0
 13 24  1  0  0  0  0
 14 15  1  0  0  0  0
 14 20  1  0  0  0  0
 15 16  1  1  0  0  0
 15 17  1  0  0  0  0
 18 17  1  6  0  0  0
 18 19  1  0  0  0  0
 18 24  1  0  0  0  0
 19 20  1  1  0  0  0
 19 22  1  0  0  0  0
 20 21  2  0  0  0  0
 22 23  1  0  0  0  0
 24 23  1  6  0  0  0
M  CHG  1   3  -1
M  END
>  <CHROM.1>
-46.78889543,179.63043915,-173.70875140,-109.16366980,-9.94289375,-10.43009079
11.03216877,0.31810043,0.66339824,-2.86691761

>  <Name>
ligand

>  <RI>
0

>  <Rbt.Current_Directory>
/home/itssahil/PROJECTS/Mol_Feturizer/New_Systems/rnas/3SLQ

>  <Rbt.Executable>
rbdock ($Id: //depot/dev/client3/rdock/2013.1/src/exe/rbdock.cxx#4 $)

>  <Rbt.Library>
libRbt.so (2013.1, Build901 2013/11/27)

>  <Rbt.Parameter_File>
/export/apps/rDock/src/rDock_2013.1_src/data/scripts/dock_solv.prm

>  <Rbt.Receptor>
prm/pocket_docking_8.prm

>  <SCORE>
-17.4316

>  <SCORE.INTER>
-11.2396

>  <SCORE.INTER.CONST>
1

>  <SCORE.INTER.POLAR>
0

>  <SCORE.INTER.ROT>
4

>  <SCORE.INTER.SOLV>
5.85913

>  <SCORE.INTER.VDW>
-15.7128

>  <SCORE.INTER.norm>
-0.468316

>  <SCORE.INTRA>
-6.19202

>  <SCORE.INTRA.DIHEDRAL>
-11.5893

>  <SCORE.INTRA.DIHEDRAL.0>
13.2525

>  <SCORE.INTRA.POLAR>
0

>  <SCORE.INTRA.POLAR.0>
0

>  <SCORE.INTRA.REPUL>
0

>  <SCORE.INTRA.REPUL.0>
0

>  <SCORE.INTRA.SOLV>
-0.0712417

>  <SCORE.INTRA.SOLV.lig_0>
-70.7221

>  <SCORE.INTRA.VDW>
-0.361746

>  <SCORE.INTRA.VDW.0>
-1.46337

>  <SCORE.INTRA.norm>
-0.258001

>  <SCORE.RESTR>
0

>  <SCORE.RESTR.CAVITY>
0

>  <SCORE.RESTR.norm>
0

>  <SCORE.SYSTEM>
0

>  <SCORE.SYSTEM.CONST>
0

>  <SCORE.SYSTEM.DIHEDRAL>
0

>  <SCORE.SYSTEM.SOLV>
0

>  <SCORE.SYSTEM.norm>
0

>  <SCORE.heavy>
24

>  <SCORE.norm>
-0.726316

>  <RMSD>
8.417

$$$$
ligand
 OpenBabel11021811483D
libRbt.so/2013.1/901 2013/11/27
 24 26  0  0  0  0  0  0  0  0999 V2000
   -7.1378   -3.9929    9.9218 P   0  0  1  0  0  0  0  0  0  0  0  0
   -7.9632   -3.6997    8.6872 O   0  0  0  0  0  0  0  0  0  0  0  0
   -6.0056   -4.9785    9.7527 O   0  5  0  0  0  0  0  0  0  0  0  0
   -6.7260   -2.7522   10.7000 O   0  0  0  0  0  0  0  0  0  0  0  0
   -8.7970   -6.0599   10.4585 C   0  0  0  0  0  0  0  0  0  0  0  0
   -8.1458   -4.8448   10.8680 O   0  0  0  0  0  0  0  0  0  0  0  0
   -9.6871   -6.5809   11.5908 C   0  0  1  0  0  0  0  0  0  0  0  0
  -10.4230   -7.7466   11.1988 O   0  0  0  0  0  0  0  0  0  0  0  0
   -8.9450   -6.9709   12.8576 C   0  0  1  0  0  0  0  0  0  0  0  0
   -8.8739   -5.8329   13.7217 O   0  0  0  0  0  0  0  0  0  0  0  0
   -9.8155   -8.0670   13.4501 C   0  0  1  0  0  0  0  0  0  0  0  0
  -10.9038   -7.4984   14.1922 O   0  0  0  0  0  0  0  0  0  0  0  0
  -10.4398   -8.7318   12.2393 C   0  0  2  0  0  0  0  0  0  0  0  0
   -7.5627  -12.6917   13.6876 N   0  0  0  0  0  0  0  0  0  0  0  0
   -8.1877  -11.7613   14.4447 C   0  0  1  0  0  0  0  0  0  0  0  0
   -8.0857  -11.8295   15.7913 N   0  0  0  0  0  0  0  0  0  0  0  0
   -8.9092  -10.7688   13.8733 N   0  0  0  0  0  0  0  0  0  0  0  0
   -9.0071  -10.7055   12.5237 C   0  0  1  0  0  0  0  0  0  0  0  0
   -8.3779  -11.6412   11.7263 C   0  0  2  0  0  0  0  0  0  0  0  0
   -7.6439  -12.6508   12.3377 C   0  0  0  0  0  0  0  0  0  0  0  0
   -7.0601  -13.5156   11.6551 O   0  0  0  0  0  0  0  0  0  0  0  0
   -8.6478  -11.3199   10.4445 N   0  0  0  0  0  0  0  0  0  0  0  0
   -9.4315  -10.2164   10.4521 C   0  0  0  0  0  0  0  0  0  0  0  0
   -9.6404   -9.8585   11.7230 N   0  0  1  0  0  0  0  0  0  0  0  0
  1  2  1  6  0  0  0
  1  3  1  0  0  0  0
  1  4  2  0  0  0  0
  1  6  1  0  0  0  0
  5  6  1  0  0  0  0
  7  5  1  6  0  0  0
  7  8  1  0  0  0  0
  7  9  1  0  0  0  0
  9 10  1  1  0  0  0
  9 11  1  0  0  0  0
 11 12  1  1  0  0  0
 11 13  1  0  0  0  0
 13  8  1  6  0  0  0
 13 24  1  0  0  0  0
 14 15  1  0  0  0  0
 14 20  1  0  0  0  0
 15 16  1  6  0  0  0
 15 17  1  0  0  0  0
 18 17  1  1  0  0  0
 18 19  1  0  0  0  0
 18 24  1  0  0  0  0
 19 20  1  6  0  0  0
 19 22  1  0  0  0  0
 20 21  2  0  0  0  0
 22 23  1  0  0  0  0
 24 23  1  1  0  0  0
M  CHG  1   3  -1
M  END
>  <CHROM.1>
56.16757833,176.33691504,-179.19279522,153.66118788,-8.50519947,-8.14544761
11.86877694,-1.40568991,-0.97995621,2.93001122

>  <Name>
ligand

>  <RI>
0

>  <Rbt.Current_Directory>
/home/itssahil/PROJECTS/Mol_Feturizer/New_Systems/rnas/3SLQ

>  <Rbt.Executable>
rbdock ($Id: //depot/dev/client3/rdock/2013.1/src/exe/rbdock.cxx#4 $)

>  <Rbt.Library>
libRbt.so (2013.1, Build901 2013/11/27)

>  <Rbt.Parameter_File>
/export/apps/rDock/src/rDock_2013.1_src/data/scripts/dock_solv.prm

>  <Rbt.Receptor>
prm/pocket_docking_7.prm

>  <SCORE>
-16.4388

>  <SCORE.INTER>
-10.5834

>  <SCORE.INTER.CONST>
1

>  <SCORE.INTER.POLAR>
0

>  <SCORE.INTER.ROT>
4

>  <SCORE.INTER.SOLV>
13.2313

>  <SCORE.INTER.VDW>
-17.7327

>  <SCORE.INTER.norm>
-0.440975

>  <SCORE.INTRA>
-5.85542

>  <SCORE.INTRA.DIHEDRAL>
-11.9959

>  <SCORE.INTRA.DIHEDRAL.0>
13.2525

>  <SCORE.INTRA.POLAR>
0

>  <SCORE.INTRA.POLAR.0>
0

>  <SCORE.INTRA.REPUL>
0

>  <SCORE.INTRA.REPUL.0>
0

>  <SCORE.INTRA.SOLV>
0.0705011

>  <SCORE.INTRA.SOLV.lig_0>
-70.7221

>  <SCORE.INTRA.VDW>
0.107271

>  <SCORE.INTRA.VDW.0>
-1.46337

>  <SCORE.INTRA.norm>
-0.243976

>  <SCORE.RESTR>
0

>  <SCORE.RESTR.CAVITY>
0

>  <SCORE.RESTR.norm>
0

>  <SCORE.SYSTEM>
0

>  <SCORE.SYSTEM.CONST>
0

>  <SCORE.SYSTEM.DIHEDRAL>
0

>  <SCORE.SYSTEM.SOLV>
0

>  <SCORE.SYSTEM.norm>
0

>  <SCORE.heavy>
24

>  <SCORE.norm>
-0.68495

>  <RMSD>
8.430

$$$$
ligand
 OpenBabel11021811483D
libRbt.so/2013.1/901 2013/11/27
 24 26  0  0  0  0  0  0  0  0999 V2000
   -4.8215  -11.1459   10.2817 P   0  0  1  0  0  0  0  0  0  0  0  0
   -3.9331  -10.6127    9.1781 O   0  0  0  0  0  0  0  0  0  0  0  0
   -6.0398  -11.9246    9.8443 O   0  5  0  0  0  0  0  0  0  0  0  0
   -4.0637  -11.8261   11.4120 O   0  0  0  0  0  0  0  0  0  0  0  0
   -6.5617   -9.8358   11.8845 C   0  0  0  0  0  0  0  0  0  0  0  0
   -5.5156   -9.8134   10.8979 O   0  0  0  0  0  0  0  0  0  0  0  0
   -6.8955   -8.4066   12.3222 C   0  0  1  0  0  0  0  0  0  0  0  0
   -7.9315   -8.3791   13.3122 O   0  0  0  0  0  0  0  0  0  0  0  0
   -5.7329   -7.6356   12.9235 C   0  0  1  0  0  0  0  0  0  0  0  0
   -5.0544   -6.9317   11.8790 O   0  0  0  0  0  0  0  0  0  0  0  0
   -6.4101   -6.6792   13.8914 C   0  0  1  0  0  0  0  0  0  0  0  0
   -6.8955   -5.5215   13.1970 O   0  0  0  0  0  0  0  0  0  0  0  0
   -7.6409   -7.4354   14.3508 C   0  0  2  0  0  0  0  0  0  0  0  0
   -9.9035   -9.2668   18.5440 N   0  0  0  0  0  0  0  0  0  0  0  0
  -10.4119   -8.4827   17.5661 C   0  0  1  0  0  0  0  0  0  0  0  0
  -11.7043   -8.0917   17.6390 N   0  0  0  0  0  0  0  0  0  0  0  0
   -9.6464   -8.0872   16.5222 N   0  0  0  0  0  0  0  0  0  0  0  0
   -8.3523   -8.4817   16.4552 C   0  0  1  0  0  0  0  0  0  0  0  0
   -7.8066   -9.2809   17.4404 C   0  0  2  0  0  0  0  0  0  0  0  0
   -8.6141   -9.6741   18.5013 C   0  0  0  0  0  0  0  0  0  0  0  0
   -8.1613  -10.3953   19.4121 O   0  0  0  0  0  0  0  0  0  0  0  0
   -6.5181   -9.5007   17.1085 N   0  0  0  0  0  0  0  0  0  0  0  0
   -6.2772   -8.8582   15.9418 C   0  0  0  0  0  0  0  0  0  0  0  0
   -7.4026   -8.2462   15.5594 N   0  0  1  0  0  0  0  0  0  0  0  0
  1  2  1  6  0  0  0
  1  3  1  0  0  0  0
  1  4  2  0  0  0  0
  1  6  1  0  0  0  0
  5  6  1  0  0  0  0
  7  5  1  1  0  0  0
  7  8  1  0  0  0  0
  7  9  1  0  0  0  0
  9 10  1  6  0  0  0
  9 11  1  0  0  0  0
 11 12  1  6  0  0  0
 11 13  1  0  0  0  0
 13  8  1  6  0  0  0
 13 24  1  0  0  0  0
 14 15  1  0  0  0  0
 14 20  1  0  0  0  0
 15 16  1  1  0  0  0
 15 17  1  0  0  0  0
 18 17  1  6  0  0  0
 18 19  1  0  0  0  0
 18 24  1  0  0  0  0
 19 20  1  1  0  0  0
 19 22  1  0  0  0  0
 20 21  2  0  0  0  0
 22 23  1  0  0  0  0
 24 23  1  6  0  0  0
M  CHG  1   3  -1
M  END
>  <CHROM.1>
172.85866020,-179.72413878,175.25481654,-96.03401569,-6.98545412,-9.08053565
14.06458045,-0.16090402,-1.04949391,2.74493994

>  <Name>
ligand

>  <RI>
0

>  <Rbt.Current_Directory>
/home/itssahil/PROJECTS/Mol_Feturizer/New_Systems/rnas/3SLQ

>  <Rbt.Executable>
rbdock ($Id: //depot/dev/client3/rdock/2013.1/src/exe/rbdock.cxx#4 $)

>  <Rbt.Library>
libRbt.so (2013.1, Build901 2013/11/27)

>  <Rbt.Parameter_File>
/export/apps/rDock/src/rDock_2013.1_src/data/scripts/dock_solv.prm

>  <Rbt.Receptor>
prm/pocket_docking_6.prm

>  <SCORE>
-12.8469

>  <SCORE.INTER>
-7.02645

>  <SCORE.INTER.CONST>
1

>  <SCORE.INTER.POLAR>
0

>  <SCORE.INTER.ROT>
4

>  <SCORE.INTER.SOLV>
12.6346

>  <SCORE.INTER.VDW>
-15.1625

>  <SCORE.INTER.norm>
-0.292769

>  <SCORE.INTRA>
-5.82045

>  <SCORE.INTRA.DIHEDRAL>
-11.8783

>  <SCORE.INTRA.DIHEDRAL.0>
13.2525

>  <SCORE.INTRA.POLAR>
0

>  <SCORE.INTRA.POLAR.0>
0

>  <SCORE.INTRA.REPUL>
0

>  <SCORE.INTRA.REPUL.0>
0

>  <SCORE.INTRA.SOLV>
0.648132

>  <SCORE.INTRA.SOLV.lig_0>
-70.7221

>  <SCORE.INTRA.VDW>
-0.205339

>  <SCORE.INTRA.VDW.0>
-1.46337

>  <SCORE.INTRA.norm>
-0.242519

>  <SCORE.RESTR>
0

>  <SCORE.RESTR.CAVITY>
0

>  <SCORE.RESTR.norm>
0

>  <SCORE.SYSTEM>
0

>  <SCORE.SYSTEM.CONST>
0

>  <SCORE.SYSTEM.DIHEDRAL>
0

>  <SCORE.SYSTEM.SOLV>
0

>  <SCORE.SYSTEM.norm>
0

>  <SCORE.heavy>
24

>  <SCORE.norm>
-0.535287

>  <RMSD>
8.467

$$$$
ligand
 OpenBabel11021811483D
libRbt.so/2013.1/901 2013/11/27
 24 26  0  0  0  0  0  0  0  0999 V2000
   -7.2662   -3.9611    9.8300 P   0  0  1  0  0  0  0  0  0  0  0  0
   -7.0934   -2.6459   10.5594 O   0  0  0  0  0  0  0  0  0  0  0  0
   -8.0863   -3.9216    8.5621 O   0  5  0  0  0  0  0  0  0  0  0  0
   -5.9783   -4.7555    9.6727 O   0  0  0  0  0  0  0  0  0  0  0  0
   -8.8355   -6.0776   10.4391 C   0  0  0  0  0  0  0  0  0  0  0  0
   -8.2466   -4.8167   10.8016 O   0  0  0  0  0  0  0  0  0  0  0  0
   -9.7127   -6.5912   11.5848 C   0  0  1  0  0  0  0  0  0  0  0  0
  -10.4491   -7.7623   11.2103 O   0  0  0  0  0  0  0  0  0  0  0  0
   -8.9568   -6.9683   12.8474 C   0  0  1  0  0  0  0  0  0  0  0  0
   -8.8803   -5.8226   13.7009 O   0  0  0  0  0  0  0  0  0  0  0  0
   -9.8182   -8.0615   13.4580 C   0  0  1  0  0  0  0  0  0  0  0  0
  -10.9006   -7.4896   14.2060 O   0  0  0  0  0  0  0  0  0  0  0  0
  -10.4527   -8.7385   12.2593 C   0  0  2  0  0  0  0  0  0  0  0  0
   -7.5747  -12.6957   13.7134 N   0  0  0  0  0  0  0  0  0  0  0  0
   -8.1973  -11.7625   14.4690 C   0  0  1  0  0  0  0  0  0  0  0  0
   -8.0921  -11.8264   15.8156 N   0  0  0  0  0  0  0  0  0  0  0  0
   -8.9195  -10.7713   13.8961 N   0  0  0  0  0  0  0  0  0  0  0  0
   -9.0206  -10.7123   12.5467 C   0  0  1  0  0  0  0  0  0  0  0  0
   -8.3940  -11.6510   11.7507 C   0  0  2  0  0  0  0  0  0  0  0  0
   -7.6592  -12.6591   12.3636 C   0  0  0  0  0  0  0  0  0  0  0  0
   -7.0776  -13.5265   11.6824 O   0  0  0  0  0  0  0  0  0  0  0  0
   -8.6668  -11.3337   10.4686 N   0  0  0  0  0  0  0  0  0  0  0  0
   -9.4497  -10.2296   10.4745 C   0  0  0  0  0  0  0  0  0  0  0  0
   -9.6553   -9.8674   11.7447 N   0  0  1  0  0  0  0  0  0  0  0  0
  1  2  1  1  0  0  0
  1  3  1  0  0  0  0
  1  4  2  0  0  0  0
  1  6  1  0  0  0  0
  5  6  1  0  0  0  0
  7  5  1  6  0  0  0
  7  8  1  0  0  0  0
  7  9  1  0  0  0  0
  9 10  1  1  0  0  0
  9 11  1  0  0  0  0
 11 12  1  1  0  0  0
 11 13  1  0  0  0  0
 13  8  1  6  0  0  0
 13 24  1  0  0  0  0
 14 15  1  0  0  0  0
 14 20  1  0  0  0  0
 15 16  1  6  0  0  0
 15 17  1  0  0  0  0
 18 17  1  1  0  0  0
 18 19  1  0  0  0  0
 18 24  1  0  0  0  0
 19 20  1  6  0  0  0
 19 22  1  0  0  0  0
 20 21  2  0  0  0  0
 22 23  1  0  0  0  0
 24 23  1  1  0  0  0
M  CHG  1   3  -1
M  END
>  <CHROM.1>
171.51630359,172.92043830,-179.35471105,154.23209263,-8.55231308,-8.14029057
11.85204056,-1.42344873,-1.00976406,2.90522490

>  <Name>
ligand

>  <RI>
0

>  <Rbt.Current_Directory>
/home/itssahil/PROJECTS/Mol_Feturizer/New_Systems/rnas/3SLQ

>  <Rbt.Executable>
rbdock ($Id: //depot/dev/client3/rdock/2013.1/src/exe/rbdock.cxx#4 $)

>  <Rbt.Library>
libRbt.so (2013.1, Build901 2013/11/27)

>  <Rbt.Parameter_File>
/export/apps/rDock/src/rDock_2013.1_src/data/scripts/dock_solv.prm

>  <Rbt.Receptor>
prm/pocket_docking_6.prm

>  <SCORE>
-15.5334

>  <SCORE.INTER>
-10.0809

>  <SCORE.INTER.CONST>
1

>  <SCORE.INTER.POLAR>
0

>  <SCORE.INTER.ROT>
4

>  <SCORE.INTER.SOLV>
14.9972

>  <SCORE.INTER.VDW>
-17.9863

>  <SCORE.INTER.norm>
-0.420036

>  <SCORE.INTRA>
-5.45257

>  <SCORE.INTRA.DIHEDRAL>
-11.7743

>  <SCORE.INTRA.DIHEDRAL.0>
13.2525

>  <SCORE.INTRA.POLAR>
0

>  <SCORE.INTRA.POLAR.0>
0

>  <SCORE.INTRA.REPUL>
0

>  <SCORE.INTRA.REPUL.0>
0

>  <SCORE.INTRA.SOLV>
0.599266

>  <SCORE.INTRA.SOLV.lig_0>
-70.7221

>  <SCORE.INTRA.VDW>
0.134926

>  <SCORE.INTRA.VDW.0>
-1.46337

>  <SCORE.INTRA.norm>
-0.227191

>  <SCORE.RESTR>
0

>  <SCORE.RESTR.CAVITY>
0

>  <SCORE.RESTR.norm>
0

>  <SCORE.SYSTEM>
0

>  <SCORE.SYSTEM.CONST>
0

>  <SCORE.SYSTEM.DIHEDRAL>
0

>  <SCORE.SYSTEM.SOLV>
0

>  <SCORE.SYSTEM.norm>
0

>  <SCORE.heavy>
24

>  <SCORE.norm>
-0.647226

>  <RMSD>
8.467

$$$$
ligand
 OpenBabel11021811483D
libRbt.so/2013.1/901 2013/11/27
 24 26  0  0  0  0  0  0  0  0999 V2000
   -6.9005   -3.7310   10.3093 P   0  0  1  0  0  0  0  0  0  0  0  0
   -6.7653   -2.2748   10.7001 O   0  0  0  0  0  0  0  0  0  0  0  0
   -8.3026   -4.2262   10.0434 O   0  5  0  0  0  0  0  0  0  0  0  0
   -5.9067   -4.1823    9.2495 O   0  0  0  0  0  0  0  0  0  0  0  0
   -6.6015   -5.9646   11.8044 C   0  0  0  0  0  0  0  0  0  0  0  0
   -6.5473   -4.5332   11.6764 O   0  0  0  0  0  0  0  0  0  0  0  0
   -6.0973   -6.3831   13.1887 C   0  0  1  0  0  0  0  0  0  0  0  0
   -6.8585   -5.7764   14.2407 O   0  0  0  0  0  0  0  0  0  0  0  0
   -6.1422   -7.8773   13.4591 C   0  0  1  0  0  0  0  0  0  0  0  0
   -4.8959   -8.4573   13.0626 O   0  0  0  0  0  0  0  0  0  0  0  0
   -6.3393   -7.9551   14.9642 C   0  0  1  0  0  0  0  0  0  0  0  0
   -5.0840   -7.8101   15.6436 O   0  0  0  0  0  0  0  0  0  0  0  0
   -7.1368   -6.7086   15.2928 C   0  0  2  0  0  0  0  0  0  0  0  0
  -10.9123   -9.4848   17.3165 N   0  0  0  0  0  0  0  0  0  0  0  0
   -9.5835   -9.5307   17.5650 C   0  0  1  0  0  0  0  0  0  0  0  0
   -9.1128  -10.4124   18.4759 N   0  0  0  0  0  0  0  0  0  0  0  0
   -8.7250   -8.7097   16.9162 N   0  0  0  0  0  0  0  0  0  0  0  0
   -9.2025   -7.8291   16.0044 C   0  0  1  0  0  0  0  0  0  0  0  0
  -10.5543   -7.7618   15.7297 C   0  0  2  0  0  0  0  0  0  0  0  0
  -11.4149   -8.6151   16.4102 C   0  0  0  0  0  0  0  0  0  0  0  0
  -12.6423   -8.5873   16.1922 O   0  0  0  0  0  0  0  0  0  0  0  0
  -10.7239   -6.8097   14.7896 N   0  0  0  0  0  0  0  0  0  0  0  0
   -9.5059   -6.2969   14.4973 C   0  0  0  0  0  0  0  0  0  0  0  0
   -8.5946   -6.9268   15.2455 N   0  0  1  0  0  0  0  0  0  0  0  0
  1  2  1  1  0  0  0
  1  3  1  0  0  0  0
  1  4  2  0  0  0  0
  1  6  1  0  0  0  0
  5  6  1  0  0  0  0
  7  5  1  6  0  0  0
  7  8  1  0  0  0  0
  7  9  1  0  0  0  0
  9 10  1  1  0  0  0
  9 11  1  0  0  0  0
 11 12  1  1  0  0  0
 11 13  1  0  0  0  0
 13  8  1  6  0  0  0
 13 24  1  0  0  0  0
 14 15  1  0  0  0  0
 14 20  1  0  0  0  0
 15 16  1  6  0  0  0
 15 17  1  0  0  0  0
 18 17  1  1  0  0  0
 18 19  1  0  0  0  0
 18 24  1  0  0  0  0
 19 20  1  6  0  0  0
 19 22  1  0  0  0  0
 20 21  2  0  0  0  0
 22 23  1  0  0  0  0
 24 23  1  1  0  0  0
M  CHG  1   3  -1
M  END
>  <CHROM.1>
177.22926228,57.97479554,175.38350628,173.86411689,-7.96851516,-6.71036510
13.96816773,1.14788260,0.15546093,-0.85000705

>  <Name>
ligand

>  <RI>
0

>  <Rbt.Current_Directory>
/home/itssahil/PROJECTS/Mol_Feturizer/New_Systems/rnas/3SLQ

>  <Rbt.Executable>
rbdock ($Id: //depot/dev/client3/rdock/2013.1/src/exe/rbdock.cxx#4 $)

>  <Rbt.Library>
libRbt.so (2013.1, Build901 2013/11/27)

>  <Rbt.Parameter_File>
/export/apps/rDock/src/rDock_2013.1_src/data/scripts/dock_solv.prm

>  <Rbt.Receptor>
prm/pocket_docking_5.prm

>  <SCORE>
-15.2236

>  <SCORE.INTER>
-9.41097

>  <SCORE.INTER.CONST>
1

>  <SCORE.INTER.POLAR>
0

>  <SCORE.INTER.ROT>
4

>  <SCORE.INTER.SOLV>
15.3293

>  <SCORE.INTER.VDW>
-17.6504

>  <SCORE.INTER.norm>
-0.392124

>  <SCORE.INTRA>
-5.81268

>  <SCORE.INTRA.DIHEDRAL>
-11.9261

>  <SCORE.INTRA.DIHEDRAL.0>
13.2525

>  <SCORE.INTRA.POLAR>
0

>  <SCORE.INTRA.POLAR.0>
0

>  <SCORE.INTRA.REPUL>
0

>  <SCORE.INTRA.REPUL.0>
0

>  <SCORE.INTRA.SOLV>
0.471522

>  <SCORE.INTRA.SOLV.lig_0>
-70.7221

>  <SCORE.INTRA.VDW>
-0.0853777

>  <SCORE.INTRA.VDW.0>
-1.46337

>  <SCORE.INTRA.norm>
-0.242195

>  <SCORE.RESTR>
0

>  <SCORE.RESTR.CAVITY>
0

>  <SCORE.RESTR.norm>
0

>  <SCORE.SYSTEM>
0

>  <SCORE.SYSTEM.CONST>
0

>  <SCORE.SYSTEM.DIHEDRAL>
0

>  <SCORE.SYSTEM.SOLV>
0

>  <SCORE.SYSTEM.norm>
0

>  <SCORE.heavy>
24

>  <SCORE.norm>
-0.634319

>  <RMSD>
8.474

$$$$
ligand
 OpenBabel11021811483D
libRbt.so/2013.1/901 2013/11/27
 24 26  0  0  0  0  0  0  0  0999 V2000
   -9.1364   -9.1242    6.9354 P   0  0  1  0  0  0  0  0  0  0  0  0
   -7.9381   -8.3502    6.4287 O   0  0  0  0  0  0  0  0  0  0  0  0
  -10.3820   -8.3192    7.2222 O   0  5  0  0  0  0  0  0  0  0  0  0
   -9.4260  -10.3974    6.1547 O   0  0  0  0  0  0  0  0  0  0  0  0
   -8.5033   -8.6399    9.5197 C   0  0  0  0  0  0  0  0  0  0  0  0
   -8.7052   -9.5654    8.4376 O   0  0  0  0  0  0  0  0  0  0  0  0
   -8.0435   -9.3940   10.7710 C   0  0  1  0  0  0  0  0  0  0  0  0
   -7.8101   -8.5081   11.8732 O   0  0  0  0  0  0  0  0  0  0  0  0
   -9.0223  -10.4368   11.2830 C   0  0  1  0  0  0  0  0  0  0  0  0
   -8.7207  -11.6946   10.6718 O   0  0  0  0  0  0  0  0  0  0  0  0
   -8.7532  -10.4652   12.7786 C   0  0  1  0  0  0  0  0  0  0  0  0
   -7.6221  -11.2982   13.0700 O   0  0  0  0  0  0  0  0  0  0  0  0
   -8.3200   -9.0483   13.0986 C   0  0  2  0  0  0  0  0  0  0  0  0
  -11.4097   -7.8082   16.9681 N   0  0  0  0  0  0  0  0  0  0  0  0
  -10.4196   -8.7284   16.9200 C   0  0  1  0  0  0  0  0  0  0  0  0
  -10.1462   -9.4615   18.0229 N   0  0  0  0  0  0  0  0  0  0  0  0
   -9.7041   -8.9229   15.7876 N   0  0  0  0  0  0  0  0  0  0  0  0
   -9.9831   -8.1858   14.6859 C   0  0  1  0  0  0  0  0  0  0  0  0
  -10.9897   -7.2405   14.7062 C   0  0  2  0  0  0  0  0  0  0  0  0
  -11.7090   -7.0595   15.8817 C   0  0  0  0  0  0  0  0  0  0  0  0
  -12.6260   -6.2168   15.9430 O   0  0  0  0  0  0  0  0  0  0  0  0
  -11.0358   -6.6798   13.4804 N   0  0  0  0  0  0  0  0  0  0  0  0
  -10.0749   -7.2606   12.7246 C   0  0  0  0  0  0  0  0  0  0  0  0
   -9.4450   -8.1714   13.4735 N   0  0  1  0  0  0  0  0  0  0  0  0
  1  2  1  6  0  0  0
  1  3  1  0  0  0  0
  1  4  2  0  0  0  0
  1  6  1  0  0  0  0
  5  6  1  0  0  0  0
  7  5  1  6  0  0  0
  7  8  1  0  0  0  0
  7  9  1  0  0  0  0
  9 10  1  6  0  0  0
  9 11  1  0  0  0  0
 11 12  1  6  0  0  0
 11 13  1  0  0  0  0
 13  8  1  6  0  0  0
 13 24  1  0  0  0  0
 14 15  1  0  0  0  0
 14 20  1  0  0  0  0
 15 16  1  6  0  0  0
 15 17  1  0  0  0  0
 18 17  1  1  0  0  0
 18 19  1  0  0  0  0
 18 24  1  0  0  0  0
 19 20  1  6  0  0  0
 19 22  1  0  0  0  0
 20 21  2  0  0  0  0
 22 23  1  0  0  0  0
 24 23  1  1  0  0  0
M  CHG  1   3  -1
M  END
>  <CHROM.1>
66.48279672,179.15392675,-177.43613282,-165.42442077,-9.52182355,-8.84836203
11.93194380,1.22577615,0.90313637,-1.45406224

>  <Name>
ligand

>  <RI>
0

>  <Rbt.Current_Directory>
/home/itssahil/PROJECTS/Mol_Feturizer/New_Systems/rnas/3SLQ

>  <Rbt.Executable>
rbdock ($Id: //depot/dev/client3/rdock/2013.1/src/exe/rbdock.cxx#4 $)

>  <Rbt.Library>
libRbt.so (2013.1, Build901 2013/11/27)

>  <Rbt.Parameter_File>
/export/apps/rDock/src/rDock_2013.1_src/data/scripts/dock_solv.prm

>  <Rbt.Receptor>
prm/pocket_docking_7.prm

>  <SCORE>
-16.0303

>  <SCORE.INTER>
-9.91021

>  <SCORE.INTER.CONST>
1

>  <SCORE.INTER.POLAR>
0

>  <SCORE.INTER.ROT>
4

>  <SCORE.INTER.SOLV>
18.3712

>  <SCORE.INTER.VDW>
-18.9972

>  <SCORE.INTER.norm>
-0.412925

>  <SCORE.INTRA>
-6.12011

>  <SCORE.INTRA.DIHEDRAL>
-11.9323

>  <SCORE.INTRA.DIHEDRAL.0>
13.2525

>  <SCORE.INTRA.POLAR>
0

>  <SCORE.INTRA.POLAR.0>
0

>  <SCORE.INTRA.REPUL>
0

>  <SCORE.INTRA.REPUL.0>
0

>  <SCORE.INTRA.SOLV>
0.131196

>  <SCORE.INTRA.SOLV.lig_0>
-70.7221

>  <SCORE.INTRA.VDW>
-0.219577

>  <SCORE.INTRA.VDW.0>
-1.46337

>  <SCORE.INTRA.norm>
-0.255005

>  <SCORE.RESTR>
0

>  <SCORE.RESTR.CAVITY>
0

>  <SCORE.RESTR.norm>
0

>  <SCORE.SYSTEM>
0

>  <SCORE.SYSTEM.CONST>
0

>  <SCORE.SYSTEM.DIHEDRAL>
0

>  <SCORE.SYSTEM.SOLV>
0

>  <SCORE.SYSTEM.norm>
0

>  <SCORE.heavy>
24

>  <SCORE.norm>
-0.66793

>  <RMSD>
8.496

$$$$
ligand
 OpenBabel11021811483D
libRbt.so/2013.1/901 2013/11/27
 24 26  0  0  0  0  0  0  0  0999 V2000
   -7.3364   -6.8340    8.7934 P   0  0  1  0  0  0  0  0  0  0  0  0
   -8.3340   -6.8577    7.6551 O   0  0  0  0  0  0  0  0  0  0  0  0
   -6.4157   -8.0266    8.9028 O   0  5  0  0  0  0  0  0  0  0  0  0
   -6.6037   -5.5096    8.9468 O   0  0  0  0  0  0  0  0  0  0  0  0
   -9.2515   -6.0940   10.5535 C   0  0  0  0  0  0  0  0  0  0  0  0
   -8.2550   -7.0347   10.1174 O   0  0  0  0  0  0  0  0  0  0  0  0
  -10.0594   -6.6899   11.7103 C   0  0  1  0  0  0  0  0  0  0  0  0
  -10.7277   -7.8988   11.3283 O   0  0  0  0  0  0  0  0  0  0  0  0
   -9.2439   -7.0436   12.9422 C   0  0  1  0  0  0  0  0  0  0  0  0
   -9.2183   -5.9146   13.8204 O   0  0  0  0  0  0  0  0  0  0  0  0
  -10.0134   -8.2050   13.5499 C   0  0  1  0  0  0  0  0  0  0  0  0
  -11.1089   -7.7229   14.3410 O   0  0  0  0  0  0  0  0  0  0  0  0
  -10.6366   -8.8960   12.3533 C   0  0  2  0  0  0  0  0  0  0  0  0
   -7.5123  -12.7244   13.6337 N   0  0  0  0  0  0  0  0  0  0  0  0
   -8.1777  -11.8557   14.4288 C   0  0  1  0  0  0  0  0  0  0  0  0
   -8.0501  -11.9594   15.7710 N   0  0  0  0  0  0  0  0  0  0  0  0
   -8.9645  -10.8898   13.8996 N   0  0  0  0  0  0  0  0  0  0  0  0
   -9.0878  -10.7908   12.5543 C   0  0  1  0  0  0  0  0  0  0  0  0
   -8.4186  -11.6631   11.7187 C   0  0  2  0  0  0  0  0  0  0  0  0
   -7.6176  -12.6467   12.2871 C   0  0  0  0  0  0  0  0  0  0  0  0
   -6.9960  -13.4545   11.5691 O   0  0  0  0  0  0  0  0  0  0  0  0
   -8.7274  -11.3188   10.4518 N   0  0  0  0  0  0  0  0  0  0  0  0
   -9.5733  -10.2636   10.5056 C   0  0  0  0  0  0  0  0  0  0  0  0
   -9.7819   -9.9578   11.7901 N   0  0  1  0  0  0  0  0  0  0  0  0
  1  2  1  6  0  0  0
  1  3  1  0  0  0  0
  1  4  2  0  0  0  0
  1  6  1  0  0  0  0
  5  6  1  0  0  0  0
  7  5  1  6  0  0  0
  7  8  1  0  0  0  0
  7  9  1  0  0  0  0
  9 10  1  1  0  0  0
  9 11  1  0  0  0  0
 11 12  1  1  0  0  0
 11 13  1  0  0  0  0
 13  8  1  6  0  0  0
 13 24  1  0  0  0  0
 14 15  1  0  0  0  0
 14 20  1  0  0  0  0
 15 16  1  6  0  0  0
 15 17  1  0  0  0  0
 18 17  1  1  0  0  0
 18 19  1  0  0  0  0
 18 24  1  0  0  0  0
 19 20  1  6  0  0  0
 19 22  1  0  0  0  0
 20 21  2  0  0  0  0
 22 23  1  0  0  0  0
 24 23  1  1  0  0  0
M  CHG  1   3  -1
M  END
>  <CHROM.1>
-64.13286576,-60.00403234,171.89257828,155.41368571,-8.66490771,-8.95598466
11.60636053,-1.47607507,-0.98884277,2.57874332

>  <Name>
ligand

>  <RI>
0

>  <Rbt.Current_Directory>
/home/itssahil/PROJECTS/Mol_Feturizer/New_Systems/rnas/3SLQ

>  <Rbt.Executable>
rbdock ($Id: //depot/dev/client3/rdock/2013.1/src/exe/rbdock.cxx#4 $)

>  <Rbt.Library>
libRbt.so (2013.1, Build901 2013/11/27)

>  <Rbt.Parameter_File>
/export/apps/rDock/src/rDock_2013.1_src/data/scripts/dock_solv.prm

>  <Rbt.Receptor>
prm/pocket_docking_6.prm

>  <SCORE>
-13.1925

>  <SCORE.INTER>
-6.79351

>  <SCORE.INTER.CONST>
1

>  <SCORE.INTER.POLAR>
0

>  <SCORE.INTER.ROT>
4

>  <SCORE.INTER.SOLV>
13.8923

>  <SCORE.INTER.VDW>
-15.4264

>  <SCORE.INTER.norm>
-0.283063

>  <SCORE.INTRA>
-6.39903

>  <SCORE.INTRA.DIHEDRAL>
-11.7242

>  <SCORE.INTRA.DIHEDRAL.0>
13.2525

>  <SCORE.INTRA.POLAR>
0

>  <SCORE.INTRA.POLAR.0>
0

>  <SCORE.INTRA.REPUL>
0

>  <SCORE.INTRA.REPUL.0>
0

>  <SCORE.INTRA.SOLV>
-0.0134941

>  <SCORE.INTRA.SOLV.lig_0>
-70.7221

>  <SCORE.INTRA.VDW>
-0.530159

>  <SCORE.INTRA.VDW.0>
-1.46337

>  <SCORE.INTRA.norm>
-0.266626

>  <SCORE.RESTR>
0

>  <SCORE.RESTR.CAVITY>
0

>  <SCORE.RESTR.norm>
0

>  <SCORE.SYSTEM>
0

>  <SCORE.SYSTEM.CONST>
0

>  <SCORE.SYSTEM.DIHEDRAL>
0

>  <SCORE.SYSTEM.SOLV>
0

>  <SCORE.SYSTEM.norm>
0

>  <SCORE.heavy>
24

>  <SCORE.norm>
-0.549689

>  <RMSD>
8.507

$$$$
ligand
 OpenBabel11021811483D
libRbt.so/2013.1/901 2013/11/27
 24 26  0  0  0  0  0  0  0  0999 V2000
   -9.0559   -5.4950    8.5506 P   0  0  1  0  0  0  0  0  0  0  0  0
   -9.9048   -5.5904    7.3009 O   0  0  0  0  0  0  0  0  0  0  0  0
   -8.2310   -6.7126    8.8953 O   0  5  0  0  0  0  0  0  0  0  0  0
   -8.2676   -4.1989    8.6658 O   0  0  0  0  0  0  0  0  0  0  0  0
  -11.1382   -6.5321    9.9297 C   0  0  0  0  0  0  0  0  0  0  0  0
  -10.1416   -5.5096    9.7582 O   0  0  0  0  0  0  0  0  0  0  0  0
  -10.4638   -7.8657   10.2652 C   0  0  1  0  0  0  0  0  0  0  0  0
   -9.4779   -7.7217   11.2954 O   0  0  0  0  0  0  0  0  0  0  0  0
  -11.4072   -8.9536   10.7493 C   0  0  1  0  0  0  0  0  0  0  0  0
  -11.8610   -9.7084    9.6219 O   0  0  0  0  0  0  0  0  0  0  0  0
  -10.5326   -9.7929   11.6663 C   0  0  1  0  0  0  0  0  0  0  0  0
   -9.7540  -10.7255   10.9031 O   0  0  0  0  0  0  0  0  0  0  0  0
   -9.5442   -8.7971   12.2401 C   0  0  2  0  0  0  0  0  0  0  0  0
   -9.3700   -9.2788   17.3189 N   0  0  0  0  0  0  0  0  0  0  0  0
   -8.8250  -10.0643   16.3621 C   0  0  1  0  0  0  0  0  0  0  0  0
   -8.1097  -11.1514   16.7294 N   0  0  0  0  0  0  0  0  0  0  0  0
   -8.9868   -9.7765   15.0494 N   0  0  0  0  0  0  0  0  0  0  0  0
   -9.7049   -8.6863   14.6878 C   0  0  1  0  0  0  0  0  0  0  0  0
  -10.2739   -7.8678   15.6435 C   0  0  2  0  0  0  0  0  0  0  0  0
  -10.0922   -8.1847   16.9847 C   0  0  0  0  0  0  0  0  0  0  0  0
  -10.5889   -7.4726   17.8796 O   0  0  0  0  0  0  0  0  0  0  0  0
  -10.9226   -6.8821   14.9904 N   0  0  0  0  0  0  0  0  0  0  0  0
  -10.7509   -7.0842   13.6631 C   0  0  0  0  0  0  0  0  0  0  0  0
  -10.0079   -8.1832   13.4984 N   0  0  1  0  0  0  0  0  0  0  0  0
  1  2  1  6  0  0  0
  1  3  1  0  0  0  0
  1  4  2  0  0  0  0
  1  6  1  0  0  0  0
  5  6  1  0  0  0  0
  7  5  1  1  0  0  0
  7  8  1  0  0  0  0
  7  9  1  0  0  0  0
  9 10  1  6  0  0  0
  9 11  1  0  0  0  0
 11 12  1  6  0  0  0
 11 13  1  0  0  0  0
 13  8  1  6  0  0  0
 13 24  1  0  0  0  0
 14 15  1  0  0  0  0
 14 20  1  0  0  0  0
 15 16  1  6  0  0  0
 15 17  1  0  0  0  0
 18 17  1  1  0  0  0
 18 19  1  0  0  0  0
 18 24  1  0  0  0  0
 19 20  1  6  0  0  0
 19 22  1  0  0  0  0
 20 21  2  0  0  0  0
 22 23  1  0  0  0  0
 24 23  1  1  0  0  0
M  CHG  1   3  -1
M  END
>  <CHROM.1>
54.47276355,47.52560524,66.30253396,-152.65774187,-9.83954074,-7.83373909
12.25840080,-1.51382582,1.42614296,1.88260487

>  <Name>
ligand

>  <RI>
0

>  <Rbt.Current_Directory>
/home/itssahil/PROJECTS/Mol_Feturizer/New_Systems/rnas/3SLQ

>  <Rbt.Executable>
rbdock ($Id: //depot/dev/client3/rdock/2013.1/src/exe/rbdock.cxx#4 $)

>  <Rbt.Library>
libRbt.so (2013.1, Build901 2013/11/27)

>  <Rbt.Parameter_File>
/export/apps/rDock/src/rDock_2013.1_src/data/scripts/dock_solv.prm

>  <Rbt.Receptor>
prm/pocket_docking_8.prm

>  <SCORE>
-13.9495

>  <SCORE.INTER>
-9.0603

>  <SCORE.INTER.CONST>
1

>  <SCORE.INTER.POLAR>
0

>  <SCORE.INTER.ROT>
4

>  <SCORE.INTER.SOLV>
12.4969

>  <SCORE.INTER.VDW>
-16.4725

>  <SCORE.INTER.norm>
-0.377512

>  <SCORE.INTRA>
-4.88917

>  <SCORE.INTRA.DIHEDRAL>
-11.243

>  <SCORE.INTRA.DIHEDRAL.0>
13.2525

>  <SCORE.INTRA.POLAR>
0

>  <SCORE.INTRA.POLAR.0>
0

>  <SCORE.INTRA.REPUL>
0

>  <SCORE.INTRA.REPUL.0>
0

>  <SCORE.INTRA.SOLV>
2.50681

>  <SCORE.INTRA.SOLV.lig_0>
-70.7221

>  <SCORE.INTRA.VDW>
-0.521051

>  <SCORE.INTRA.VDW.0>
-1.46337

>  <SCORE.INTRA.norm>
-0.203715

>  <SCORE.RESTR>
0

>  <SCORE.RESTR.CAVITY>
0

>  <SCORE.RESTR.norm>
0

>  <SCORE.SYSTEM>
0

>  <SCORE.SYSTEM.CONST>
0

>  <SCORE.SYSTEM.DIHEDRAL>
0

>  <SCORE.SYSTEM.SOLV>
0

>  <SCORE.SYSTEM.norm>
0

>  <SCORE.heavy>
24

>  <SCORE.norm>
-0.581228

>  <RMSD>
8.517

$$$$
ligand
 OpenBabel11021811483D
libRbt.so/2013.1/901 2013/11/27
 24 26  0  0  0  0  0  0  0  0999 V2000
   -9.2094   -9.0467    7.1029 P   0  0  1  0  0  0  0  0  0  0  0  0
   -7.9394   -8.5359    6.4567 O   0  0  0  0  0  0  0  0  0  0  0  0
  -10.2344   -8.0041    7.4829 O   0  5  0  0  0  0  0  0  0  0  0  0
   -9.8244  -10.2456    6.3965 O   0  0  0  0  0  0  0  0  0  0  0  0
   -8.3532   -8.6584    9.6386 C   0  0  0  0  0  0  0  0  0  0  0  0
   -8.7236   -9.5464    8.5697 O   0  0  0  0  0  0  0  0  0  0  0  0
   -7.9723   -9.4693   10.8809 C   0  0  1  0  0  0  0  0  0  0  0  0
   -7.7240   -8.6268   12.0134 O   0  0  0  0  0  0  0  0  0  0  0  0
   -9.0210  -10.4698   11.3358 C   0  0  1  0  0  0  0  0  0  0  0  0
   -8.7700  -11.7258   10.6985 O   0  0  0  0  0  0  0  0  0  0  0  0
   -8.7982  -10.5523   12.8371 C   0  0  1  0  0  0  0  0  0  0  0  0
   -7.7231  -11.4536   13.1368 O   0  0  0  0  0  0  0  0  0  0  0  0
   -8.2985   -9.1702   13.2085 C   0  0  2  0  0  0  0  0  0  0  0  0
  -11.5672   -7.9964   16.9494 N   0  0  0  0  0  0  0  0  0  0  0  0
  -10.6416   -8.9812   16.8947 C   0  0  1  0  0  0  0  0  0  0  0  0
  -10.4995   -9.8125   17.9517 N   0  0  0  0  0  0  0  0  0  0  0  0
   -9.8612   -9.1433   15.8006 N   0  0  0  0  0  0  0  0  0  0  0  0
  -10.0088   -8.3077   14.7448 C   0  0  1  0  0  0  0  0  0  0  0  0
  -10.9470   -7.2947   14.7727 C   0  0  2  0  0  0  0  0  0  0  0  0
  -11.7353   -7.1490   15.9083 C   0  0  0  0  0  0  0  0  0  0  0  0
  -12.5944   -6.2477   15.9750 O   0  0  0  0  0  0  0  0  0  0  0  0
  -10.8660   -6.6425   13.5950 N   0  0  0  0  0  0  0  0  0  0  0  0
   -9.8951   -7.2349   12.8613 C   0  0  0  0  0  0  0  0  0  0  0  0
   -9.3849   -8.2429   13.5759 N   0  0  1  0  0  0  0  0  0  0  0  0
  1  2  1  6  0  0  0
  1  3  1  0  0  0  0
  1  4  2  0  0  0  0
  1  6  1  0  0  0  0
  5  6  1  0  0  0  0
  7  5  1  6  0  0  0
  7  8  1  0  0  0  0
  7  9  1  0  0  0  0
  9 10  1  6  0  0  0
  9 11  1  0  0  0  0
 11 12  1  6  0  0  0
 11 13  1  0  0  0  0
 13  8  1  6  0  0  0
 13 24  1  0  0  0  0
 14 15  1  0  0  0  0
 14 20  1  0  0  0  0
 15 16  1  6  0  0  0
 15 17  1  0  0  0  0
 18 17  1  1  0  0  0
 18 19  1  0  0  0  0
 18 24  1  0  0  0  0
 19 20  1  6  0  0  0
 19 22  1  0  0  0  0
 20 21  2  0  0  0  0
 22 23  1  0  0  0  0
 24 23  1  1  0  0  0
M  CHG  1   3  -1
M  END
>  <CHROM.1>
72.65019271,-174.19321167,179.03994955,-169.24085874,-9.55314095,-8.90355902
12.01963187,1.19484169,0.93177368,-1.40002250

>  <Name>
ligand

>  <RI>
0

>  <Rbt.Current_Directory>
/home/itssahil/PROJECTS/Mol_Feturizer/New_Systems/rnas/3SLQ

>  <Rbt.Executable>
rbdock ($Id: //depot/dev/client3/rdock/2013.1/src/exe/rbdock.cxx#4 $)

>  <Rbt.Library>
libRbt.so (2013.1, Build901 2013/11/27)

>  <Rbt.Parameter_File>
/export/apps/rDock/src/rDock_2013.1_src/data/scripts/dock_solv.prm

>  <Rbt.Receptor>
prm/pocket_docking_5.prm

>  <SCORE>
-15.4699

>  <SCORE.INTER>
-9.66028

>  <SCORE.INTER.CONST>
1

>  <SCORE.INTER.POLAR>
0

>  <SCORE.INTER.ROT>
4

>  <SCORE.INTER.SOLV>
16.4741

>  <SCORE.INTER.VDW>
-18.1982

>  <SCORE.INTER.norm>
-0.402512

>  <SCORE.INTRA>
-5.81308

>  <SCORE.INTRA.DIHEDRAL>
-11.6595

>  <SCORE.INTRA.DIHEDRAL.0>
13.2525

>  <SCORE.INTRA.POLAR>
0

>  <SCORE.INTRA.POLAR.0>
0

>  <SCORE.INTRA.REPUL>
0

>  <SCORE.INTRA.REPUL.0>
0

>  <SCORE.INTRA.SOLV>
0.238319

>  <SCORE.INTRA.SOLV.lig_0>
-70.7221

>  <SCORE.INTRA.VDW>
-0.1025

>  <SCORE.INTRA.VDW.0>
-1.46337

>  <SCORE.INTRA.norm>
-0.242212

>  <SCORE.RESTR>
0.00348171

>  <SCORE.RESTR.CAVITY>
0.00348171

>  <SCORE.RESTR.norm>
0.000145071

>  <SCORE.SYSTEM>
0

>  <SCORE.SYSTEM.CONST>
0

>  <SCORE.SYSTEM.DIHEDRAL>
0

>  <SCORE.SYSTEM.SOLV>
0

>  <SCORE.SYSTEM.norm>
0

>  <SCORE.heavy>
24

>  <SCORE.norm>
-0.644578

>  <RMSD>
8.535

$$$$
ligand
 OpenBabel11021811483D
libRbt.so/2013.1/901 2013/11/27
 24 26  0  0  0  0  0  0  0  0999 V2000
  -10.0195   -9.7051   11.6229 P   0  0  1  0  0  0  0  0  0  0  0  0
  -11.1119  -10.6213   11.1141 O   0  0  0  0  0  0  0  0  0  0  0  0
   -9.3202  -10.1353   12.8908 O   0  5  0  0  0  0  0  0  0  0  0  0
   -9.0507   -9.2396   10.5461 O   0  0  0  0  0  0  0  0  0  0  0  0
  -10.2775   -7.4281   13.0590 C   0  0  0  0  0  0  0  0  0  0  0  0
  -10.8251   -8.3961   12.1472 O   0  0  0  0  0  0  0  0  0  0  0  0
  -10.5995   -7.8307   14.5012 C   0  0  1  0  0  0  0  0  0  0  0  0
   -9.6722   -8.8005   15.0050 O   0  0  0  0  0  0  0  0  0  0  0  0
  -10.5818   -6.6877   15.5017 C   0  0  1  0  0  0  0  0  0  0  0  0
  -11.8954   -6.1276   15.5883 O   0  0  0  0  0  0  0  0  0  0  0  0
  -10.1783   -7.3657   16.8008 C   0  0  1  0  0  0  0  0  0  0  0  0
  -11.3180   -7.9731   17.4257 O   0  0  0  0  0  0  0  0  0  0  0  0
   -9.2892   -8.5095   16.3549 C   0  0  2  0  0  0  0  0  0  0  0  0
   -4.5709  -10.2824   17.1618 N   0  0  0  0  0  0  0  0  0  0  0  0
   -5.7625  -10.8943   17.3493 C   0  0  1  0  0  0  0  0  0  0  0  0
   -5.7861  -12.1653   17.8102 N   0  0  0  0  0  0  0  0  0  0  0  0
   -6.9242  -10.2527   17.0830 N   0  0  0  0  0  0  0  0  0  0  0  0
   -6.8940   -8.9793   16.6221 C   0  0  1  0  0  0  0  0  0  0  0  0
   -5.6917   -8.3297   16.4230 C   0  0  2  0  0  0  0  0  0  0  0  0
   -4.5129   -9.0109   16.7032 C   0  0  0  0  0  0  0  0  0  0  0  0
   -3.4059   -8.4615   16.5377 O   0  0  0  0  0  0  0  0  0  0  0  0
   -5.9768   -7.0912   15.9717 N   0  0  0  0  0  0  0  0  0  0  0  0
   -7.3233   -6.9826   15.8873 C   0  0  0  0  0  0  0  0  0  0  0  0
   -7.8635   -8.1390   16.2848 N   0  0  1  0  0  0  0  0  0  0  0  0
  1  2  1  6  0  0  0
  1  3  1  0  0  0  0
  1  4  2  0  0  0  0
  1  6  1  0  0  0  0
  5  6  1  0  0  0  0
  7  5  1  6  0  0  0
  7  8  1  0  0  0  0
  7  9  1  0  0  0  0
  9 10  1  1  0  0  0
  9 11  1  0  0  0  0
 11 12  1  6  0  0  0
 11 13  1  0  0  0  0
 13  8  1  6  0  0  0
 13 24  1  0  0  0  0
 14 15  1  0  0  0  0
 14 20  1  0  0  0  0
 15 16  1  1  0  0  0
 15 17  1  0  0  0  0
 18 17  1  6  0  0  0
 18 19  1  0  0  0  0
 18 24  1  0  0  0  0
 19 20  1  1  0  0  0
 19 22  1  0  0  0  0
 20 21  2  0  0  0  0
 22 23  1  0  0  0  0
 24 23  1  6  0  0  0
M  CHG  1   3  -1
M  END
>  <CHROM.1>
161.06964584,82.55805314,-90.48059188,-101.65567314,-8.46861022,-8.78117232
14.98790201,-2.58737392,-0.46203684,1.09990075

>  <Name>
ligand

>  <RI>
0

>  <Rbt.Current_Directory>
/home/itssahil/PROJECTS/Mol_Feturizer/New_Systems/rnas/3SLQ

>  <Rbt.Executable>
rbdock ($Id: //depot/dev/client3/rdock/2013.1/src/exe/rbdock.cxx#4 $)

>  <Rbt.Library>
libRbt.so (2013.1, Build901 2013/11/27)

>  <Rbt.Parameter_File>
/export/apps/rDock/src/rDock_2013.1_src/data/scripts/dock_solv.prm

>  <Rbt.Receptor>
prm/pocket_docking_5.prm

>  <SCORE>
-12.3985

>  <SCORE.INTER>
-10.6127

>  <SCORE.INTER.CONST>
1

>  <SCORE.INTER.POLAR>
0

>  <SCORE.INTER.ROT>
4

>  <SCORE.INTER.SOLV>
9.50684

>  <SCORE.INTER.VDW>
-16.5108

>  <SCORE.INTER.norm>
-0.442197

>  <SCORE.INTRA>
-1.78578

>  <SCORE.INTRA.DIHEDRAL>
-6.20402

>  <SCORE.INTRA.DIHEDRAL.0>
13.2525

>  <SCORE.INTRA.POLAR>
0

>  <SCORE.INTRA.POLAR.0>
0

>  <SCORE.INTRA.REPUL>
0

>  <SCORE.INTRA.REPUL.0>
0

>  <SCORE.INTRA.SOLV>
3.00612

>  <SCORE.INTRA.SOLV.lig_0>
-70.7221

>  <SCORE.INTRA.VDW>
-0.186829

>  <SCORE.INTRA.VDW.0>
-1.46337

>  <SCORE.INTRA.norm>
-0.0744074

>  <SCORE.RESTR>
0

>  <SCORE.RESTR.CAVITY>
0

>  <SCORE.RESTR.norm>
0

>  <SCORE.SYSTEM>
0

>  <SCORE.SYSTEM.CONST>
0

>  <SCORE.SYSTEM.DIHEDRAL>
0

>  <SCORE.SYSTEM.SOLV>
0

>  <SCORE.SYSTEM.norm>
0

>  <SCORE.heavy>
24

>  <SCORE.norm>
-0.516604

>  <RMSD>
8.600

$$$$
ligand
 OpenBabel11021811483D
libRbt.so/2013.1/901 2013/11/27
 24 26  0  0  0  0  0  0  0  0999 V2000
   -6.4884   -3.9053    9.9836 P   0  0  1  0  0  0  0  0  0  0  0  0
   -7.8294   -4.3027    9.4045 O   0  0  0  0  0  0  0  0  0  0  0  0
   -5.2722   -4.2514    9.1572 O   0  5  0  0  0  0  0  0  0  0  0  0
   -6.4453   -2.4848   10.5267 O   0  0  0  0  0  0  0  0  0  0  0  0
   -7.0896   -4.8549   12.4433 C   0  0  0  0  0  0  0  0  0  0  0  0
   -6.2976   -4.9110   11.2442 O   0  0  0  0  0  0  0  0  0  0  0  0
   -6.5735   -5.8807   13.4568 C   0  0  1  0  0  0  0  0  0  0  0  0
   -7.2352   -5.7610   14.7225 O   0  0  0  0  0  0  0  0  0  0  0  0
   -6.7450   -7.3313   13.0398 C   0  0  1  0  0  0  0  0  0  0  0  0
   -5.5732   -7.7522   12.3352 O   0  0  0  0  0  0  0  0  0  0  0  0
   -6.8909   -8.0617   14.3648 C   0  0  1  0  0  0  0  0  0  0  0  0
   -5.6026   -8.3182   14.9418 O   0  0  0  0  0  0  0  0  0  0  0  0
   -7.5576   -7.0453   15.2704 C   0  0  2  0  0  0  0  0  0  0  0  0
  -11.5629   -9.3452   17.4439 N   0  0  0  0  0  0  0  0  0  0  0  0
  -10.2424   -9.5073   17.6878 C   0  0  1  0  0  0  0  0  0  0  0  0
   -9.8500  -10.3861   18.6376 N   0  0  0  0  0  0  0  0  0  0  0  0
   -9.3152   -8.8046   16.9959 N   0  0  0  0  0  0  0  0  0  0  0  0
   -9.7146   -7.9262   16.0453 C   0  0  1  0  0  0  0  0  0  0  0  0
  -11.0561   -7.7419   15.7743 C   0  0  2  0  0  0  0  0  0  0  0  0
  -11.9883   -8.4750   16.4993 C   0  0  0  0  0  0  0  0  0  0  0  0
  -13.2093   -8.3392   16.2864 O   0  0  0  0  0  0  0  0  0  0  0  0
  -11.1425   -6.8235   14.7904 N   0  0  0  0  0  0  0  0  0  0  0  0
   -9.8836   -6.4450   14.4678 C   0  0  0  0  0  0  0  0  0  0  0  0
   -9.0300   -7.1238   15.2408 N   0  0  1  0  0  0  0  0  0  0  0  0
  1  2  1  6  0  0  0
  1  3  1  0  0  0  0
  1  4  2  0  0  0  0
  1  6  1  0  0  0  0
  5  6  1  0  0  0  0
  7  5  1  6  0  0  0
  7  8  1  0  0  0  0
  7  9  1  0  0  0  0
  9 10  1  1  0  0  0
  9 11  1  0  0  0  0
 11 12  1  1  0  0  0
 11 13  1  0  0  0  0
 13  8  1  6  0  0  0
 13 24  1  0  0  0  0
 14 15  1  0  0  0  0
 14 20  1  0  0  0  0
 15 16  1  6  0  0  0
 15 17  1  0  0  0  0
 18 17  1  1  0  0  0
 18 19  1  0  0  0  0
 18 24  1  0  0  0  0
 19 20  1  6  0  0  0
 19 22  1  0  0  0  0
 20 21  2  0  0  0  0
 22 23  1  0  0  0  0
 24 23  1  1  0  0  0
M  CHG  1   3  -1
M  END
>  <CHROM.1>
-68.77137717,173.53836747,-175.95907713,-156.75347574,-8.24827810,-6.67945848
13.86145577,1.04654211,0.18297133,-0.85850103

>  <Name>
ligand

>  <RI>
0

>  <Rbt.Current_Directory>
/home/itssahil/PROJECTS/Mol_Feturizer/New_Systems/rnas/3SLQ

>  <Rbt.Executable>
rbdock ($Id: //depot/dev/client3/rdock/2013.1/src/exe/rbdock.cxx#4 $)

>  <Rbt.Library>
libRbt.so (2013.1, Build901 2013/11/27)

>  <Rbt.Parameter_File>
/export/apps/rDock/src/rDock_2013.1_src/data/scripts/dock_solv.prm

>  <Rbt.Receptor>
prm/pocket_docking_8.prm

>  <SCORE>
-15.4806

>  <SCORE.INTER>
-9.26317

>  <SCORE.INTER.CONST>
1

>  <SCORE.INTER.POLAR>
0

>  <SCORE.INTER.ROT>
4

>  <SCORE.INTER.SOLV>
15.5907

>  <SCORE.INTER.VDW>
-17.639

>  <SCORE.INTER.norm>
-0.385965

>  <SCORE.INTRA>
-6.21741

>  <SCORE.INTRA.DIHEDRAL>
-11.6789

>  <SCORE.INTRA.DIHEDRAL.0>
13.2525

>  <SCORE.INTRA.POLAR>
0

>  <SCORE.INTRA.POLAR.0>
0

>  <SCORE.INTRA.REPUL>
0

>  <SCORE.INTRA.REPUL.0>
0

>  <SCORE.INTRA.SOLV>
0.0510691

>  <SCORE.INTRA.SOLV.lig_0>
-70.7221

>  <SCORE.INTRA.VDW>
-0.403512

>  <SCORE.INTRA.VDW.0>
-1.46337

>  <SCORE.INTRA.norm>
-0.259059

>  <SCORE.RESTR>
0

>  <SCORE.RESTR.CAVITY>
0

>  <SCORE.RESTR.norm>
0

>  <SCORE.SYSTEM>
0

>  <SCORE.SYSTEM.CONST>
0

>  <SCORE.SYSTEM.DIHEDRAL>
0

>  <SCORE.SYSTEM.SOLV>
0

>  <SCORE.SYSTEM.norm>
0

>  <SCORE.heavy>
24

>  <SCORE.norm>
-0.645024

>  <RMSD>
8.614

$$$$
ligand
 OpenBabel11021811483D
libRbt.so/2013.1/901 2013/11/27
 24 26  0  0  0  0  0  0  0  0999 V2000
   -6.3618   -4.7455    9.7449 P   0  0  1  0  0  0  0  0  0  0  0  0
   -5.2313   -5.2573    8.8780 O   0  0  0  0  0  0  0  0  0  0  0  0
   -6.2856   -3.2946   10.1582 O   0  5  0  0  0  0  0  0  0  0  0  0
   -7.7461   -5.1458    9.2568 O   0  0  0  0  0  0  0  0  0  0  0  0
   -6.9473   -5.2803   12.3304 C   0  0  0  0  0  0  0  0  0  0  0  0
   -6.1201   -5.4828   11.1715 O   0  0  0  0  0  0  0  0  0  0  0  0
   -6.4219   -6.1203   13.4984 C   0  0  1  0  0  0  0  0  0  0  0  0
   -7.0991   -5.8141   14.7238 O   0  0  0  0  0  0  0  0  0  0  0  0
   -6.5606   -7.6222   13.3171 C   0  0  1  0  0  0  0  0  0  0  0  0
   -5.3735   -8.1254   12.6972 O   0  0  0  0  0  0  0  0  0  0  0  0
   -6.7061   -8.1347   14.7406 C   0  0  1  0  0  0  0  0  0  0  0  0
   -5.4192   -8.2688   15.3605 O   0  0  0  0  0  0  0  0  0  0  0  0
   -7.4020   -7.0010   15.4674 C   0  0  2  0  0  0  0  0  0  0  0  0
  -11.3337   -9.5526   17.4893 N   0  0  0  0  0  0  0  0  0  0  0  0
  -10.0080   -9.6988   17.7136 C   0  0  1  0  0  0  0  0  0  0  0  0
   -9.5872  -10.6341   18.5948 N   0  0  0  0  0  0  0  0  0  0  0  0
   -9.1033   -8.9246   17.0698 N   0  0  0  0  0  0  0  0  0  0  0  0
   -9.5310   -7.9898   16.1877 C   0  0  1  0  0  0  0  0  0  0  0  0
  -10.8786   -7.8200   15.9381 C   0  0  2  0  0  0  0  0  0  0  0  0
  -11.7872   -8.6270   16.6128 C   0  0  0  0  0  0  0  0  0  0  0  0
  -13.0127   -8.5069   16.4169 O   0  0  0  0  0  0  0  0  0  0  0  0
  -10.9946   -6.8351   15.0241 N   0  0  0  0  0  0  0  0  0  0  0  0
   -9.7479   -6.4027   14.7231 C   0  0  0  0  0  0  0  0  0  0  0  0
   -8.8722   -7.1142   15.4402 N   0  0  1  0  0  0  0  0  0  0  0  0
  1  2  1  6  0  0  0
  1  3  1  0  0  0  0
  1  4  2  0  0  0  0
  1  6  1  0  0  0  0
  5  6  1  0  0  0  0
  7  5  1  6  0  0  0
  7  8  1  0  0  0  0
  7  9  1  0  0  0  0
  9 10  1  1  0  0  0
  9 11  1  0  0  0  0
 11 12  1  1  0  0  0
 11 13  1  0  0  0  0
 13  8  1  6  0  0  0
 13 24  1  0  0  0  0
 14 15  1  0  0  0  0
 14 20  1  0  0  0  0
 15 16  1  6  0  0  0
 15 17  1  0  0  0  0
 18 17  1  1  0  0  0
 18 19  1  0  0  0  0
 18 24  1  0  0  0  0
 19 20  1  6  0  0  0
 19 22  1  0  0  0  0
 20 21  2  0  0  0  0
 22 23  1  0  0  0  0
 24 23  1  1  0  0  0
M  CHG  1   3  -1
M  END
>  <CHROM.1>
178.81550083,171.98793459,-179.39819008,-170.13802228,-8.08246371,-6.99785217
13.91466216,1.05306334,0.14985127,-0.96375774

>  <Name>
ligand

>  <RI>
0

>  <Rbt.Current_Directory>
/home/itssahil/PROJECTS/Mol_Feturizer/New_Systems/rnas/3SLQ

>  <Rbt.Executable>
rbdock ($Id: //depot/dev/client3/rdock/2013.1/src/exe/rbdock.cxx#4 $)

>  <Rbt.Library>
libRbt.so (2013.1, Build901 2013/11/27)

>  <Rbt.Parameter_File>
/export/apps/rDock/src/rDock_2013.1_src/data/scripts/dock_solv.prm

>  <Rbt.Receptor>
prm/pocket_docking_5.prm

>  <SCORE>
-16.0251

>  <SCORE.INTER>
-10.1495

>  <SCORE.INTER.CONST>
1

>  <SCORE.INTER.POLAR>
0

>  <SCORE.INTER.ROT>
4

>  <SCORE.INTER.SOLV>
11.6853

>  <SCORE.INTER.VDW>
-16.9281

>  <SCORE.INTER.norm>
-0.422896

>  <SCORE.INTRA>
-5.87586

>  <SCORE.INTRA.DIHEDRAL>
-11.8075

>  <SCORE.INTRA.DIHEDRAL.0>
13.2525

>  <SCORE.INTRA.POLAR>
0

>  <SCORE.INTRA.POLAR.0>
0

>  <SCORE.INTRA.REPUL>
0

>  <SCORE.INTRA.REPUL.0>
0

>  <SCORE.INTRA.SOLV>
0.580938

>  <SCORE.INTRA.SOLV.lig_0>
-70.7221

>  <SCORE.INTRA.VDW>
-0.262587

>  <SCORE.INTRA.VDW.0>
-1.46337

>  <SCORE.INTRA.norm>
-0.244827

>  <SCORE.RESTR>
0.000232095

>  <SCORE.RESTR.CAVITY>
0.000232095

>  <SCORE.RESTR.norm>
9.6706e-06

>  <SCORE.SYSTEM>
0

>  <SCORE.SYSTEM.CONST>
0

>  <SCORE.SYSTEM.DIHEDRAL>
0

>  <SCORE.SYSTEM.SOLV>
0

>  <SCORE.SYSTEM.norm>
0

>  <SCORE.heavy>
24

>  <SCORE.norm>
-0.667714

>  <RMSD>
8.620

$$$$
ligand
 OpenBabel11021811483D
libRbt.so/2013.1/901 2013/11/27
 24 26  0  0  0  0  0  0  0  0999 V2000
  -10.1280   -7.0409    7.2494 P   0  0  1  0  0  0  0  0  0  0  0  0
   -9.0830   -8.0790    7.5985 O   0  0  0  0  0  0  0  0  0  0  0  0
   -9.6307   -5.7984    6.5489 O   0  5  0  0  0  0  0  0  0  0  0  0
  -11.3814   -7.6162    6.6072 O   0  0  0  0  0  0  0  0  0  0  0  0
  -11.3544   -7.1345    9.6579 C   0  0  0  0  0  0  0  0  0  0  0  0
  -10.5604   -6.4274    8.6895 O   0  0  0  0  0  0  0  0  0  0  0  0
  -10.5824   -8.3519   10.1754 C   0  0  1  0  0  0  0  0  0  0  0  0
   -9.5598   -7.9793   11.1078 O   0  0  0  0  0  0  0  0  0  0  0  0
  -11.4315   -9.3889   10.8905 C   0  0  1  0  0  0  0  0  0  0  0  0
  -11.8900  -10.3504    9.9355 O   0  0  0  0  0  0  0  0  0  0  0  0
  -10.4635  -10.0090   11.8848 C   0  0  1  0  0  0  0  0  0  0  0  0
   -9.6649  -11.0161   11.2475 O   0  0  0  0  0  0  0  0  0  0  0  0
   -9.5135   -8.8773   12.2236 C   0  0  2  0  0  0  0  0  0  0  0  0
   -9.6013   -8.8104   17.3269 N   0  0  0  0  0  0  0  0  0  0  0  0
   -9.1113   -9.7517   16.4883 C   0  0  1  0  0  0  0  0  0  0  0  0
   -8.5403  -10.8631   17.0052 N   0  0  0  0  0  0  0  0  0  0  0  0
   -9.1858   -9.5949   15.1459 N   0  0  0  0  0  0  0  0  0  0  0  0
   -9.7595   -8.4797   14.6341 C   0  0  1  0  0  0  0  0  0  0  0  0
  -10.2696   -7.5032   15.4670 C   0  0  2  0  0  0  0  0  0  0  0  0
  -10.1798   -7.6878   16.8417 C   0  0  0  0  0  0  0  0  0  0  0  0
  -10.6277   -6.8312   17.6292 O   0  0  0  0  0  0  0  0  0  0  0  0
  -10.7745   -6.5310   14.6804 N   0  0  0  0  0  0  0  0  0  0  0  0
  -10.5734   -6.8962   13.3927 C   0  0  0  0  0  0  0  0  0  0  0  0
   -9.9547   -8.0811   13.3840 N   0  0  1  0  0  0  0  0  0  0  0  0
  1  2  1  1  0  0  0
  1  3  1  0  0  0  0
  1  4  2  0  0  0  0
  1  6  1  0  0  0  0
  5  6  1  0  0  0  0
  7  5  1  1  0  0  0
  7  8  1  0  0  0  0
  7  9  1  0  0  0  0
  9 10  1  6  0  0  0
  9 11  1  0  0  0  0
 11 12  1  6  0  0  0
 11 13  1  0  0  0  0
 13  8  1  6  0  0  0
 13 24  1  0  0  0  0
 14 15  1  0  0  0  0
 14 20  1  0  0  0  0
 15 16  1  6  0  0  0
 15 17  1  0  0  0  0
 18 17  1  1  0  0  0
 18 19  1  0  0  0  0
 18 24  1  0  0  0  0
 19 20  1  6  0  0  0
 19 22  1  0  0  0  0
 20 21  2  0  0  0  0
 22 23  1  0  0  0  0
 24 23  1  1  0  0  0
M  CHG  1   3  -1
M  END
>  <CHROM.1>
-72.33962542,76.04051164,65.40404988,-164.54765521,-10.16541715,-8.22001958
11.90096183,2.14057722,1.44089114,-1.99580841

>  <Name>
ligand

>  <RI>
0

>  <Rbt.Current_Directory>
/home/itssahil/PROJECTS/Mol_Feturizer/New_Systems/rnas/3SLQ

>  <Rbt.Executable>
rbdock ($Id: //depot/dev/client3/rdock/2013.1/src/exe/rbdock.cxx#4 $)

>  <Rbt.Library>
libRbt.so (2013.1, Build901 2013/11/27)

>  <Rbt.Parameter_File>
/export/apps/rDock/src/rDock_2013.1_src/data/scripts/dock_solv.prm

>  <Rbt.Receptor>
prm/pocket_docking_6.prm

>  <SCORE>
-12.5339

>  <SCORE.INTER>
-6.97802

>  <SCORE.INTER.CONST>
1

>  <SCORE.INTER.POLAR>
0

>  <SCORE.INTER.ROT>
4

>  <SCORE.INTER.SOLV>
16.4373

>  <SCORE.INTER.VDW>
-16.3978

>  <SCORE.INTER.norm>
-0.290751

>  <SCORE.INTRA>
-5.55587

>  <SCORE.INTRA.DIHEDRAL>
-10.7788

>  <SCORE.INTRA.DIHEDRAL.0>
13.2525

>  <SCORE.INTRA.POLAR>
0

>  <SCORE.INTRA.POLAR.0>
0

>  <SCORE.INTRA.REPUL>
0

>  <SCORE.INTRA.REPUL.0>
0

>  <SCORE.INTRA.SOLV>
1.04705

>  <SCORE.INTRA.SOLV.lig_0>
-70.7221

>  <SCORE.INTRA.VDW>
-0.689976

>  <SCORE.INTRA.VDW.0>
-1.46337

>  <SCORE.INTRA.norm>
-0.231495

>  <SCORE.RESTR>
0

>  <SCORE.RESTR.CAVITY>
0

>  <SCORE.RESTR.norm>
0

>  <SCORE.SYSTEM>
0

>  <SCORE.SYSTEM.CONST>
0

>  <SCORE.SYSTEM.DIHEDRAL>
0

>  <SCORE.SYSTEM.SOLV>
0

>  <SCORE.SYSTEM.norm>
0

>  <SCORE.heavy>
24

>  <SCORE.norm>
-0.522246

>  <RMSD>
8.635

$$$$
ligand
 OpenBabel11021811483D
libRbt.so/2013.1/901 2013/11/27
 24 26  0  0  0  0  0  0  0  0999 V2000
   -9.4196   -9.3726    7.1483 P   0  0  1  0  0  0  0  0  0  0  0  0
   -9.2630  -10.6621    6.3710 O   0  0  0  0  0  0  0  0  0  0  0  0
   -8.5241   -8.2282    6.7357 O   0  5  0  0  0  0  0  0  0  0  0  0
  -10.8652   -8.9442    7.3516 O   0  0  0  0  0  0  0  0  0  0  0  0
   -8.7382   -8.7881    9.6993 C   0  0  0  0  0  0  0  0  0  0  0  0
   -8.8096   -9.7258    8.6113 O   0  0  0  0  0  0  0  0  0  0  0  0
   -8.0738   -9.4470   10.9119 C   0  0  1  0  0  0  0  0  0  0  0  0
   -7.8676   -8.5145   11.9805 O   0  0  0  0  0  0  0  0  0  0  0  0
   -8.8544  -10.6003   11.5186 C   0  0  1  0  0  0  0  0  0  0  0  0
   -8.4395  -11.8192   10.8949 O   0  0  0  0  0  0  0  0  0  0  0  0
   -8.4551  -10.5606   12.9847 C   0  0  1  0  0  0  0  0  0  0  0  0
   -7.2007  -11.2282   13.1822 O   0  0  0  0  0  0  0  0  0  0  0  0
   -8.1915   -9.0919   13.2515 C   0  0  2  0  0  0  0  0  0  0  0  0
  -11.3225   -8.5256   17.2430 N   0  0  0  0  0  0  0  0  0  0  0  0
  -10.2511   -9.3386   17.0999 C   0  0  1  0  0  0  0  0  0  0  0  0
   -9.8925  -10.1440   18.1253 N   0  0  0  0  0  0  0  0  0  0  0  0
   -9.5385   -9.3554   15.9493 N   0  0  0  0  0  0  0  0  0  0  0  0
   -9.9030   -8.5467   14.9256 C   0  0  1  0  0  0  0  0  0  0  0  0
  -10.9936   -7.7077   15.0435 C   0  0  2  0  0  0  0  0  0  0  0  0
  -11.7081   -7.7088   16.2358 C   0  0  0  0  0  0  0  0  0  0  0  0
  -12.6992   -6.9669   16.3841 O   0  0  0  0  0  0  0  0  0  0  0  0
  -11.1117   -7.0398   13.8778 N   0  0  0  0  0  0  0  0  0  0  0  0
  -10.1124   -7.4519   13.0632 C   0  0  0  0  0  0  0  0  0  0  0  0
   -9.3879   -8.3658   13.7166 N   0  0  1  0  0  0  0  0  0  0  0  0
  1  2  1  6  0  0  0
  1  3  1  0  0  0  0
  1  4  2  0  0  0  0
  1  6  1  0  0  0  0
  5  6  1  0  0  0  0
  7  5  1  6  0  0  0
  7  8  1  0  0  0  0
  7  9  1  0  0  0  0
  9 10  1  6  0  0  0
  9 11  1  0  0  0  0
 11 12  1  6  0  0  0
 11 13  1  0  0  0  0
 13  8  1  6  0  0  0
 13 24  1  0  0  0  0
 14 15  1  0  0  0  0
 14 20  1  0  0  0  0
 15 16  1  6  0  0  0
 15 17  1  0  0  0  0
 18 17  1  1  0  0  0
 18 19  1  0  0  0  0
 18 24  1  0  0  0  0
 19 20  1  6  0  0  0
 19 22  1  0  0  0  0
 20 21  2  0  0  0  0
 22 23  1  0  0  0  0
 24 23  1  1  0  0  0
M  CHG  1   3  -1
M  END
>  <CHROM.1>
179.63493840,174.59667341,-178.47799230,-173.51592533,-9.52861681,-9.13846970
12.15713643,1.31899186,0.79041883,-1.50720656

>  <Name>
ligand

>  <RI>
0

>  <Rbt.Current_Directory>
/home/itssahil/PROJECTS/Mol_Feturizer/New_Systems/rnas/3SLQ

>  <Rbt.Executable>
rbdock ($Id: //depot/dev/client3/rdock/2013.1/src/exe/rbdock.cxx#4 $)

>  <Rbt.Library>
libRbt.so (2013.1, Build901 2013/11/27)

>  <Rbt.Parameter_File>
/export/apps/rDock/src/rDock_2013.1_src/data/scripts/dock_solv.prm

>  <Rbt.Receptor>
prm/pocket_docking_7.prm

>  <SCORE>
-16.7051

>  <SCORE.INTER>
-10.7989

>  <SCORE.INTER.CONST>
1

>  <SCORE.INTER.POLAR>
0

>  <SCORE.INTER.ROT>
4

>  <SCORE.INTER.SOLV>
13.1919

>  <SCORE.INTER.VDW>
-17.8632

>  <SCORE.INTER.norm>
-0.449954

>  <SCORE.INTRA>
-5.90623

>  <SCORE.INTRA.DIHEDRAL>
-11.9273

>  <SCORE.INTRA.DIHEDRAL.0>
13.2525

>  <SCORE.INTRA.POLAR>
0

>  <SCORE.INTRA.POLAR.0>
0

>  <SCORE.INTRA.REPUL>
0

>  <SCORE.INTRA.REPUL.0>
0

>  <SCORE.INTRA.SOLV>
0.59069

>  <SCORE.INTRA.SOLV.lig_0>
-70.7221

>  <SCORE.INTRA.VDW>
-0.237898

>  <SCORE.INTRA.VDW.0>
-1.46337

>  <SCORE.INTRA.norm>
-0.246093

>  <SCORE.RESTR>
0

>  <SCORE.RESTR.CAVITY>
0

>  <SCORE.RESTR.norm>
0

>  <SCORE.SYSTEM>
0

>  <SCORE.SYSTEM.CONST>
0

>  <SCORE.SYSTEM.DIHEDRAL>
0

>  <SCORE.SYSTEM.SOLV>
0

>  <SCORE.SYSTEM.norm>
0

>  <SCORE.heavy>
24

>  <SCORE.norm>
-0.696047

>  <RMSD>
8.729

$$$$
ligand
 OpenBabel11021811483D
libRbt.so/2013.1/901 2013/11/27
 24 26  0  0  0  0  0  0  0  0999 V2000
  -10.3026   -7.6595   10.8412 P   0  0  1  0  0  0  0  0  0  0  0  0
  -11.1720   -6.4476   10.5824 O   0  0  0  0  0  0  0  0  0  0  0  0
  -10.7339   -8.9474   10.1801 O   0  5  0  0  0  0  0  0  0  0  0  0
   -8.8117   -7.3942   10.6951 O   0  0  0  0  0  0  0  0  0  0  0  0
  -10.5138   -7.0436   13.4661 C   0  0  0  0  0  0  0  0  0  0  0  0
  -10.5808   -8.0093   12.4025 O   0  0  0  0  0  0  0  0  0  0  0  0
  -10.7220   -7.7390   14.8147 C   0  0  1  0  0  0  0  0  0  0  0  0
   -9.7290   -8.7436   15.0569 O   0  0  0  0  0  0  0  0  0  0  0  0
  -10.6759   -6.8173   16.0214 C   0  0  1  0  0  0  0  0  0  0  0  0
  -11.9993   -6.3493   16.2975 O   0  0  0  0  0  0  0  0  0  0  0  0
  -10.1609   -7.7191   17.1313 C   0  0  1  0  0  0  0  0  0  0  0  0
  -11.2331   -8.4923   17.6888 O   0  0  0  0  0  0  0  0  0  0  0  0
   -9.2649   -8.7078   16.4122 C   0  0  2  0  0  0  0  0  0  0  0  0
   -4.4514  -10.2495   17.1266 N   0  0  0  0  0  0  0  0  0  0  0  0
   -5.6074  -10.9257   17.3161 C   0  0  1  0  0  0  0  0  0  0  0  0
   -5.5595  -12.2050   17.7517 N   0  0  0  0  0  0  0  0  0  0  0  0
   -6.8040  -10.3401   17.0767 N   0  0  0  0  0  0  0  0  0  0  0  0
   -6.8454   -9.0582   16.6412 C   0  0  1  0  0  0  0  0  0  0  0  0
   -5.6808   -8.3434   16.4407 C   0  0  2  0  0  0  0  0  0  0  0  0
   -4.4650   -8.9680   16.6930 C   0  0  0  0  0  0  0  0  0  0  0  0
   -3.3900   -8.3590   16.5252 O   0  0  0  0  0  0  0  0  0  0  0  0
   -6.0352   -7.1128   16.0178 N   0  0  0  0  0  0  0  0  0  0  0  0
   -7.3864   -7.0724   15.9518 C   0  0  0  0  0  0  0  0  0  0  0  0
   -7.8611   -8.2627   16.3325 N   0  0  1  0  0  0  0  0  0  0  0  0
  1  2  1  6  0  0  0
  1  3  1  0  0  0  0
  1  4  2  0  0  0  0
  1  6  1  0  0  0  0
  5  6  1  0  0  0  0
  7  5  1  6  0  0  0
  7  8  1  0  0  0  0
  7  9  1  0  0  0  0
  9 10  1  1  0  0  0
  9 11  1  0  0  0  0
 11 12  1  6  0  0  0
 11 13  1  0  0  0  0
 13  8  1  6  0  0  0
 13 24  1  0  0  0  0
 14 15  1  0  0  0  0
 14 20  1  0  0  0  0
 15 16  1  1  0  0  0
 15 17  1  0  0  0  0
 18 17  1  6  0  0  0
 18 19  1  0  0  0  0
 18 24  1  0  0  0  0
 19 20  1  1  0  0  0
 19 22  1  0  0  0  0
 20 21  2  0  0  0  0
 22 23  1  0  0  0  0
 24 23  1  6  0  0  0
M  CHG  1   3  -1
M  END
>  <CHROM.1>
-50.03494965,59.70147550,-175.52367245,-112.47762138,-8.53342722,-8.30853377
14.90000298,-2.36029520,-0.31425680,1.65265166

>  <Name>
ligand

>  <RI>
0

>  <Rbt.Current_Directory>
/home/itssahil/PROJECTS/Mol_Feturizer/New_Systems/rnas/3SLQ

>  <Rbt.Executable>
rbdock ($Id: //depot/dev/client3/rdock/2013.1/src/exe/rbdock.cxx#4 $)

>  <Rbt.Library>
libRbt.so (2013.1, Build901 2013/11/27)

>  <Rbt.Parameter_File>
/export/apps/rDock/src/rDock_2013.1_src/data/scripts/dock_solv.prm

>  <Rbt.Receptor>
prm/pocket_docking_8.prm

>  <SCORE>
-14.6865

>  <SCORE.INTER>
-8.36665

>  <SCORE.INTER.CONST>
1

>  <SCORE.INTER.POLAR>
0

>  <SCORE.INTER.ROT>
4

>  <SCORE.INTER.SOLV>
7.64033

>  <SCORE.INTER.VDW>
-14.3912

>  <SCORE.INTER.norm>
-0.34861

>  <SCORE.INTRA>
-6.31984

>  <SCORE.INTRA.DIHEDRAL>
-11.7981

>  <SCORE.INTRA.DIHEDRAL.0>
13.2525

>  <SCORE.INTRA.POLAR>
0

>  <SCORE.INTRA.POLAR.0>
0

>  <SCORE.INTRA.REPUL>
0

>  <SCORE.INTRA.REPUL.0>
0

>  <SCORE.INTRA.SOLV>
-0.169883

>  <SCORE.INTRA.SOLV.lig_0>
-70.7221

>  <SCORE.INTRA.VDW>
-0.335847

>  <SCORE.INTRA.VDW.0>
-1.46337

>  <SCORE.INTRA.norm>
-0.263327

>  <SCORE.RESTR>
0

>  <SCORE.RESTR.CAVITY>
0

>  <SCORE.RESTR.norm>
0

>  <SCORE.SYSTEM>
0

>  <SCORE.SYSTEM.CONST>
0

>  <SCORE.SYSTEM.DIHEDRAL>
0

>  <SCORE.SYSTEM.SOLV>
0

>  <SCORE.SYSTEM.norm>
0

>  <SCORE.heavy>
24

>  <SCORE.norm>
-0.611937

>  <RMSD>
8.737

$$$$
ligand
 OpenBabel11021811483D
libRbt.so/2013.1/901 2013/11/27
 24 26  0  0  0  0  0  0  0  0999 V2000
   -9.3634   -9.2322    7.2141 P   0  0  1  0  0  0  0  0  0  0  0  0
   -9.2739  -10.5114    6.4095 O   0  0  0  0  0  0  0  0  0  0  0  0
   -8.4213   -8.1213    6.8139 O   0  5  0  0  0  0  0  0  0  0  0  0
  -10.7857   -8.7432    7.4428 O   0  0  0  0  0  0  0  0  0  0  0  0
   -8.6914   -8.7507    9.7890 C   0  0  0  0  0  0  0  0  0  0  0  0
   -8.7542   -9.6425    8.6624 O   0  0  0  0  0  0  0  0  0  0  0  0
   -8.0461   -9.4629   10.9816 C   0  0  1  0  0  0  0  0  0  0  0  0
   -7.8138   -8.5679   12.0766 O   0  0  0  0  0  0  0  0  0  0  0  0
   -8.8592  -10.6107   11.5552 C   0  0  1  0  0  0  0  0  0  0  0  0
   -8.4790  -11.8223   10.8963 O   0  0  0  0  0  0  0  0  0  0  0  0
   -8.4593  -10.6247   13.0215 C   0  0  1  0  0  0  0  0  0  0  0  0
   -7.2243  -11.3330   13.1989 O   0  0  0  0  0  0  0  0  0  0  0  0
   -8.1541   -9.1724   13.3305 C   0  0  2  0  0  0  0  0  0  0  0  0
  -11.2342   -8.5926   17.3596 N   0  0  0  0  0  0  0  0  0  0  0  0
  -10.1826   -9.4272   17.1950 C   0  0  1  0  0  0  0  0  0  0  0  0
   -9.8326  -10.2547   18.2055 N   0  0  0  0  0  0  0  0  0  0  0  0
   -9.4814   -9.4437   16.0373 N   0  0  0  0  0  0  0  0  0  0  0  0
   -9.8373   -8.6128   15.0285 C   0  0  1  0  0  0  0  0  0  0  0  0
  -10.9077   -7.7515   15.1685 C   0  0  2  0  0  0  0  0  0  0  0  0
  -11.6108   -7.7533   16.3675 C   0  0  0  0  0  0  0  0  0  0  0  0
  -12.5836   -6.9917   16.5357 O   0  0  0  0  0  0  0  0  0  0  0  0
  -11.0216   -7.0647   14.0134 N   0  0  0  0  0  0  0  0  0  0  0  0
  -10.0396   -7.4876   13.1835 C   0  0  0  0  0  0  0  0  0  0  0  0
   -9.3296   -8.4264   13.8172 N   0  0  1  0  0  0  0  0  0  0  0  0
  1  2  1  6  0  0  0
  1  3  1  0  0  0  0
  1  4  2  0  0  0  0
  1  6  1  0  0  0  0
  5  6  1  0  0  0  0
  7  5  1  6  0  0  0
  7  8  1  0  0  0  0
  7  9  1  0  0  0  0
  9 10  1  6  0  0  0
  9 11  1  0  0  0  0
 11 12  1  6  0  0  0
 11 13  1  0  0  0  0
 13  8  1  6  0  0  0
 13 24  1  0  0  0  0
 14 15  1  0  0  0  0
 14 20  1  0  0  0  0
 15 16  1  6  0  0  0
 15 17  1  0  0  0  0
 18 17  1  1  0  0  0
 18 19  1  0  0  0  0
 18 24  1  0  0  0  0
 19 20  1  6  0  0  0
 19 22  1  0  0  0  0
 20 21  2  0  0  0  0
 22 23  1  0  0  0  0
 24 23  1  1  0  0  0
M  CHG  1   3  -1
M  END
>  <CHROM.1>
-177.05171206,172.95775759,-179.40138023,-172.44777617,-9.47765955,-9.13826420
12.23818568,1.31678151,0.82050585,-1.47844657

>  <Name>
ligand

>  <RI>
0

>  <Rbt.Current_Directory>
/home/itssahil/PROJECTS/Mol_Feturizer/New_Systems/rnas/3SLQ

>  <Rbt.Executable>
rbdock ($Id: //depot/dev/client3/rdock/2013.1/src/exe/rbdock.cxx#4 $)

>  <Rbt.Library>
libRbt.so (2013.1, Build901 2013/11/27)

>  <Rbt.Parameter_File>
/export/apps/rDock/src/rDock_2013.1_src/data/scripts/dock_solv.prm

>  <Rbt.Receptor>
prm/pocket_docking_5.prm

>  <SCORE>
-16.2343

>  <SCORE.INTER>
-10.3368

>  <SCORE.INTER.CONST>
1

>  <SCORE.INTER.POLAR>
0

>  <SCORE.INTER.ROT>
4

>  <SCORE.INTER.SOLV>
12.2347

>  <SCORE.INTER.VDW>
-17.2361

>  <SCORE.INTER.norm>
-0.430698

>  <SCORE.INTRA>
-5.89824

>  <SCORE.INTRA.DIHEDRAL>
-11.8484

>  <SCORE.INTRA.DIHEDRAL.0>
13.2525

>  <SCORE.INTRA.POLAR>
0

>  <SCORE.INTRA.POLAR.0>
0

>  <SCORE.INTRA.REPUL>
0

>  <SCORE.INTRA.REPUL.0>
0

>  <SCORE.INTRA.SOLV>
0.584148

>  <SCORE.INTRA.SOLV.lig_0>
-70.7221

>  <SCORE.INTRA.VDW>
-0.266096

>  <SCORE.INTRA.VDW.0>
-1.46337

>  <SCORE.INTRA.norm>
-0.24576

>  <SCORE.RESTR>
0.00068797

>  <SCORE.RESTR.CAVITY>
0.00068797

>  <SCORE.RESTR.norm>
2.86654e-05

>  <SCORE.SYSTEM>
0

>  <SCORE.SYSTEM.CONST>
0

>  <SCORE.SYSTEM.DIHEDRAL>
0

>  <SCORE.SYSTEM.SOLV>
0

>  <SCORE.SYSTEM.norm>
0

>  <SCORE.heavy>
24

>  <SCORE.norm>
-0.67643

>  <RMSD>
8.751

$$$$
ligand
 OpenBabel11021811483D
libRbt.so/2013.1/901 2013/11/27
 24 26  0  0  0  0  0  0  0  0999 V2000
  -12.0531   -5.4885    7.6807 P   0  0  1  0  0  0  0  0  0  0  0  0
  -10.8336   -5.2097    6.8282 O   0  0  0  0  0  0  0  0  0  0  0  0
  -12.4092   -4.4373    8.7054 O   0  5  0  0  0  0  0  0  0  0  0  0
  -13.2606   -5.9748    6.8933 O   0  0  0  0  0  0  0  0  0  0  0  0
  -10.6246   -6.5654    9.7088 C   0  0  0  0  0  0  0  0  0  0  0  0
  -11.5813   -6.7073    8.6445 O   0  0  0  0  0  0  0  0  0  0  0  0
  -10.1869   -7.9472   10.2034 C   0  0  1  0  0  0  0  0  0  0  0  0
   -9.2826   -7.8564   11.3115 O   0  0  0  0  0  0  0  0  0  0  0  0
  -11.3192   -8.8458   10.6704 C   0  0  1  0  0  0  0  0  0  0  0  0
  -11.7816   -9.6224    9.5614 O   0  0  0  0  0  0  0  0  0  0  0  0
  -10.6609   -9.7188   11.7262 C   0  0  1  0  0  0  0  0  0  0  0  0
   -9.9667  -10.8136   11.1115 O   0  0  0  0  0  0  0  0  0  0  0  0
   -9.5886   -8.8272   12.3203 C   0  0  2  0  0  0  0  0  0  0  0  0
   -9.6283   -8.7288   17.4238 N   0  0  0  0  0  0  0  0  0  0  0  0
   -9.0944   -9.6469   16.5862 C   0  0  1  0  0  0  0  0  0  0  0  0
   -8.4563  -10.7205   17.1044 N   0  0  0  0  0  0  0  0  0  0  0  0
   -9.1913   -9.5042   15.2436 N   0  0  0  0  0  0  0  0  0  0  0  0
   -9.8323   -8.4268   14.7306 C   0  0  1  0  0  0  0  0  0  0  0  0
  -10.3883   -7.4748   15.5624 C   0  0  2  0  0  0  0  0  0  0  0  0
  -10.2743   -7.6442   16.9373 C   0  0  0  0  0  0  0  0  0  0  0  0
  -10.7619   -6.8086   17.7238 O   0  0  0  0  0  0  0  0  0  0  0  0
  -10.9553   -6.5383   14.7747 N   0  0  0  0  0  0  0  0  0  0  0  0
  -10.7469   -6.9007   13.4874 C   0  0  0  0  0  0  0  0  0  0  0  0
  -10.0623   -8.0489   13.4800 N   0  0  1  0  0  0  0  0  0  0  0  0
  1  2  1  6  0  0  0
  1  3  1  0  0  0  0
  1  4  2  0  0  0  0
  1  6  1  0  0  0  0
  5  6  1  0  0  0  0
  7  5  1  1  0  0  0
  7  8  1  0  0  0  0
  7  9  1  0  0  0  0
  9 10  1  6  0  0  0
  9 11  1  0  0  0  0
 11 12  1  6  0  0  0
 11 13  1  0  0  0  0
 13  8  1  6  0  0  0
 13 24  1  0  0  0  0
 14 15  1  0  0  0  0
 14 20  1  0  0  0  0
 15 16  1  1  0  0  0
 15 17  1  0  0  0  0
 18 17  1  6  0  0  0
 18 19  1  0  0  0  0
 18 24  1  0  0  0  0
 19 20  1  1  0  0  0
 19 22  1  0  0  0  0
 20 21  2  0  0  0  0
 22 23  1  0  0  0  0
 24 23  1  1  0  0  0
M  CHG  1   3  -1
M  END
>  <CHROM.1>
70.38180261,-177.06098673,-167.61887422,-146.33279742,-10.65711068,-7.69352451
12.03037174,2.30823273,1.20989711,-1.97138022

>  <Name>
ligand

>  <RI>
0

>  <Rbt.Current_Directory>
/home/itssahil/PROJECTS/Mol_Feturizer/New_Systems/rnas/3SLQ

>  <Rbt.Executable>
rbdock ($Id: //depot/dev/client3/rdock/2013.1/src/exe/rbdock.cxx#4 $)

>  <Rbt.Library>
libRbt.so (2013.1, Build901 2013/11/27)

>  <Rbt.Parameter_File>
/export/apps/rDock/src/rDock_2013.1_src/data/scripts/dock_solv.prm

>  <Rbt.Receptor>
prm/pocket_docking_8.prm

>  <SCORE>
-14.2938

>  <SCORE.INTER>
-8.57244

>  <SCORE.INTER.CONST>
1

>  <SCORE.INTER.POLAR>
0

>  <SCORE.INTER.ROT>
4

>  <SCORE.INTER.SOLV>
10.8153

>  <SCORE.INTER.VDW>
-15.5867

>  <SCORE.INTER.norm>
-0.357185

>  <SCORE.INTRA>
-5.72141

>  <SCORE.INTRA.DIHEDRAL>
-11.0948

>  <SCORE.INTRA.DIHEDRAL.0>
13.2525

>  <SCORE.INTRA.POLAR>
0

>  <SCORE.INTRA.POLAR.0>
0

>  <SCORE.INTRA.REPUL>
0

>  <SCORE.INTRA.REPUL.0>
0

>  <SCORE.INTRA.SOLV>
0.129566

>  <SCORE.INTRA.SOLV.lig_0>
-70.7221

>  <SCORE.INTRA.VDW>
-0.238805

>  <SCORE.INTRA.VDW.0>
-1.46337

>  <SCORE.INTRA.norm>
-0.238392

>  <SCORE.RESTR>
0

>  <SCORE.RESTR.CAVITY>
0

>  <SCORE.RESTR.norm>
0

>  <SCORE.SYSTEM>
0

>  <SCORE.SYSTEM.CONST>
0

>  <SCORE.SYSTEM.DIHEDRAL>
0

>  <SCORE.SYSTEM.SOLV>
0

>  <SCORE.SYSTEM.norm>
0

>  <SCORE.heavy>
24

>  <SCORE.norm>
-0.595577

>  <RMSD>
8.784

$$$$
ligand
 OpenBabel11021811483D
libRbt.so/2013.1/901 2013/11/27
 24 26  0  0  0  0  0  0  0  0999 V2000
  -11.3536   -5.2939    8.8796 P   0  0  1  0  0  0  0  0  0  0  0  0
  -11.8001   -4.9799   10.2915 O   0  0  0  0  0  0  0  0  0  0  0  0
  -12.2800   -6.1619    8.0610 O   0  5  0  0  0  0  0  0  0  0  0  0
  -10.8457   -4.0851    8.1078 O   0  0  0  0  0  0  0  0  0  0  0  0
   -9.1933   -6.2381   10.2043 C   0  0  0  0  0  0  0  0  0  0  0  0
  -10.0954   -6.2995    9.0859 O   0  0  0  0  0  0  0  0  0  0  0  0
   -9.9011   -6.7266   11.4717 C   0  0  1  0  0  0  0  0  0  0  0  0
  -10.5958   -7.9611   11.2538 O   0  0  0  0  0  0  0  0  0  0  0  0
   -8.9855   -6.9749   12.6582 C   0  0  1  0  0  0  0  0  0  0  0  0
   -8.8900   -5.7734   13.4289 O   0  0  0  0  0  0  0  0  0  0  0  0
   -9.6991   -8.0749   13.4270 C   0  0  1  0  0  0  0  0  0  0  0  0
  -10.7265   -7.5201   14.2606 O   0  0  0  0  0  0  0  0  0  0  0  0
  -10.4175   -8.8651   12.3513 C   0  0  2  0  0  0  0  0  0  0  0  0
   -7.5014  -12.8223   13.7271 N   0  0  0  0  0  0  0  0  0  0  0  0
   -8.1323  -11.9099   14.5009 C   0  0  1  0  0  0  0  0  0  0  0  0
   -8.0257  -11.9989   15.8459 N   0  0  0  0  0  0  0  0  0  0  0  0
   -8.8642  -10.9147   13.9477 N   0  0  0  0  0  0  0  0  0  0  0  0
   -8.9667  -10.8304   12.5996 C   0  0  1  0  0  0  0  0  0  0  0  0
   -8.3317  -11.7475   11.7854 C   0  0  2  0  0  0  0  0  0  0  0  0
   -7.5870  -12.7603   12.3783 C   0  0  0  0  0  0  0  0  0  0  0  0
   -6.9976  -13.6088   11.6801 O   0  0  0  0  0  0  0  0  0  0  0  0
   -8.6082  -11.4080   10.5098 N   0  0  0  0  0  0  0  0  0  0  0  0
   -9.4015  -10.3117   10.5374 C   0  0  0  0  0  0  0  0  0  0  0  0
   -9.6098   -9.9762   11.8145 N   0  0  1  0  0  0  0  0  0  0  0  0
  1  2  1  1  0  0  0
  1  3  1  0  0  0  0
  1  4  2  0  0  0  0
  1  6  1  0  0  0  0
  5  6  1  0  0  0  0
  7  5  1  6  0  0  0
  7  8  1  0  0  0  0
  7  9  1  0  0  0  0
  9 10  1  1  0  0  0
  9 11  1  0  0  0  0
 11 12  1  1  0  0  0
 11 13  1  0  0  0  0
 13  8  1  6  0  0  0
 13 24  1  0  0  0  0
 14 15  1  0  0  0  0
 14 20  1  0  0  0  0
 15 16  1  6  0  0  0
 15 17  1  0  0  0  0
 18 17  1  1  0  0  0
 18 19  1  0  0  0  0
 18 24  1  0  0  0  0
 19 20  1  6  0  0  0
 19 22  1  0  0  0  0
 20 21  2  0  0  0  0
 22 23  1  0  0  0  0
 24 23  1  1  0  0  0
M  CHG  1   3  -1
M  END
>  <CHROM.1>
-32.11853531,47.82907345,71.67491960,162.80559608,-9.60232171,-8.57079507
11.57548063,-2.96265227,-1.19601599,1.23358539

>  <Name>
ligand

>  <RI>
0

>  <Rbt.Current_Directory>
/home/itssahil/PROJECTS/Mol_Feturizer/New_Systems/rnas/3SLQ

>  <Rbt.Executable>
rbdock ($Id: //depot/dev/client3/rdock/2013.1/src/exe/rbdock.cxx#4 $)

>  <Rbt.Library>
libRbt.so (2013.1, Build901 2013/11/27)

>  <Rbt.Parameter_File>
/export/apps/rDock/src/rDock_2013.1_src/data/scripts/dock_solv.prm

>  <Rbt.Receptor>
prm/pocket_docking_8.prm

>  <SCORE>
-13.692

>  <SCORE.INTER>
-9.16799

>  <SCORE.INTER.CONST>
1

>  <SCORE.INTER.POLAR>
0

>  <SCORE.INTER.ROT>
4

>  <SCORE.INTER.SOLV>
12.4107

>  <SCORE.INTER.VDW>
-16.5155

>  <SCORE.INTER.norm>
-0.382

>  <SCORE.INTRA>
-4.524

>  <SCORE.INTRA.DIHEDRAL>
-9.82506

>  <SCORE.INTRA.DIHEDRAL.0>
13.2525

>  <SCORE.INTRA.POLAR>
0

>  <SCORE.INTRA.POLAR.0>
0

>  <SCORE.INTRA.REPUL>
0

>  <SCORE.INTRA.REPUL.0>
0

>  <SCORE.INTRA.SOLV>
0.858064

>  <SCORE.INTRA.SOLV.lig_0>
-70.7221

>  <SCORE.INTRA.VDW>
-0.040503

>  <SCORE.INTRA.VDW.0>
-1.46337

>  <SCORE.INTRA.norm>
-0.1885

>  <SCORE.RESTR>
0

>  <SCORE.RESTR.CAVITY>
0

>  <SCORE.RESTR.norm>
0

>  <SCORE.SYSTEM>
0

>  <SCORE.SYSTEM.CONST>
0

>  <SCORE.SYSTEM.DIHEDRAL>
0

>  <SCORE.SYSTEM.SOLV>
0

>  <SCORE.SYSTEM.norm>
0

>  <SCORE.heavy>
24

>  <SCORE.norm>
-0.5705

>  <RMSD>
8.788

$$$$
ligand
 OpenBabel11021811483D
libRbt.so/2013.1/901 2013/11/27
 24 26  0  0  0  0  0  0  0  0999 V2000
  -11.2199   -7.3404    7.0880 P   0  0  1  0  0  0  0  0  0  0  0  0
  -10.1955   -6.2761    6.7572 O   0  0  0  0  0  0  0  0  0  0  0  0
  -12.4871   -7.3296    6.2659 O   0  5  0  0  0  0  0  0  0  0  0  0
  -10.6339   -8.7354    7.2467 O   0  0  0  0  0  0  0  0  0  0  0  0
  -10.9687   -6.6834    9.6993 C   0  0  0  0  0  0  0  0  0  0  0  0
  -11.7929   -6.8886    8.5388 O   0  0  0  0  0  0  0  0  0  0  0  0
  -10.3840   -8.0200   10.1657 C   0  0  1  0  0  0  0  0  0  0  0  0
   -9.4224   -7.8458   11.2140 O   0  0  0  0  0  0  0  0  0  0  0  0
  -11.4035   -9.0090   10.7043 C   0  0  1  0  0  0  0  0  0  0  0  0
  -11.8671   -9.8288    9.6274 O   0  0  0  0  0  0  0  0  0  0  0  0
  -10.6073   -9.8164   11.7164 C   0  0  1  0  0  0  0  0  0  0  0  0
   -9.8624  -10.8517   11.0594 O   0  0  0  0  0  0  0  0  0  0  0  0
   -9.5797   -8.8331   12.2407 C   0  0  2  0  0  0  0  0  0  0  0  0
   -9.5758   -8.8919   17.3449 N   0  0  0  0  0  0  0  0  0  0  0  0
   -9.0486   -9.7834   16.4749 C   0  0  1  0  0  0  0  0  0  0  0  0
   -8.4057  -10.8721   16.9544 N   0  0  0  0  0  0  0  0  0  0  0  0
   -9.1571   -9.5995   15.1383 N   0  0  0  0  0  0  0  0  0  0  0  0
   -9.8029   -8.5073   14.6642 C   0  0  1  0  0  0  0  0  0  0  0  0
  -10.3521   -7.5817   15.5296 C   0  0  2  0  0  0  0  0  0  0  0  0
  -10.2263   -7.7932   16.8976 C   0  0  0  0  0  0  0  0  0  0  0  0
  -10.7075   -6.9826   17.7136 O   0  0  0  0  0  0  0  0  0  0  0  0
  -10.9262   -6.6217   14.7760 N   0  0  0  0  0  0  0  0  0  0  0  0
  -10.7287   -6.9442   13.4764 C   0  0  0  0  0  0  0  0  0  0  0  0
  -10.0438   -8.0912   13.4278 N   0  0  1  0  0  0  0  0  0  0  0  0
  1  2  1  6  0  0  0
  1  3  1  0  0  0  0
  1  4  2  0  0  0  0
  1  6  1  0  0  0  0
  5  6  1  0  0  0  0
  7  5  1  1  0  0  0
  7  8  1  0  0  0  0
  7  9  1  0  0  0  0
  9 10  1  6  0  0  0
  9 11  1  0  0  0  0
 11 12  1  6  0  0  0
 11 13  1  0  0  0  0
 13  8  1  6  0  0  0
 13 24  1  0  0  0  0
 14 15  1  0  0  0  0
 14 20  1  0  0  0  0
 15 16  1  6  0  0  0
 15 17  1  0  0  0  0
 18 17  1  1  0  0  0
 18 19  1  0  0  0  0
 18 24  1  0  0  0  0
 19 20  1  1  0  0  0
 19 22  1  0  0  0  0
 20 21  2  0  0  0  0
 22 23  1  0  0  0  0
 24 23  1  1  0  0  0
M  CHG  1   3  -1
M  END
>  <CHROM.1>
-56.47733609,172.61202587,-67.75708394,-152.45591395,-10.46172485,-8.23997038
11.84470570,2.10448015,1.23737787,-1.96142452

>  <Name>
ligand

>  <RI>
0

>  <Rbt.Current_Directory>
/home/itssahil/PROJECTS/Mol_Feturizer/New_Systems/rnas/3SLQ

>  <Rbt.Executable>
rbdock ($Id: //depot/dev/client3/rdock/2013.1/src/exe/rbdock.cxx#4 $)

>  <Rbt.Library>
libRbt.so (2013.1, Build901 2013/11/27)

>  <Rbt.Parameter_File>
/export/apps/rDock/src/rDock_2013.1_src/data/scripts/dock_solv.prm

>  <Rbt.Receptor>
prm/pocket_docking_8.prm

>  <SCORE>
-14.5735

>  <SCORE.INTER>
-9.46616

>  <SCORE.INTER.CONST>
1

>  <SCORE.INTER.POLAR>
0

>  <SCORE.INTER.ROT>
4

>  <SCORE.INTER.SOLV>
10.2321

>  <SCORE.INTER.VDW>
-15.9881

>  <SCORE.INTER.norm>
-0.394423

>  <SCORE.INTRA>
-5.1073

>  <SCORE.INTRA.DIHEDRAL>
-11.5208

>  <SCORE.INTRA.DIHEDRAL.0>
13.2525

>  <SCORE.INTRA.POLAR>
0

>  <SCORE.INTRA.POLAR.0>
0

>  <SCORE.INTRA.REPUL>
0

>  <SCORE.INTRA.REPUL.0>
0

>  <SCORE.INTRA.SOLV>
3.30128

>  <SCORE.INTRA.SOLV.lig_0>
-70.7221

>  <SCORE.INTRA.VDW>
-0.997551

>  <SCORE.INTRA.VDW.0>
-1.46337

>  <SCORE.INTRA.norm>
-0.212804

>  <SCORE.RESTR>
0

>  <SCORE.RESTR.CAVITY>
0

>  <SCORE.RESTR.norm>
0

>  <SCORE.SYSTEM>
0

>  <SCORE.SYSTEM.CONST>
0

>  <SCORE.SYSTEM.DIHEDRAL>
0

>  <SCORE.SYSTEM.SOLV>
0

>  <SCORE.SYSTEM.norm>
0

>  <SCORE.heavy>
24

>  <SCORE.norm>
-0.607227

>  <RMSD>
8.800

$$$$
ligand
 OpenBabel11021811483D
libRbt.so/2013.1/901 2013/11/27
 24 26  0  0  0  0  0  0  0  0999 V2000
  -12.1022   -4.6553    8.4867 P   0  0  1  0  0  0  0  0  0  0  0  0
  -10.9362   -3.9330    7.8463 O   0  0  0  0  0  0  0  0  0  0  0  0
  -12.6212   -4.0749    9.7812 O   0  5  0  0  0  0  0  0  0  0  0  0
  -13.2165   -5.0150    7.5152 O   0  0  0  0  0  0  0  0  0  0  0  0
  -10.4365   -6.1251   10.0290 C   0  0  0  0  0  0  0  0  0  0  0  0
  -11.4528   -6.0471    9.0145 O   0  0  0  0  0  0  0  0  0  0  0  0
  -10.0922   -7.5909   10.3095 C   0  0  1  0  0  0  0  0  0  0  0  0
   -9.2106   -7.7275   11.4312 O   0  0  0  0  0  0  0  0  0  0  0  0
  -11.2859   -8.4793   10.6154 C   0  0  1  0  0  0  0  0  0  0  0  0
  -11.7667   -9.0461    9.3930 O   0  0  0  0  0  0  0  0  0  0  0  0
  -10.7049   -9.5432   11.5323 C   0  0  1  0  0  0  0  0  0  0  0  0
  -10.0617  -10.5709   10.7653 O   0  0  0  0  0  0  0  0  0  0  0  0
   -9.5966   -8.8212   12.2728 C   0  0  2  0  0  0  0  0  0  0  0  0
   -9.3762   -9.2791   17.3520 N   0  0  0  0  0  0  0  0  0  0  0  0
   -8.8372  -10.0673   16.3940 C   0  0  1  0  0  0  0  0  0  0  0  0
   -8.1152  -11.1505   16.7599 N   0  0  0  0  0  0  0  0  0  0  0  0
   -9.0114   -9.7860   15.0815 N   0  0  0  0  0  0  0  0  0  0  0  0
   -9.7361   -8.6998   14.7213 C   0  0  1  0  0  0  0  0  0  0  0  0
  -10.2994   -7.8787   15.6782 C   0  0  2  0  0  0  0  0  0  0  0  0
  -10.1049   -8.1889   17.0191 C   0  0  0  0  0  0  0  0  0  0  0  0
  -10.5960   -7.4743   17.9151 O   0  0  0  0  0  0  0  0  0  0  0  0
  -10.9569   -6.8981   15.0263 N   0  0  0  0  0  0  0  0  0  0  0  0
  -10.7962   -7.1057   13.6986 C   0  0  0  0  0  0  0  0  0  0  0  0
  -10.0512   -8.2031   13.5323 N   0  0  1  0  0  0  0  0  0  0  0  0
  1  2  1  6  0  0  0
  1  3  1  0  0  0  0
  1  4  2  0  0  0  0
  1  6  1  0  0  0  0
  5  6  1  0  0  0  0
  7  5  1  1  0  0  0
  7  8  1  0  0  0  0
  7  9  1  0  0  0  0
  9 10  1  6  0  0  0
  9 11  1  0  0  0  0
 11 12  1  6  0  0  0
 11 13  1  0  0  0  0
 13  8  1  6  0  0  0
 13 24  1  0  0  0  0
 14 15  1  0  0  0  0
 14 20  1  0  0  0  0
 15 16  1  6  0  0  0
 15 17  1  0  0  0  0
 18 17  1  1  0  0  0
 18 19  1  0  0  0  0
 18 24  1  0  0  0  0
 19 20  1  6  0  0  0
 19 22  1  0  0  0  0
 20 21  2  0  0  0  0
 22 23  1  0  0  0  0
 24 23  1  1  0  0  0
M  CHG  1   3  -1
M  END
>  <CHROM.1>
64.00280876,-172.53597807,178.15101136,-138.12697291,-10.60058858,-7.54330980
12.23237059,2.37534035,1.19367633,-1.87470555

>  <Name>
ligand

>  <RI>
0

>  <Rbt.Current_Directory>
/home/itssahil/PROJECTS/Mol_Feturizer/New_Systems/rnas/3SLQ

>  <Rbt.Executable>
rbdock ($Id: //depot/dev/client3/rdock/2013.1/src/exe/rbdock.cxx#4 $)

>  <Rbt.Library>
libRbt.so (2013.1, Build901 2013/11/27)

>  <Rbt.Parameter_File>
/export/apps/rDock/src/rDock_2013.1_src/data/scripts/dock_solv.prm

>  <Rbt.Receptor>
prm/pocket_docking_7.prm

>  <SCORE>
-14.3872

>  <SCORE.INTER>
-8.25727

>  <SCORE.INTER.CONST>
1

>  <SCORE.INTER.POLAR>
0

>  <SCORE.INTER.ROT>
4

>  <SCORE.INTER.SOLV>
13.8086

>  <SCORE.INTER.VDW>
-16.3744

>  <SCORE.INTER.norm>
-0.344053

>  <SCORE.INTRA>
-6.12995

>  <SCORE.INTRA.DIHEDRAL>
-11.7923

>  <SCORE.INTRA.DIHEDRAL.0>
13.2525

>  <SCORE.INTRA.POLAR>
0

>  <SCORE.INTRA.POLAR.0>
0

>  <SCORE.INTRA.REPUL>
0

>  <SCORE.INTRA.REPUL.0>
0

>  <SCORE.INTRA.SOLV>
0.197526

>  <SCORE.INTRA.SOLV.lig_0>
-70.7221

>  <SCORE.INTRA.VDW>
-0.332568

>  <SCORE.INTRA.VDW.0>
-1.46337

>  <SCORE.INTRA.norm>
-0.255415

>  <SCORE.RESTR>
0

>  <SCORE.RESTR.CAVITY>
0

>  <SCORE.RESTR.norm>
0

>  <SCORE.SYSTEM>
0

>  <SCORE.SYSTEM.CONST>
0

>  <SCORE.SYSTEM.DIHEDRAL>
0

>  <SCORE.SYSTEM.SOLV>
0

>  <SCORE.SYSTEM.norm>
0

>  <SCORE.heavy>
24

>  <SCORE.norm>
-0.599468

>  <RMSD>
8.801

$$$$
ligand
 OpenBabel11021811483D
libRbt.so/2013.1/901 2013/11/27
 24 26  0  0  0  0  0  0  0  0999 V2000
   -9.6136   -5.4668    8.0506 P   0  0  1  0  0  0  0  0  0  0  0  0
   -8.6251   -4.3465    8.2938 O   0  0  0  0  0  0  0  0  0  0  0  0
  -10.9419   -5.0703    7.4504 O   0  5  0  0  0  0  0  0  0  0  0  0
   -9.0083   -6.6918    7.3814 O   0  0  0  0  0  0  0  0  0  0  0  0
   -9.1583   -6.1451   10.6286 C   0  0  0  0  0  0  0  0  0  0  0  0
  -10.0728   -5.9090    9.5441 O   0  0  0  0  0  0  0  0  0  0  0  0
   -9.9144   -6.7138   11.8330 C   0  0  1  0  0  0  0  0  0  0  0  0
  -10.6063   -7.9255   11.5060 O   0  0  0  0  0  0  0  0  0  0  0  0
   -9.0441   -7.0492   13.0321 C   0  0  1  0  0  0  0  0  0  0  0  0
   -8.9712   -5.9038   13.8863 O   0  0  0  0  0  0  0  0  0  0  0  0
   -9.7905   -8.1939   13.6974 C   0  0  1  0  0  0  0  0  0  0  0  0
  -10.8452   -7.6900   14.5293 O   0  0  0  0  0  0  0  0  0  0  0  0
  -10.4727   -8.9036   12.5448 C   0  0  2  0  0  0  0  0  0  0  0  0
   -7.4788  -12.8562   13.7572 N   0  0  0  0  0  0  0  0  0  0  0  0
   -8.1183  -11.9824   14.5676 C   0  0  1  0  0  0  0  0  0  0  0  0
   -7.9988  -12.1167   15.9079 N   0  0  0  0  0  0  0  0  0  0  0  0
   -8.8716  -10.9811   14.0556 N   0  0  0  0  0  0  0  0  0  0  0  0
   -8.9870  -10.8514   12.7123 C   0  0  1  0  0  0  0  0  0  0  0  0
   -8.3436  -11.7283   11.8612 C   0  0  2  0  0  0  0  0  0  0  0  0
   -7.5770  -12.7485   12.4122 C   0  0  0  0  0  0  0  0  0  0  0  0
   -6.9794  -13.5618   11.6799 O   0  0  0  0  0  0  0  0  0  0  0  0
   -8.6368  -11.3491   10.6006 N   0  0  0  0  0  0  0  0  0  0  0  0
   -9.4481  -10.2682   10.6731 C   0  0  0  0  0  0  0  0  0  0  0  0
   -9.6510   -9.9813   11.9628 N   0  0  1  0  0  0  0  0  0  0  0  0
  1  2  1  1  0  0  0
  1  3  1  0  0  0  0
  1  4  2  0  0  0  0
  1  6  1  0  0  0  0
  5  6  1  0  0  0  0
  7  5  1  6  0  0  0
  7  8  1  0  0  0  0
  7  9  1  0  0  0  0
  9 10  1  1  0  0  0
  9 11  1  0  0  0  0
 11 12  1  1  0  0  0
 11 13  1  0  0  0  0
 13  8  1  6  0  0  0
 13 24  1  0  0  0  0
 14 15  1  0  0  0  0
 14 20  1  0  0  0  0
 15 16  1  6  0  0  0
 15 17  1  0  0  0  0
 18 17  1  1  0  0  0
 18 19  1  0  0  0  0
 18 24  1  0  0  0  0
 19 20  1  6  0  0  0
 19 22  1  0  0  0  0
 20 21  2  0  0  0  0
 22 23  1  0  0  0  0
 24 23  1  1  0  0  0
M  CHG  1   3  -1
M  END
>  <CHROM.1>
-47.13270575,57.63638391,-172.86938110,159.34950208,-9.18170065,-8.62929395
11.51006117,-2.16438323,-1.23523091,1.93252565

>  <Name>
ligand

>  <RI>
0

>  <Rbt.Current_Directory>
/home/itssahil/PROJECTS/Mol_Feturizer/New_Systems/rnas/3SLQ

>  <Rbt.Executable>
rbdock ($Id: //depot/dev/client3/rdock/2013.1/src/exe/rbdock.cxx#4 $)

>  <Rbt.Library>
libRbt.so (2013.1, Build901 2013/11/27)

>  <Rbt.Parameter_File>
/export/apps/rDock/src/rDock_2013.1_src/data/scripts/dock_solv.prm

>  <Rbt.Receptor>
prm/pocket_docking_8.prm

>  <SCORE>
-14.1644

>  <SCORE.INTER>
-8.36486

>  <SCORE.INTER.CONST>
1

>  <SCORE.INTER.POLAR>
0

>  <SCORE.INTER.ROT>
4

>  <SCORE.INTER.SOLV>
12.6327

>  <SCORE.INTER.VDW>
-16.0541

>  <SCORE.INTER.norm>
-0.348536

>  <SCORE.INTRA>
-5.79952

>  <SCORE.INTRA.DIHEDRAL>
-11.5361

>  <SCORE.INTRA.DIHEDRAL.0>
13.2525

>  <SCORE.INTRA.POLAR>
0

>  <SCORE.INTRA.POLAR.0>
0

>  <SCORE.INTRA.REPUL>
0

>  <SCORE.INTRA.REPUL.0>
0

>  <SCORE.INTRA.SOLV>
-0.137677

>  <SCORE.INTRA.SOLV.lig_0>
-70.7221

>  <SCORE.INTRA.VDW>
0.0373486

>  <SCORE.INTRA.VDW.0>
-1.46337

>  <SCORE.INTRA.norm>
-0.241647

>  <SCORE.RESTR>
0

>  <SCORE.RESTR.CAVITY>
0

>  <SCORE.RESTR.norm>
0

>  <SCORE.SYSTEM>
0

>  <SCORE.SYSTEM.CONST>
0

>  <SCORE.SYSTEM.DIHEDRAL>
0

>  <SCORE.SYSTEM.SOLV>
0

>  <SCORE.SYSTEM.norm>
0

>  <SCORE.heavy>
24

>  <SCORE.norm>
-0.590183

>  <RMSD>
8.819

$$$$
ligand
 OpenBabel11021811483D
libRbt.so/2013.1/901 2013/11/27
 24 26  0  0  0  0  0  0  0  0999 V2000
  -12.0790   -5.4712    7.7593 P   0  0  1  0  0  0  0  0  0  0  0  0
  -10.8648   -5.2216    6.8906 O   0  0  0  0  0  0  0  0  0  0  0  0
  -12.4058   -4.4040    8.7773 O   0  5  0  0  0  0  0  0  0  0  0  0
  -13.3034   -5.9448    6.9904 O   0  0  0  0  0  0  0  0  0  0  0  0
  -10.6742   -6.5434    9.8064 C   0  0  0  0  0  0  0  0  0  0  0  0
  -11.6170   -6.6883    8.7301 O   0  0  0  0  0  0  0  0  0  0  0  0
  -10.1821   -7.9220   10.2569 C   0  0  1  0  0  0  0  0  0  0  0  0
   -9.2794   -7.8310   11.3663 O   0  0  0  0  0  0  0  0  0  0  0  0
  -11.2778   -8.8780   10.6968 C   0  0  1  0  0  0  0  0  0  0  0  0
  -11.7124   -9.6368    9.5645 O   0  0  0  0  0  0  0  0  0  0  0  0
  -10.5836   -9.7574   11.7239 C   0  0  1  0  0  0  0  0  0  0  0  0
   -9.8490  -10.8048   11.0744 O   0  0  0  0  0  0  0  0  0  0  0  0
   -9.5453   -8.8440   12.3445 C   0  0  2  0  0  0  0  0  0  0  0  0
   -9.6653   -8.9646   17.4462 N   0  0  0  0  0  0  0  0  0  0  0  0
   -9.1077   -9.8400   16.5789 C   0  0  1  0  0  0  0  0  0  0  0  0
   -8.4652  -10.9277   17.0610 N   0  0  0  0  0  0  0  0  0  0  0  0
   -9.1854   -9.6411   15.2423 N   0  0  0  0  0  0  0  0  0  0  0  0
   -9.8310   -8.5499   14.7654 C   0  0  1  0  0  0  0  0  0  0  0  0
  -10.4110   -7.6405   15.6280 C   0  0  2  0  0  0  0  0  0  0  0  0
  -10.3163   -7.8673   16.9961 C   0  0  0  0  0  0  0  0  0  0  0  0
  -10.8259   -7.0716   17.8096 O   0  0  0  0  0  0  0  0  0  0  0  0
  -10.9766   -6.6775   14.8720 N   0  0  0  0  0  0  0  0  0  0  0  0
  -10.7441   -6.9822   13.5740 C   0  0  0  0  0  0  0  0  0  0  0  0
  -10.0460   -8.1213   13.5286 N   0  0  1  0  0  0  0  0  0  0  0  0
  1  2  1  6  0  0  0
  1  3  1  0  0  0  0
  1  4  2  0  0  0  0
  1  6  1  0  0  0  0
  5  6  1  0  0  0  0
  7  5  1  1  0  0  0
  7  8  1  0  0  0  0
  7  9  1  0  0  0  0
  9 10  1  6  0  0  0
  9 11  1  0  0  0  0
 11 12  1  6  0  0  0
 11 13  1  0  0  0  0
 13  8  1  6  0  0  0
 13 24  1  0  0  0  0
 14 15  1  0  0  0  0
 14 20  1  0  0  0  0
 15 16  1  6  0  0  0
 15 17  1  0  0  0  0
 18 17  1  1  0  0  0
 18 19  1  0  0  0  0
 18 24  1  0  0  0  0
 19 20  1  6  0  0  0
 19 22  1  0  0  0  0
 20 21  2  0  0  0  0
 22 23  1  0  0  0  0
 24 23  1  1  0  0  0
M  CHG  1   3  -1
M  END
>  <CHROM.1>
72.21566910,-177.64458633,-164.55995795,-148.30446340,-10.65859947,-7.75904197
12.07683364,2.25974039,1.18948319,-1.89529510

>  <Name>
ligand

>  <RI>
0

>  <Rbt.Current_Directory>
/home/itssahil/PROJECTS/Mol_Feturizer/New_Systems/rnas/3SLQ

>  <Rbt.Executable>
rbdock ($Id: //depot/dev/client3/rdock/2013.1/src/exe/rbdock.cxx#4 $)

>  <Rbt.Library>
libRbt.so (2013.1, Build901 2013/11/27)

>  <Rbt.Parameter_File>
/export/apps/rDock/src/rDock_2013.1_src/data/scripts/dock_solv.prm

>  <Rbt.Receptor>
prm/pocket_docking_8.prm

>  <SCORE>
-14.2433

>  <SCORE.INTER>
-8.78544

>  <SCORE.INTER.CONST>
1

>  <SCORE.INTER.POLAR>
0

>  <SCORE.INTER.ROT>
4

>  <SCORE.INTER.SOLV>
10.812

>  <SCORE.INTER.VDW>
-15.7276

>  <SCORE.INTER.norm>
-0.36606

>  <SCORE.INTRA>
-5.45791

>  <SCORE.INTRA.DIHEDRAL>
-10.6577

>  <SCORE.INTRA.DIHEDRAL.0>
13.2525

>  <SCORE.INTRA.POLAR>
0

>  <SCORE.INTRA.POLAR.0>
0

>  <SCORE.INTRA.REPUL>
0

>  <SCORE.INTRA.REPUL.0>
0

>  <SCORE.INTRA.SOLV>
0.133578

>  <SCORE.INTRA.SOLV.lig_0>
-70.7221

>  <SCORE.INTRA.VDW>
-0.195872

>  <SCORE.INTRA.VDW.0>
-1.46337

>  <SCORE.INTRA.norm>
-0.227413

>  <SCORE.RESTR>
0

>  <SCORE.RESTR.CAVITY>
0

>  <SCORE.RESTR.norm>
0

>  <SCORE.SYSTEM>
0

>  <SCORE.SYSTEM.CONST>
0

>  <SCORE.SYSTEM.DIHEDRAL>
0

>  <SCORE.SYSTEM.SOLV>
0

>  <SCORE.SYSTEM.norm>
0

>  <SCORE.heavy>
24

>  <SCORE.norm>
-0.593473

>  <RMSD>
8.848

$$$$
ligand
 OpenBabel11021811483D
libRbt.so/2013.1/901 2013/11/27
 24 26  0  0  0  0  0  0  0  0999 V2000
  -12.0747   -4.7241    8.5643 P   0  0  1  0  0  0  0  0  0  0  0  0
  -12.6467   -4.0687    9.8032 O   0  0  0  0  0  0  0  0  0  0  0  0
  -13.0739   -5.2981    7.5875 O   0  5  0  0  0  0  0  0  0  0  0  0
  -10.9850   -3.9113    7.8812 O   0  0  0  0  0  0  0  0  0  0  0  0
  -10.3741   -6.1031   10.1517 C   0  0  0  0  0  0  0  0  0  0  0  0
  -11.3841   -6.0814    9.1281 O   0  0  0  0  0  0  0  0  0  0  0  0
   -9.9933   -7.5505   10.4769 C   0  0  1  0  0  0  0  0  0  0  0  0
   -9.1786   -7.6374   11.6528 O   0  0  0  0  0  0  0  0  0  0  0  0
  -11.1696   -8.4797   10.7233 C   0  0  1  0  0  0  0  0  0  0  0  0
  -11.5519   -9.0817    9.4830 O   0  0  0  0  0  0  0  0  0  0  0  0
  -10.6073   -9.5075   11.6916 C   0  0  1  0  0  0  0  0  0  0  0  0
   -9.8796  -10.5205   10.9826 O   0  0  0  0  0  0  0  0  0  0  0  0
   -9.5750   -8.7332   12.4869 C   0  0  2  0  0  0  0  0  0  0  0  0
   -9.6705   -9.1233   17.5756 N   0  0  0  0  0  0  0  0  0  0  0  0
   -9.0456   -9.9048   16.6655 C   0  0  1  0  0  0  0  0  0  0  0  0
   -8.3149  -10.9595   17.0924 N   0  0  0  0  0  0  0  0  0  0  0  0
   -9.1431   -9.6450   15.3407 N   0  0  0  0  0  0  0  0  0  0  0  0
   -9.8770   -8.5873   14.9193 C   0  0  1  0  0  0  0  0  0  0  0  0
  -10.5269   -7.7737   15.8264 C   0  0  2  0  0  0  0  0  0  0  0  0
  -10.4102   -8.0615   17.1812 C   0  0  0  0  0  0  0  0  0  0  0  0
  -10.9809   -7.3526   18.0337 O   0  0  0  0  0  0  0  0  0  0  0  0
  -11.1715   -6.8228   15.1198 N   0  0  0  0  0  0  0  0  0  0  0  0
  -10.9185   -7.0408   13.8082 C   0  0  0  0  0  0  0  0  0  0  0  0
  -10.1298   -8.1152   13.7057 N   0  0  1  0  0  0  0  0  0  0  0  0
  1  2  1  1  0  0  0
  1  3  1  0  0  0  0
  1  4  2  0  0  0  0
  1  6  1  0  0  0  0
  5  6  1  0  0  0  0
  7  5  1  1  0  0  0
  7  8  1  0  0  0  0
  7  9  1  0  0  0  0
  9 10  1  6  0  0  0
  9 11  1  0  0  0  0
 11 12  1  6  0  0  0
 11 13  1  0  0  0  0
 13  8  1  6  0  0  0
 13 24  1  0  0  0  0
 14 15  1  0  0  0  0
 14 20  1  0  0  0  0
 15 16  1  6  0  0  0
 15 17  1  0  0  0  0
 18 17  1  1  0  0  0
 18 19  1  0  0  0  0
 18 24  1  0  0  0  0
 19 20  1  6  0  0  0
 19 22  1  0  0  0  0
 20 21  2  0  0  0  0
 22 23  1  0  0  0  0
 24 23  1  1  0  0  0
M  CHG  1   3  -1
M  END
>  <CHROM.1>
-56.57743554,-169.26144139,177.62665654,-138.51926301,-10.64552207,-7.50024242
12.38061440,2.20272303,1.16434637,-1.72626488

>  <Name>
ligand

>  <RI>
0

>  <Rbt.Current_Directory>
/home/itssahil/PROJECTS/Mol_Feturizer/New_Systems/rnas/3SLQ

>  <Rbt.Executable>
rbdock ($Id: //depot/dev/client3/rdock/2013.1/src/exe/rbdock.cxx#4 $)

>  <Rbt.Library>
libRbt.so (2013.1, Build901 2013/11/27)

>  <Rbt.Parameter_File>
/export/apps/rDock/src/rDock_2013.1_src/data/scripts/dock_solv.prm

>  <Rbt.Receptor>
prm/pocket_docking_7.prm

>  <SCORE>
-14.5359

>  <SCORE.INTER>
-8.31587

>  <SCORE.INTER.CONST>
1

>  <SCORE.INTER.POLAR>
0

>  <SCORE.INTER.ROT>
4

>  <SCORE.INTER.SOLV>
13.0945

>  <SCORE.INTER.VDW>
-16.1754

>  <SCORE.INTER.norm>
-0.346495

>  <SCORE.INTRA>
-6.22002

>  <SCORE.INTRA.DIHEDRAL>
-11.5814

>  <SCORE.INTRA.DIHEDRAL.0>
13.2525

>  <SCORE.INTRA.POLAR>
0

>  <SCORE.INTRA.POLAR.0>
0

>  <SCORE.INTRA.REPUL>
0

>  <SCORE.INTRA.REPUL.0>
0

>  <SCORE.INTRA.SOLV>
0.0535276

>  <SCORE.INTRA.SOLV.lig_0>
-70.7221

>  <SCORE.INTRA.VDW>
-0.456085

>  <SCORE.INTRA.VDW.0>
-1.46337

>  <SCORE.INTRA.norm>
-0.259167

>  <SCORE.RESTR>
0

>  <SCORE.RESTR.CAVITY>
0

>  <SCORE.RESTR.norm>
0

>  <SCORE.SYSTEM>
0

>  <SCORE.SYSTEM.CONST>
0

>  <SCORE.SYSTEM.DIHEDRAL>
0

>  <SCORE.SYSTEM.SOLV>
0

>  <SCORE.SYSTEM.norm>
0

>  <SCORE.heavy>
24

>  <SCORE.norm>
-0.605662

>  <RMSD>
8.856

$$$$
ligand
 OpenBabel11021811483D
libRbt.so/2013.1/901 2013/11/27
 24 26  0  0  0  0  0  0  0  0999 V2000
   -9.0636   -7.8457    6.7830 P   0  0  1  0  0  0  0  0  0  0  0  0
   -7.7695   -8.0882    6.0359 O   0  0  0  0  0  0  0  0  0  0  0  0
   -9.6475   -6.4564    6.6790 O   0  5  0  0  0  0  0  0  0  0  0  0
  -10.1051   -8.9373    6.5874 O   0  0  0  0  0  0  0  0  0  0  0  0
   -7.3946   -7.3099    8.8424 C   0  0  0  0  0  0  0  0  0  0  0  0
   -8.6201   -7.8746    8.3450 O   0  0  0  0  0  0  0  0  0  0  0  0
   -7.3017   -7.5194   10.3568 C   0  0  1  0  0  0  0  0  0  0  0  0
   -7.6191   -8.8661   10.7304 O   0  0  0  0  0  0  0  0  0  0  0  0
   -5.9346   -7.2385   10.9568 C   0  0  1  0  0  0  0  0  0  0  0  0
   -5.8772   -5.8659   11.3560 O   0  0  0  0  0  0  0  0  0  0  0  0
   -5.8805   -8.1705   12.1563 C   0  0  1  0  0  0  0  0  0  0  0  0
   -6.5582   -7.5861   13.2777 O   0  0  0  0  0  0  0  0  0  0  0  0
   -6.7224   -9.3582   11.7341 C   0  0  2  0  0  0  0  0  0  0  0  0
   -6.0405  -14.4131   11.5357 N   0  0  0  0  0  0  0  0  0  0  0  0
   -6.8786  -13.6889   12.3120 C   0  0  1  0  0  0  0  0  0  0  0  0
   -7.6899  -14.3299   13.1835 N   0  0  0  0  0  0  0  0  0  0  0  0
   -6.9138  -12.3385   12.2274 N   0  0  0  0  0  0  0  0  0  0  0  0
   -6.0982  -11.7022   11.3529 C   0  0  1  0  0  0  0  0  0  0  0  0
   -5.2314  -12.4163   10.5492 C   0  0  2  0  0  0  0  0  0  0  0  0
   -5.2152  -13.8022   10.6548 C   0  0  0  0  0  0  0  0  0  0  0  0
   -4.4478  -14.4851    9.9480 O   0  0  0  0  0  0  0  0  0  0  0  0
   -4.5545  -11.5230    9.7991 N   0  0  0  0  0  0  0  0  0  0  0  0
   -4.9992  -10.2876   10.1273 C   0  0  0  0  0  0  0  0  0  0  0  0
   -5.9371  -10.4159   11.0711 N   0  0  1  0  0  0  0  0  0  0  0  0
  1  2  1  6  0  0  0
  1  3  1  0  0  0  0
  1  4  2  0  0  0  0
  1  6  1  0  0  0  0
  5  6  1  0  0  0  0
  7  5  1  6  0  0  0
  7  8  1  0  0  0  0
  7  9  1  0  0  0  0
  9 10  1  1  0  0  0
  9 11  1  0  0  0  0
 11 12  1  1  0  0  0
 11 13  1  0  0  0  0
 13  8  1  6  0  0  0
 13 24  1  0  0  0  0
 14 15  1  0  0  0  0
 14 20  1  0  0  0  0
 15 16  1  1  0  0  0
 15 17  1  0  0  0  0
 18 17  1  6  0  0  0
 18 19  1  0  0  0  0
 18 24  1  0  0  0  0
 19 20  1  1  0  0  0
 19 22  1  0  0  0  0
 20 21  2  0  0  0  0
 22 23  1  0  0  0  0
 24 23  1  6  0  0  0
M  CHG  1   3  -1
M  END
>  <CHROM.1>
38.78891251,47.06926442,-179.89126908,-108.91806991,-6.95074322,-9.80557704
10.02456273,2.46904128,-1.09483732,0.25536138

>  <Name>
ligand

>  <RI>
0

>  <Rbt.Current_Directory>
/home/itssahil/PROJECTS/Mol_Feturizer/New_Systems/rnas/3SLQ

>  <Rbt.Executable>
rbdock ($Id: //depot/dev/client3/rdock/2013.1/src/exe/rbdock.cxx#4 $)

>  <Rbt.Library>
libRbt.so (2013.1, Build901 2013/11/27)

>  <Rbt.Parameter_File>
/export/apps/rDock/src/rDock_2013.1_src/data/scripts/dock_solv.prm

>  <Rbt.Receptor>
prm/pocket_docking_7.prm

>  <SCORE>
-13.411

>  <SCORE.INTER>
-7.72825

>  <SCORE.INTER.CONST>
1

>  <SCORE.INTER.POLAR>
0

>  <SCORE.INTER.ROT>
4

>  <SCORE.INTER.SOLV>
18.6921

>  <SCORE.INTER.VDW>
-17.6495

>  <SCORE.INTER.norm>
-0.32201

>  <SCORE.INTRA>
-5.6828

>  <SCORE.INTRA.DIHEDRAL>
-10.8153

>  <SCORE.INTRA.DIHEDRAL.0>
13.2525

>  <SCORE.INTRA.POLAR>
0

>  <SCORE.INTRA.POLAR.0>
0

>  <SCORE.INTRA.REPUL>
0

>  <SCORE.INTRA.REPUL.0>
0

>  <SCORE.INTRA.SOLV>
-0.144362

>  <SCORE.INTRA.SOLV.lig_0>
-70.7221

>  <SCORE.INTRA.VDW>
-0.202959

>  <SCORE.INTRA.VDW.0>
-1.46337

>  <SCORE.INTRA.norm>
-0.236783

>  <SCORE.RESTR>
0

>  <SCORE.RESTR.CAVITY>
0

>  <SCORE.RESTR.norm>
0

>  <SCORE.SYSTEM>
0

>  <SCORE.SYSTEM.CONST>
0

>  <SCORE.SYSTEM.DIHEDRAL>
0

>  <SCORE.SYSTEM.SOLV>
0

>  <SCORE.SYSTEM.norm>
0

>  <SCORE.heavy>
24

>  <SCORE.norm>
-0.558794

>  <RMSD>
8.868

$$$$
ligand
 OpenBabel11021811483D
libRbt.so/2013.1/901 2013/11/27
 24 26  0  0  0  0  0  0  0  0999 V2000
  -10.5327   -8.8336   10.7643 P   0  0  1  0  0  0  0  0  0  0  0  0
  -11.2906   -7.6328   10.2396 O   0  0  0  0  0  0  0  0  0  0  0  0
  -11.1342  -10.1874   10.4688 O   0  5  0  0  0  0  0  0  0  0  0  0
   -9.0355   -8.7848   10.4988 O   0  0  0  0  0  0  0  0  0  0  0  0
  -10.4112   -7.5984   13.1670 C   0  0  0  0  0  0  0  0  0  0  0  0
  -10.7416   -8.7508   12.3726 O   0  0  0  0  0  0  0  0  0  0  0  0
  -10.7616   -7.8599   14.6349 C   0  0  1  0  0  0  0  0  0  0  0  0
   -9.9060   -8.8494   15.2205 O   0  0  0  0  0  0  0  0  0  0  0  0
  -10.6630   -6.6443   15.5406 C   0  0  1  0  0  0  0  0  0  0  0  0
  -11.9334   -5.9874   15.5740 O   0  0  0  0  0  0  0  0  0  0  0  0
  -10.3093   -7.2426   16.8924 C   0  0  1  0  0  0  0  0  0  0  0  0
  -11.4896   -7.7155   17.5570 O   0  0  0  0  0  0  0  0  0  0  0  0
   -9.5038   -8.4787   16.5450 C   0  0  2  0  0  0  0  0  0  0  0  0
   -4.9220  -10.6195   17.2389 N   0  0  0  0  0  0  0  0  0  0  0  0
   -6.1536  -11.1415   17.4393 C   0  0  1  0  0  0  0  0  0  0  0  0
   -6.2666  -12.4143   17.8818 N   0  0  0  0  0  0  0  0  0  0  0  0
   -7.2671  -10.4089   17.2038 N   0  0  0  0  0  0  0  0  0  0  0  0
   -7.1473   -9.1343   16.7612 C   0  0  1  0  0  0  0  0  0  0  0  0
   -5.9024   -8.5753   16.5496 C   0  0  2  0  0  0  0  0  0  0  0  0
   -4.7746   -9.3489   16.7980 C   0  0  0  0  0  0  0  0  0  0  0  0
   -3.6318   -8.8831   16.6202 O   0  0  0  0  0  0  0  0  0  0  0  0
   -6.0994   -7.3115   16.1218 N   0  0  0  0  0  0  0  0  0  0  0  0
   -7.4349   -7.0991   16.0638 C   0  0  0  0  0  0  0  0  0  0  0  0
   -8.0552   -8.2171   16.4542 N   0  0  1  0  0  0  0  0  0  0  0  0
  1  2  1  6  0  0  0
  1  3  1  0  0  0  0
  1  4  2  0  0  0  0
  1  6  1  0  0  0  0
  5  6  1  0  0  0  0
  7  5  1  6  0  0  0
  7  8  1  0  0  0  0
  7  9  1  0  0  0  0
  9 10  1  1  0  0  0
  9 11  1  0  0  0  0
 11 12  1  6  0  0  0
 11 13  1  0  0  0  0
 13  8  1  6  0  0  0
 13 24  1  0  0  0  0
 14 15  1  0  0  0  0
 14 20  1  0  0  0  0
 15 16  1  1  0  0  0
 15 17  1  0  0  0  0
 18 17  1  6  0  0  0
 18 19  1  0  0  0  0
 18 24  1  0  0  0  0
 19 20  1  1  0  0  0
 19 22  1  0  0  0  0
 20 21  2  0  0  0  0
 22 23  1  0  0  0  0
 24 23  1  6  0  0  0
M  CHG  1   3  -1
M  END
>  <CHROM.1>
-54.98821203,68.69122507,178.96355790,-96.02756563,-8.75595871,-8.65054730
14.85658819,-2.42759697,-0.49654241,1.30760175

>  <Name>
ligand

>  <RI>
0

>  <Rbt.Current_Directory>
/home/itssahil/PROJECTS/Mol_Feturizer/New_Systems/rnas/3SLQ

>  <Rbt.Executable>
rbdock ($Id: //depot/dev/client3/rdock/2013.1/src/exe/rbdock.cxx#4 $)

>  <Rbt.Library>
libRbt.so (2013.1, Build901 2013/11/27)

>  <Rbt.Parameter_File>
/export/apps/rDock/src/rDock_2013.1_src/data/scripts/dock_solv.prm

>  <Rbt.Receptor>
prm/pocket_docking_7.prm

>  <SCORE>
-15.2212

>  <SCORE.INTER>
-8.98608

>  <SCORE.INTER.CONST>
1

>  <SCORE.INTER.POLAR>
0

>  <SCORE.INTER.ROT>
4

>  <SCORE.INTER.SOLV>
10.1636

>  <SCORE.INTER.VDW>
-15.6453

>  <SCORE.INTER.norm>
-0.37442

>  <SCORE.INTRA>
-6.23514

>  <SCORE.INTRA.DIHEDRAL>
-11.7555

>  <SCORE.INTRA.DIHEDRAL.0>
13.2525

>  <SCORE.INTRA.POLAR>
0

>  <SCORE.INTRA.POLAR.0>
0

>  <SCORE.INTRA.REPUL>
0

>  <SCORE.INTRA.REPUL.0>
0

>  <SCORE.INTRA.SOLV>
-0.208117

>  <SCORE.INTRA.SOLV.lig_0>
-70.7221

>  <SCORE.INTRA.VDW>
-0.253317

>  <SCORE.INTRA.VDW.0>
-1.46337

>  <SCORE.INTRA.norm>
-0.259797

>  <SCORE.RESTR>
0

>  <SCORE.RESTR.CAVITY>
0

>  <SCORE.RESTR.norm>
0

>  <SCORE.SYSTEM>
0

>  <SCORE.SYSTEM.CONST>
0

>  <SCORE.SYSTEM.DIHEDRAL>
0

>  <SCORE.SYSTEM.SOLV>
0

>  <SCORE.SYSTEM.norm>
0

>  <SCORE.heavy>
24

>  <SCORE.norm>
-0.634217

>  <RMSD>
8.870

$$$$
ligand
 OpenBabel11021811483D
libRbt.so/2013.1/901 2013/11/27
 24 26  0  0  0  0  0  0  0  0999 V2000
  -11.1961   -5.5541    8.2186 P   0  0  1  0  0  0  0  0  0  0  0  0
  -11.6609   -4.6942    9.3745 O   0  0  0  0  0  0  0  0  0  0  0  0
  -11.5898   -5.0890    6.8364 O   0  5  0  0  0  0  0  0  0  0  0  0
   -9.7352   -5.9701    8.3050 O   0  0  0  0  0  0  0  0  0  0  0  0
  -11.5502   -8.1982    8.6622 C   0  0  0  0  0  0  0  0  0  0  0  0
  -12.0916   -6.9020    8.3541 O   0  0  0  0  0  0  0  0  0  0  0  0
  -11.4437   -8.3708   10.1803 C   0  0  1  0  0  0  0  0  0  0  0  0
  -11.2151   -9.7370   10.5480 O   0  0  0  0  0  0  0  0  0  0  0  0
  -10.3264   -7.5771   10.8357 C   0  0  1  0  0  0  0  0  0  0  0  0
  -10.8354   -6.2991   11.2290 O   0  0  0  0  0  0  0  0  0  0  0  0
   -9.9558   -8.4245   12.0418 C   0  0  1  0  0  0  0  0  0  0  0  0
  -10.8551   -8.1701   13.1303 O   0  0  0  0  0  0  0  0  0  0  0  0
  -10.2386   -9.8440   11.5914 C   0  0  2  0  0  0  0  0  0  0  0  0
   -6.3892  -13.0655   12.5185 N   0  0  0  0  0  0  0  0  0  0  0  0
   -7.3521  -12.6141   13.3542 C   0  0  1  0  0  0  0  0  0  0  0  0
   -7.3646  -13.0401   14.6375 N   0  0  0  0  0  0  0  0  0  0  0  0
   -8.2970  -11.7460   12.9235 N   0  0  0  0  0  0  0  0  0  0  0  0
   -8.2788  -11.3225   11.6369 C   0  0  1  0  0  0  0  0  0  0  0  0
   -7.3063  -11.7658   10.7623 C   0  0  2  0  0  0  0  0  0  0  0  0
   -6.3479  -12.6576   11.2292 C   0  0  0  0  0  0  0  0  0  0  0  0
   -5.4522  -13.0826   10.4729 O   0  0  0  0  0  0  0  0  0  0  0  0
   -7.5400  -11.1753    9.5724 N   0  0  0  0  0  0  0  0  0  0  0  0
   -8.6356  -10.3923    9.7086 C   0  0  0  0  0  0  0  0  0  0  0  0
   -9.0714  -10.4953   10.9682 N   0  0  1  0  0  0  0  0  0  0  0  0
  1  2  1  1  0  0  0
  1  3  1  0  0  0  0
  1  4  2  0  0  0  0
  1  6  1  0  0  0  0
  5  6  1  0  0  0  0
  7  5  1  6  0  0  0
  7  8  1  0  0  0  0
  7  9  1  0  0  0  0
  9 10  1  1  0  0  0
  9 11  1  0  0  0  0
 11 12  1  1  0  0  0
 11 13  1  0  0  0  0
 13  8  1  6  0  0  0
 13 24  1  0  0  0  0
 14 15  1  0  0  0  0
 14 20  1  0  0  0  0
 15 16  1  1  0  0  0
 15 17  1  0  0  0  0
 18 17  1  6  0  0  0
 18 19  1  0  0  0  0
 18 24  1  0  0  0  0
 19 20  1  1  0  0  0
 19 22  1  0  0  0  0
 20 21  2  0  0  0  0
 22 23  1  0  0  0  0
 24 23  1  6  0  0  0
M  CHG  1   3  -1
M  END
>  <CHROM.1>
-114.25258084,166.20391395,86.18149942,-146.47955575,-9.53666946,-9.09711738
10.52851564,-2.39815466,-0.82628134,1.97679147

>  <Name>
ligand

>  <RI>
0

>  <Rbt.Current_Directory>
/home/itssahil/PROJECTS/Mol_Feturizer/New_Systems/rnas/3SLQ

>  <Rbt.Executable>
rbdock ($Id: //depot/dev/client3/rdock/2013.1/src/exe/rbdock.cxx#4 $)

>  <Rbt.Library>
libRbt.so (2013.1, Build901 2013/11/27)

>  <Rbt.Parameter_File>
/export/apps/rDock/src/rDock_2013.1_src/data/scripts/dock_solv.prm

>  <Rbt.Receptor>
prm/pocket_docking_7.prm

>  <SCORE>
-13.2063

>  <SCORE.INTER>
-11.1355

>  <SCORE.INTER.CONST>
1

>  <SCORE.INTER.POLAR>
0

>  <SCORE.INTER.ROT>
4

>  <SCORE.INTER.SOLV>
12.0333

>  <SCORE.INTER.VDW>
-17.7014

>  <SCORE.INTER.norm>
-0.463978

>  <SCORE.INTRA>
-2.07087

>  <SCORE.INTRA.DIHEDRAL>
-6.1419

>  <SCORE.INTRA.DIHEDRAL.0>
13.2525

>  <SCORE.INTRA.POLAR>
0

>  <SCORE.INTRA.POLAR.0>
0

>  <SCORE.INTRA.REPUL>
0

>  <SCORE.INTRA.REPUL.0>
0

>  <SCORE.INTRA.SOLV>
3.66303

>  <SCORE.INTRA.SOLV.lig_0>
-70.7221

>  <SCORE.INTRA.VDW>
-0.83143

>  <SCORE.INTRA.VDW.0>
-1.46337

>  <SCORE.INTRA.norm>
-0.0862861

>  <SCORE.RESTR>
0

>  <SCORE.RESTR.CAVITY>
0

>  <SCORE.RESTR.norm>
0

>  <SCORE.SYSTEM>
0

>  <SCORE.SYSTEM.CONST>
0

>  <SCORE.SYSTEM.DIHEDRAL>
0

>  <SCORE.SYSTEM.SOLV>
0

>  <SCORE.SYSTEM.norm>
0

>  <SCORE.heavy>
24

>  <SCORE.norm>
-0.550264

>  <RMSD>
8.898

$$$$
ligand
 OpenBabel11021811483D
libRbt.so/2013.1/901 2013/11/27
 24 26  0  0  0  0  0  0  0  0999 V2000
   -6.5955   -6.1112   10.8793 P   0  0  1  0  0  0  0  0  0  0  0  0
   -6.9105   -6.2402    9.4043 O   0  0  0  0  0  0  0  0  0  0  0  0
   -5.4070   -6.8964   11.3821 O   0  5  0  0  0  0  0  0  0  0  0  0
   -6.6142   -4.6794   11.3933 O   0  0  0  0  0  0  0  0  0  0  0  0
   -9.1810   -6.4562   11.5933 C   0  0  0  0  0  0  0  0  0  0  0  0
   -7.8137   -6.9018   11.6060 O   0  0  0  0  0  0  0  0  0  0  0  0
   -9.7297   -6.4997   10.1641 C   0  0  1  0  0  0  0  0  0  0  0  0
   -9.6571   -7.8168    9.6037 O   0  0  0  0  0  0  0  0  0  0  0  0
  -11.1813   -6.0741   10.0249 C   0  0  1  0  0  0  0  0  0  0  0  0
  -11.2292   -4.6663    9.7748 O   0  0  0  0  0  0  0  0  0  0  0  0
  -11.6661   -6.8701    8.8242 C   0  0  1  0  0  0  0  0  0  0  0  0
  -11.2951   -6.2142    7.6034 O   0  0  0  0  0  0  0  0  0  0  0  0
  -10.8478   -8.1450    8.8770 C   0  0  2  0  0  0  0  0  0  0  0  0
  -14.4414  -11.7617    8.6273 N   0  0  0  0  0  0  0  0  0  0  0  0
  -14.0638  -10.8596    7.6929 C   0  0  1  0  0  0  0  0  0  0  0  0
  -14.6796  -10.8597    6.4890 N   0  0  0  0  0  0  0  0  0  0  0  0
  -13.0830   -9.9622    7.9477 N   0  0  0  0  0  0  0  0  0  0  0  0
  -12.4704   -9.9668    9.1558 C   0  0  1  0  0  0  0  0  0  0  0  0
  -12.8369  -10.8755   10.1290 C   0  0  2  0  0  0  0  0  0  0  0  0
  -13.8462  -11.7870    9.8420 C   0  0  0  0  0  0  0  0  0  0  0  0
  -14.2079  -12.6243   10.6922 O   0  0  0  0  0  0  0  0  0  0  0  0
  -12.0663  -10.6360   11.2096 N   0  0  0  0  0  0  0  0  0  0  0  0
  -11.2388   -9.6086   10.9068 C   0  0  0  0  0  0  0  0  0  0  0  0
  -11.4974   -9.2161    9.6553 N   0  0  1  0  0  0  0  0  0  0  0  0
  1  2  1  6  0  0  0
  1  3  1  0  0  0  0
  1  4  2  0  0  0  0
  1  6  1  0  0  0  0
  5  6  1  0  0  0  0
  7  5  1  1  0  0  0
  7  8  1  0  0  0  0
  7  9  1  0  0  0  0
  9 10  1  6  0  0  0
  9 11  1  0  0  0  0
 11 12  1  6  0  0  0
 11 13  1  0  0  0  0
 13  8  1  1  0  0  0
 13 24  1  0  0  0  0
 14 15  1  0  0  0  0
 14 20  1  0  0  0  0
 15 16  1  1  0  0  0
 15 17  1  0  0  0  0
 18 17  1  6  0  0  0
 18 19  1  0  0  0  0
 18 24  1  0  0  0  0
 19 20  1  1  0  0  0
 19 22  1  0  0  0  0
 20 21  2  0  0  0  0
 22 23  1  0  0  0  0
 24 23  1  6  0  0  0
M  CHG  1   3  -1
M  END
>  <CHROM.1>
-67.12783402,58.47468549,65.39508890,-165.42155656,-10.59773309,-8.18735910
9.81172302,-0.42280610,0.57428653,2.61567468

>  <Name>
ligand

>  <RI>
0

>  <Rbt.Current_Directory>
/home/itssahil/PROJECTS/Mol_Feturizer/New_Systems/rnas/3SLQ

>  <Rbt.Executable>
rbdock ($Id: //depot/dev/client3/rdock/2013.1/src/exe/rbdock.cxx#4 $)

>  <Rbt.Library>
libRbt.so (2013.1, Build901 2013/11/27)

>  <Rbt.Parameter_File>
/export/apps/rDock/src/rDock_2013.1_src/data/scripts/dock_solv.prm

>  <Rbt.Receptor>
prm/blind_docking_80.prm

>  <SCORE>
-16.5854

>  <SCORE.INTER>
-10.5488

>  <SCORE.INTER.CONST>
1

>  <SCORE.INTER.POLAR>
0

>  <SCORE.INTER.ROT>
4

>  <SCORE.INTER.SOLV>
14.5153

>  <SCORE.INTER.VDW>
-18.1376

>  <SCORE.INTER.norm>
-0.439533

>  <SCORE.INTRA>
-6.03659

>  <SCORE.INTRA.DIHEDRAL>
-11.8049

>  <SCORE.INTRA.DIHEDRAL.0>
13.2525

>  <SCORE.INTRA.POLAR>
0

>  <SCORE.INTRA.POLAR.0>
0

>  <SCORE.INTRA.REPUL>
0

>  <SCORE.INTRA.REPUL.0>
0

>  <SCORE.INTRA.SOLV>
0.982292

>  <SCORE.INTRA.SOLV.lig_0>
-70.7221

>  <SCORE.INTRA.VDW>
-0.625272

>  <SCORE.INTRA.VDW.0>
-1.46337

>  <SCORE.INTRA.norm>
-0.251524

>  <SCORE.RESTR>
0

>  <SCORE.RESTR.CAVITY>
0

>  <SCORE.RESTR.norm>
0

>  <SCORE.SYSTEM>
0

>  <SCORE.SYSTEM.CONST>
0

>  <SCORE.SYSTEM.DIHEDRAL>
0

>  <SCORE.SYSTEM.SOLV>
0

>  <SCORE.SYSTEM.norm>
0

>  <SCORE.heavy>
24

>  <SCORE.norm>
-0.691057

>  <RMSD>
8.943

$$$$
ligand
 OpenBabel11021811483D
libRbt.so/2013.1/901 2013/11/27
 24 26  0  0  0  0  0  0  0  0999 V2000
  -12.2240   -9.1482    8.0828 P   0  0  1  0  0  0  0  0  0  0  0  0
  -10.7163   -9.2449    7.9881 O   0  0  0  0  0  0  0  0  0  0  0  0
  -12.8436   -7.8535    7.6120 O   0  5  0  0  0  0  0  0  0  0  0  0
  -12.9568  -10.3749    7.5605 O   0  0  0  0  0  0  0  0  0  0  0  0
  -11.8924   -9.9216   10.6530 C   0  0  0  0  0  0  0  0  0  0  0  0
  -12.5067   -9.0594    9.6795 O   0  0  0  0  0  0  0  0  0  0  0  0
  -10.4345   -9.5058   10.8706 C   0  0  1  0  0  0  0  0  0  0  0  0
  -10.3309   -8.1787   11.4018 O   0  0  0  0  0  0  0  0  0  0  0  0
   -9.6543  -10.3922   11.8263 C   0  0  1  0  0  0  0  0  0  0  0  0
   -9.0238  -11.4366   11.0790 O   0  0  0  0  0  0  0  0  0  0  0  0
   -8.6317   -9.4427   12.4289 C   0  0  1  0  0  0  0  0  0  0  0  0
   -7.5054   -9.2952   11.5526 O   0  0  0  0  0  0  0  0  0  0  0  0
   -9.3364   -8.1006   12.4305 C   0  0  2  0  0  0  0  0  0  0  0  0
   -9.7748   -9.5656   17.3006 N   0  0  0  0  0  0  0  0  0  0  0  0
   -8.9573  -10.0372   16.3317 C   0  0  1  0  0  0  0  0  0  0  0  0
   -8.0980  -11.0396   16.6237 N   0  0  0  0  0  0  0  0  0  0  0  0
   -8.9898   -9.5208   15.0810 N   0  0  0  0  0  0  0  0  0  0  0  0
   -9.8532   -8.5172   14.7945 C   0  0  1  0  0  0  0  0  0  0  0  0
  -10.7005   -8.0175   15.7639 C   0  0  2  0  0  0  0  0  0  0  0  0
  -10.6469   -8.5645   17.0406 C   0  0  0  0  0  0  0  0  0  0  0  0
  -11.3944   -8.1430   17.9452 O   0  0  0  0  0  0  0  0  0  0  0  0
  -11.4354   -7.0439   15.1888 N   0  0  0  0  0  0  0  0  0  0  0  0
  -11.0449   -6.9407   13.8970 C   0  0  0  0  0  0  0  0  0  0  0  0
  -10.0826   -7.8419   13.6760 N   0  0  1  0  0  0  0  0  0  0  0  0
  1  2  1  6  0  0  0
  1  3  1  0  0  0  0
  1  4  2  0  0  0  0
  1  6  1  0  0  0  0
  5  6  1  0  0  0  0
  7  5  1  1  0  0  0
  7  8  1  0  0  0  0
  7  9  1  0  0  0  0
  9 10  1  6  0  0  0
  9 11  1  0  0  0  0
 11 12  1  6  0  0  0
 11 13  1  0  0  0  0
 13  8  1  6  0  0  0
 13 24  1  0  0  0  0
 14 15  1  0  0  0  0
 14 20  1  0  0  0  0
 15 16  1  6  0  0  0
 15 17  1  0  0  0  0
 18 17  1  1  0  0  0
 18 19  1  0  0  0  0
 18 24  1  0  0  0  0
 19 20  1  6  0  0  0
 19 22  1  0  0  0  0
 20 21  2  0  0  0  0
 22 23  1  0  0  0  0
 24 23  1  1  0  0  0
M  CHG  1   3  -1
M  END
>  <CHROM.1>
-46.51287861,62.70201813,75.06964046,133.03573135,-10.50212792,-9.07523262
12.39286369,1.88037786,0.60492885,-1.79287388

>  <Name>
ligand

>  <RI>
0

>  <Rbt.Current_Directory>
/home/itssahil/PROJECTS/Mol_Feturizer/New_Systems/rnas/3SLQ

>  <Rbt.Executable>
rbdock ($Id: //depot/dev/client3/rdock/2013.1/src/exe/rbdock.cxx#4 $)

>  <Rbt.Library>
libRbt.so (2013.1, Build901 2013/11/27)

>  <Rbt.Parameter_File>
/export/apps/rDock/src/rDock_2013.1_src/data/scripts/dock_solv.prm

>  <Rbt.Receptor>
prm/pocket_docking_8.prm

>  <SCORE>
-14.4396

>  <SCORE.INTER>
-9.98287

>  <SCORE.INTER.CONST>
1

>  <SCORE.INTER.POLAR>
0

>  <SCORE.INTER.ROT>
4

>  <SCORE.INTER.SOLV>
8.90308

>  <SCORE.INTER.VDW>
-15.8896

>  <SCORE.INTER.norm>
-0.415953

>  <SCORE.INTRA>
-4.45678

>  <SCORE.INTRA.DIHEDRAL>
-10.6844

>  <SCORE.INTRA.DIHEDRAL.0>
13.2525

>  <SCORE.INTRA.POLAR>
0

>  <SCORE.INTRA.POLAR.0>
0

>  <SCORE.INTRA.REPUL>
0

>  <SCORE.INTRA.REPUL.0>
0

>  <SCORE.INTRA.SOLV>
0.703781

>  <SCORE.INTRA.SOLV.lig_0>
-70.7221

>  <SCORE.INTRA.VDW>
0.533554

>  <SCORE.INTRA.VDW.0>
-1.46337

>  <SCORE.INTRA.norm>
-0.185699

>  <SCORE.RESTR>
0

>  <SCORE.RESTR.CAVITY>
0

>  <SCORE.RESTR.norm>
0

>  <SCORE.SYSTEM>
0

>  <SCORE.SYSTEM.CONST>
0

>  <SCORE.SYSTEM.DIHEDRAL>
0

>  <SCORE.SYSTEM.SOLV>
0

>  <SCORE.SYSTEM.norm>
0

>  <SCORE.heavy>
24

>  <SCORE.norm>
-0.601652

>  <RMSD>
8.949

$$$$
ligand
 OpenBabel11021811483D
libRbt.so/2013.1/901 2013/11/27
 24 26  0  0  0  0  0  0  0  0999 V2000
   -9.8958   -9.2336    6.7373 P   0  0  1  0  0  0  0  0  0  0  0  0
   -9.1132  -10.5236    6.8588 O   0  0  0  0  0  0  0  0  0  0  0  0
   -9.1156   -8.0142    6.3057 O   0  5  0  0  0  0  0  0  0  0  0  0
  -11.2170   -9.3786    5.9969 O   0  0  0  0  0  0  0  0  0  0  0  0
  -11.2793   -7.9233    8.6563 C   0  0  0  0  0  0  0  0  0  0  0  0
  -10.2435   -8.8453    8.2753 O   0  0  0  0  0  0  0  0  0  0  0  0
  -11.2489   -7.7030   10.1717 C   0  0  1  0  0  0  0  0  0  0  0  0
  -11.4464   -8.9254   10.8934 O   0  0  0  0  0  0  0  0  0  0  0  0
   -9.9530   -7.1165   10.7051 C   0  0  1  0  0  0  0  0  0  0  0  0
  -10.0590   -5.6898   10.7126 O   0  0  0  0  0  0  0  0  0  0  0  0
   -9.8697   -7.6764   12.1157 C   0  0  1  0  0  0  0  0  0  0  0  0
  -10.6646   -6.8914   13.0158 O   0  0  0  0  0  0  0  0  0  0  0  0
  -10.5606   -9.0219   12.0157 C   0  0  2  0  0  0  0  0  0  0  0  0
   -7.4657  -12.5027   14.1043 N   0  0  0  0  0  0  0  0  0  0  0  0
   -8.2174  -11.5513   14.7037 C   0  0  1  0  0  0  0  0  0  0  0  0
   -8.2026  -11.4512   16.0522 N   0  0  0  0  0  0  0  0  0  0  0  0
   -8.9792  -10.7034   13.9737 N   0  0  0  0  0  0  0  0  0  0  0  0
   -8.9893  -10.8083   12.6233 C   0  0  1  0  0  0  0  0  0  0  0  0
   -8.2303  -11.7693   11.9848 C   0  0  2  0  0  0  0  0  0  0  0  0
   -7.4573  -12.6282   12.7573 C   0  0  0  0  0  0  0  0  0  0  0  0
   -6.7572  -13.5098   12.2212 O   0  0  0  0  0  0  0  0  0  0  0  0
   -8.4378  -11.6270   10.6598 N   0  0  0  0  0  0  0  0  0  0  0  0
   -9.3104  -10.6071   10.4861 C   0  0  0  0  0  0  0  0  0  0  0  0
   -9.6355  -10.1231   11.6891 N   0  0  1  0  0  0  0  0  0  0  0  0
  1  2  1  6  0  0  0
  1  3  1  0  0  0  0
  1  4  2  0  0  0  0
  1  6  1  0  0  0  0
  5  6  1  0  0  0  0
  7  5  1  6  0  0  0
  7  8  1  0  0  0  0
  7  9  1  0  0  0  0
  9 10  1  1  0  0  0
  9 11  1  0  0  0  0
 11 12  1  1  0  0  0
 11 13  1  0  0  0  0
 13  8  1  6  0  0  0
 13 24  1  0  0  0  0
 14 15  1  0  0  0  0
 14 20  1  0  0  0  0
 15 16  1  6  0  0  0
 15 17  1  0  0  0  0
 18 17  1  1  0  0  0
 18 19  1  0  0  0  0
 18 24  1  0  0  0  0
 19 20  1  6  0  0  0
 19 22  1  0  0  0  0
 20 21  2  0  0  0  0
 22 23  1  0  0  0  0
 24 23  1  1  0  0  0
M  CHG  1   3  -1
M  END
>  <CHROM.1>
-161.57864907,-59.65041278,-175.13452238,-156.28131825,-9.48823843,-9.67156852
10.66277647,-2.22997201,-1.07698764,1.43555698

>  <Name>
ligand

>  <RI>
0

>  <Rbt.Current_Directory>
/home/itssahil/PROJECTS/Mol_Feturizer/New_Systems/rnas/3SLQ

>  <Rbt.Executable>
rbdock ($Id: //depot/dev/client3/rdock/2013.1/src/exe/rbdock.cxx#4 $)

>  <Rbt.Library>
libRbt.so (2013.1, Build901 2013/11/27)

>  <Rbt.Parameter_File>
/export/apps/rDock/src/rDock_2013.1_src/data/scripts/dock_solv.prm

>  <Rbt.Receptor>
prm/pocket_docking_6.prm

>  <SCORE>
-19.34

>  <SCORE.INTER>
-13.0854

>  <SCORE.INTER.CONST>
1

>  <SCORE.INTER.POLAR>
0

>  <SCORE.INTER.ROT>
4

>  <SCORE.INTER.SOLV>
17.6121

>  <SCORE.INTER.VDW>
-20.861

>  <SCORE.INTER.norm>
-0.545227

>  <SCORE.INTRA>
-6.25456

>  <SCORE.INTRA.DIHEDRAL>
-11.3959

>  <SCORE.INTRA.DIHEDRAL.0>
13.2525

>  <SCORE.INTRA.POLAR>
0

>  <SCORE.INTRA.POLAR.0>
0

>  <SCORE.INTRA.REPUL>
0

>  <SCORE.INTRA.REPUL.0>
0

>  <SCORE.INTRA.SOLV>
0.629847

>  <SCORE.INTRA.SOLV.lig_0>
-70.7221

>  <SCORE.INTRA.VDW>
-0.871536

>  <SCORE.INTRA.VDW.0>
-1.46337

>  <SCORE.INTRA.norm>
-0.260606

>  <SCORE.RESTR>
0

>  <SCORE.RESTR.CAVITY>
0

>  <SCORE.RESTR.norm>
0

>  <SCORE.SYSTEM>
0

>  <SCORE.SYSTEM.CONST>
0

>  <SCORE.SYSTEM.DIHEDRAL>
0

>  <SCORE.SYSTEM.SOLV>
0

>  <SCORE.SYSTEM.norm>
0

>  <SCORE.heavy>
24

>  <SCORE.norm>
-0.805833

>  <RMSD>
8.974

$$$$
ligand
 OpenBabel11021811483D
libRbt.so/2013.1/901 2013/11/27
 24 26  0  0  0  0  0  0  0  0999 V2000
   -9.8424   -9.1553    6.7316 P   0  0  1  0  0  0  0  0  0  0  0  0
   -9.0225   -8.0000    6.1980 O   0  0  0  0  0  0  0  0  0  0  0  0
  -11.2386   -9.3005    6.1734 O   0  5  0  0  0  0  0  0  0  0  0  0
   -9.0898  -10.4764    6.7838 O   0  0  0  0  0  0  0  0  0  0  0  0
  -11.0682   -7.6611    8.6232 C   0  0  0  0  0  0  0  0  0  0  0  0
  -10.1688   -8.7238    8.2627 O   0  0  0  0  0  0  0  0  0  0  0  0
  -11.0345   -7.4419   10.1387 C   0  0  1  0  0  0  0  0  0  0  0  0
  -11.3345   -8.6439   10.8593 O   0  0  0  0  0  0  0  0  0  0  0  0
   -9.7014   -6.9586   10.6838 C   0  0  1  0  0  0  0  0  0  0  0  0
   -9.6946   -5.5280   10.6894 O   0  0  0  0  0  0  0  0  0  0  0  0
   -9.6755   -7.5215   12.0954 C   0  0  1  0  0  0  0  0  0  0  0  0
  -10.4143   -6.6751   12.9877 O   0  0  0  0  0  0  0  0  0  0  0  0
  -10.4694   -8.8085   11.9898 C   0  0  2  0  0  0  0  0  0  0  0  0
   -7.7108  -12.5435   14.1104 N   0  0  0  0  0  0  0  0  0  0  0  0
   -8.3940  -11.5375   14.7026 C   0  0  1  0  0  0  0  0  0  0  0  0
   -8.3976  -11.4472   16.0518 N   0  0  0  0  0  0  0  0  0  0  0  0
   -9.0695  -10.6257   13.9647 N   0  0  0  0  0  0  0  0  0  0  0  0
   -9.0615  -10.7211   12.6136 C   0  0  1  0  0  0  0  0  0  0  0  0
   -8.3710  -11.7370   11.9823 C   0  0  2  0  0  0  0  0  0  0  0  0
   -7.6862  -12.6610   12.7628 C   0  0  0  0  0  0  0  0  0  0  0  0
   -7.0500  -13.5936   12.2335 O   0  0  0  0  0  0  0  0  0  0  0  0
   -8.5401  -11.5701   10.6548 N   0  0  0  0  0  0  0  0  0  0  0  0
   -9.3230  -10.4812   10.4723 C   0  0  0  0  0  0  0  0  0  0  0  0
   -9.6310   -9.9796   11.6725 N   0  0  1  0  0  0  0  0  0  0  0  0
  1  2  1  6  0  0  0
  1  3  1  0  0  0  0
  1  4  2  0  0  0  0
  1  6  1  0  0  0  0
  5  6  1  0  0  0  0
  7  5  1  6  0  0  0
  7  8  1  0  0  0  0
  7  9  1  0  0  0  0
  9 10  1  1  0  0  0
  9 11  1  0  0  0  0
 11 12  1  1  0  0  0
 11 13  1  0  0  0  0
 13  8  1  6  0  0  0
 13 24  1  0  0  0  0
 14 15  1  0  0  0  0
 14 20  1  0  0  0  0
 15 16  1  6  0  0  0
 15 17  1  0  0  0  0
 18 17  1  1  0  0  0
 18 19  1  0  0  0  0
 18 24  1  0  0  0  0
 19 20  1  6  0  0  0
 19 22  1  0  0  0  0
 20 21  2  0  0  0  0
 22 23  1  0  0  0  0
 24 23  1  1  0  0  0
M  CHG  1   3  -1
M  END
>  <CHROM.1>
70.42637328,-55.87337451,-174.58935513,-155.52541475,-9.46664222,-9.57065349
10.65142436,-2.25737370,-1.16084772,1.40243780

>  <Name>
ligand

>  <RI>
0

>  <Rbt.Current_Directory>
/home/itssahil/PROJECTS/Mol_Feturizer/New_Systems/rnas/3SLQ

>  <Rbt.Executable>
rbdock ($Id: //depot/dev/client3/rdock/2013.1/src/exe/rbdock.cxx#4 $)

>  <Rbt.Library>
libRbt.so (2013.1, Build901 2013/11/27)

>  <Rbt.Parameter_File>
/export/apps/rDock/src/rDock_2013.1_src/data/scripts/dock_solv.prm

>  <Rbt.Receptor>
prm/pocket_docking_7.prm

>  <SCORE>
-18.365

>  <SCORE.INTER>
-11.9108

>  <SCORE.INTER.CONST>
1

>  <SCORE.INTER.POLAR>
0

>  <SCORE.INTER.ROT>
4

>  <SCORE.INTER.SOLV>
19.7633

>  <SCORE.INTER.VDW>
-20.7949

>  <SCORE.INTER.norm>
-0.496282

>  <SCORE.INTRA>
-6.45426

>  <SCORE.INTRA.DIHEDRAL>
-11.6508

>  <SCORE.INTRA.DIHEDRAL.0>
13.2525

>  <SCORE.INTRA.POLAR>
0

>  <SCORE.INTRA.POLAR.0>
0

>  <SCORE.INTRA.REPUL>
0

>  <SCORE.INTRA.REPUL.0>
0

>  <SCORE.INTRA.SOLV>
0.332701

>  <SCORE.INTRA.SOLV.lig_0>
-70.7221

>  <SCORE.INTRA.VDW>
-0.795225

>  <SCORE.INTRA.VDW.0>
-1.46337

>  <SCORE.INTRA.norm>
-0.268928

>  <SCORE.RESTR>
0

>  <SCORE.RESTR.CAVITY>
0

>  <SCORE.RESTR.norm>
0

>  <SCORE.SYSTEM>
0

>  <SCORE.SYSTEM.CONST>
0

>  <SCORE.SYSTEM.DIHEDRAL>
0

>  <SCORE.SYSTEM.SOLV>
0

>  <SCORE.SYSTEM.norm>
0

>  <SCORE.heavy>
24

>  <SCORE.norm>
-0.765209

>  <RMSD>
8.974

$$$$
ligand
 OpenBabel11021811483D
libRbt.so/2013.1/901 2013/11/27
 24 26  0  0  0  0  0  0  0  0999 V2000
  -10.0357   -9.1225    6.7237 P   0  0  1  0  0  0  0  0  0  0  0  0
   -9.1024   -8.0137    6.2868 O   0  0  0  0  0  0  0  0  0  0  0  0
  -11.4273   -9.0977    6.1366 O   0  5  0  0  0  0  0  0  0  0  0  0
   -9.4085  -10.5082    6.6913 O   0  0  0  0  0  0  0  0  0  0  0  0
  -11.2517   -7.7304    8.6978 C   0  0  0  0  0  0  0  0  0  0  0  0
  -10.3533   -8.7716    8.2772 O   0  0  0  0  0  0  0  0  0  0  0  0
  -11.1282   -7.5151   10.2092 C   0  0  1  0  0  0  0  0  0  0  0  0
  -11.3541   -8.7260   10.9417 O   0  0  0  0  0  0  0  0  0  0  0  0
   -9.7753   -7.0020   10.6719 C   0  0  1  0  0  0  0  0  0  0  0  0
   -9.8018   -5.5716   10.6835 O   0  0  0  0  0  0  0  0  0  0  0  0
   -9.6477   -7.5684   12.0766 C   0  0  1  0  0  0  0  0  0  0  0  0
  -10.3487   -6.7424   13.0171 O   0  0  0  0  0  0  0  0  0  0  0  0
  -10.4163   -8.8735   12.0151 C   0  0  2  0  0  0  0  0  0  0  0  0
   -7.5104  -12.5993   13.9467 N   0  0  0  0  0  0  0  0  0  0  0  0
   -8.1853  -11.6169   14.5862 C   0  0  1  0  0  0  0  0  0  0  0  0
   -8.1349  -11.5525   15.9359 N   0  0  0  0  0  0  0  0  0  0  0  0
   -8.9058  -10.7032   13.8947 N   0  0  0  0  0  0  0  0  0  0  0  0
   -8.9520  -10.7727   12.5427 C   0  0  1  0  0  0  0  0  0  0  0  0
   -8.2712  -11.7640   11.8638 C   0  0  2  0  0  0  0  0  0  0  0  0
   -7.5393  -12.6906   12.5972 C   0  0  0  0  0  0  0  0  0  0  0  0
   -6.9099  -13.6016   12.0239 O   0  0  0  0  0  0  0  0  0  0  0  0
   -8.4976  -11.5748   10.5478 N   0  0  0  0  0  0  0  0  0  0  0  0
   -9.3054  -10.4965   10.4191 C   0  0  0  0  0  0  0  0  0  0  0  0
   -9.5721  -10.0234   11.6406 N   0  0  1  0  0  0  0  0  0  0  0  0
  1  2  1  6  0  0  0
  1  3  1  0  0  0  0
  1  4  2  0  0  0  0
  1  6  1  0  0  0  0
  5  6  1  0  0  0  0
  7  5  1  6  0  0  0
  7  8  1  0  0  0  0
  7  9  1  0  0  0  0
  9 10  1  1  0  0  0
  9 11  1  0  0  0  0
 11 12  1  1  0  0  0
 11 13  1  0  0  0  0
 13  8  1  6  0  0  0
 13 24  1  0  0  0  0
 14 15  1  0  0  0  0
 14 20  1  0  0  0  0
 15 16  1  6  0  0  0
 15 17  1  0  0  0  0
 18 17  1  1  0  0  0
 18 19  1  0  0  0  0
 18 24  1  0  0  0  0
 19 20  1  6  0  0  0
 19 22  1  0  0  0  0
 20 21  2  0  0  0  0
 22 23  1  0  0  0  0
 24 23  1  1  0  0  0
M  CHG  1   3  -1
M  END
>  <CHROM.1>
76.08187903,-55.79672791,-170.16842859,-153.94966401,-9.47672633,-9.60121490
10.61322635,-2.35624411,-1.13076177,1.33106805

>  <Name>
ligand

>  <RI>
0

>  <Rbt.Current_Directory>
/home/itssahil/PROJECTS/Mol_Feturizer/New_Systems/rnas/3SLQ

>  <Rbt.Executable>
rbdock ($Id: //depot/dev/client3/rdock/2013.1/src/exe/rbdock.cxx#4 $)

>  <Rbt.Library>
libRbt.so (2013.1, Build901 2013/11/27)

>  <Rbt.Parameter_File>
/export/apps/rDock/src/rDock_2013.1_src/data/scripts/dock_solv.prm

>  <Rbt.Receptor>
prm/pocket_docking_8.prm

>  <SCORE>
-17.7667

>  <SCORE.INTER>
-11.6321

>  <SCORE.INTER.CONST>
1

>  <SCORE.INTER.POLAR>
0

>  <SCORE.INTER.ROT>
4

>  <SCORE.INTER.SOLV>
18.0834

>  <SCORE.INTER.VDW>
-20.0492

>  <SCORE.INTER.norm>
-0.484671

>  <SCORE.INTRA>
-6.13464

>  <SCORE.INTRA.DIHEDRAL>
-11.0978

>  <SCORE.INTRA.DIHEDRAL.0>
13.2525

>  <SCORE.INTRA.POLAR>
0

>  <SCORE.INTRA.POLAR.0>
0

>  <SCORE.INTRA.REPUL>
0

>  <SCORE.INTRA.REPUL.0>
0

>  <SCORE.INTRA.SOLV>
0.346655

>  <SCORE.INTRA.SOLV.lig_0>
-70.7221

>  <SCORE.INTRA.VDW>
-0.759092

>  <SCORE.INTRA.VDW.0>
-1.46337

>  <SCORE.INTRA.norm>
-0.25561

>  <SCORE.RESTR>
0

>  <SCORE.RESTR.CAVITY>
0

>  <SCORE.RESTR.norm>
0

>  <SCORE.SYSTEM>
0

>  <SCORE.SYSTEM.CONST>
0

>  <SCORE.SYSTEM.DIHEDRAL>
0

>  <SCORE.SYSTEM.SOLV>
0

>  <SCORE.SYSTEM.norm>
0

>  <SCORE.heavy>
24

>  <SCORE.norm>
-0.740281

>  <RMSD>
8.984

$$$$
ligand
 OpenBabel11021811483D
libRbt.so/2013.1/901 2013/11/27
 24 26  0  0  0  0  0  0  0  0999 V2000
   -9.9404   -9.2215    6.7101 P   0  0  1  0  0  0  0  0  0  0  0  0
   -9.1950  -10.5355    6.8060 O   0  0  0  0  0  0  0  0  0  0  0  0
   -9.1218   -8.0133    6.3201 O   0  5  0  0  0  0  0  0  0  0  0  0
  -11.2560   -9.3101    5.9512 O   0  0  0  0  0  0  0  0  0  0  0  0
  -11.3179   -7.9326    8.6479 C   0  0  0  0  0  0  0  0  0  0  0  0
  -10.2957   -8.8644    8.2539 O   0  0  0  0  0  0  0  0  0  0  0  0
  -11.2586   -7.7034   10.1610 C   0  0  1  0  0  0  0  0  0  0  0  0
  -11.4430   -8.9214   10.8936 O   0  0  0  0  0  0  0  0  0  0  0  0
   -9.9526   -7.1145   10.6663 C   0  0  1  0  0  0  0  0  0  0  0  0
  -10.0577   -5.6877   10.6674 O   0  0  0  0  0  0  0  0  0  0  0  0
   -9.8427   -7.6662   12.0783 C   0  0  1  0  0  0  0  0  0  0  0  0
  -10.6199   -6.8755   12.9887 O   0  0  0  0  0  0  0  0  0  0  0  0
  -10.5360   -9.0119   11.9994 C   0  0  2  0  0  0  0  0  0  0  0  0
   -7.4813  -12.5481   14.0537 N   0  0  0  0  0  0  0  0  0  0  0  0
   -8.2289  -11.5997   14.6629 C   0  0  1  0  0  0  0  0  0  0  0  0
   -8.2212  -11.5197   16.0127 N   0  0  0  0  0  0  0  0  0  0  0  0
   -8.9796  -10.7349   13.9412 N   0  0  0  0  0  0  0  0  0  0  0  0
   -8.9827  -10.8197   12.5893 C   0  0  1  0  0  0  0  0  0  0  0  0
   -8.2276  -11.7772   11.9410 C   0  0  2  0  0  0  0  0  0  0  0  0
   -7.4660  -12.6537   12.7051 C   0  0  0  0  0  0  0  0  0  0  0  0
   -6.7699  -13.5329   12.1599 O   0  0  0  0  0  0  0  0  0  0  0  0
   -8.4262  -11.6136   10.6171 N   0  0  0  0  0  0  0  0  0  0  0  0
   -9.2896  -10.5842   10.4536 C   0  0  0  0  0  0  0  0  0  0  0  0
   -9.6178  -10.1155   11.6618 N   0  0  1  0  0  0  0  0  0  0  0  0
  1  2  1  6  0  0  0
  1  3  1  0  0  0  0
  1  4  2  0  0  0  0
  1  6  1  0  0  0  0
  5  6  1  0  0  0  0
  7  5  1  6  0  0  0
  7  8  1  0  0  0  0
  7  9  1  0  0  0  0
  9 10  1  1  0  0  0
  9 11  1  0  0  0  0
 11 12  1  1  0  0  0
 11 13  1  0  0  0  0
 13  8  1  6  0  0  0
 13 24  1  0  0  0  0
 14 15  1  0  0  0  0
 14 20  1  0  0  0  0
 15 16  1  6  0  0  0
 15 17  1  0  0  0  0
 18 17  1  1  0  0  0
 18 19  1  0  0  0  0
 18 24  1  0  0  0  0
 19 20  1  6  0  0  0
 19 22  1  0  0  0  0
 20 21  2  0  0  0  0
 22 23  1  0  0  0  0
 24 23  1  1  0  0  0
M  CHG  1   3  -1
M  END
>  <CHROM.1>
-161.03728265,-59.26723162,-172.68648483,-154.37938851,-9.49839822,-9.67568566
10.63105328,-2.24884273,-1.08218577,1.42452547

>  <Name>
ligand

>  <RI>
0

>  <Rbt.Current_Directory>
/home/itssahil/PROJECTS/Mol_Feturizer/New_Systems/rnas/3SLQ

>  <Rbt.Executable>
rbdock ($Id: //depot/dev/client3/rdock/2013.1/src/exe/rbdock.cxx#4 $)

>  <Rbt.Library>
libRbt.so (2013.1, Build901 2013/11/27)

>  <Rbt.Parameter_File>
/export/apps/rDock/src/rDock_2013.1_src/data/scripts/dock_solv.prm

>  <Rbt.Receptor>
prm/pocket_docking_6.prm

>  <SCORE>
-19.1845

>  <SCORE.INTER>
-13.0248

>  <SCORE.INTER.CONST>
1

>  <SCORE.INTER.POLAR>
0

>  <SCORE.INTER.ROT>
4

>  <SCORE.INTER.SOLV>
17.6486

>  <SCORE.INTER.VDW>
-20.8328

>  <SCORE.INTER.norm>
-0.542702

>  <SCORE.INTRA>
-6.15965

>  <SCORE.INTRA.DIHEDRAL>
-11.221

>  <SCORE.INTRA.DIHEDRAL.0>
13.2525

>  <SCORE.INTRA.POLAR>
0

>  <SCORE.INTRA.POLAR.0>
0

>  <SCORE.INTRA.REPUL>
0

>  <SCORE.INTRA.REPUL.0>
0

>  <SCORE.INTRA.SOLV>
0.661649

>  <SCORE.INTRA.SOLV.lig_0>
-70.7221

>  <SCORE.INTRA.VDW>
-0.879964

>  <SCORE.INTRA.VDW.0>
-1.46337

>  <SCORE.INTRA.norm>
-0.256652

>  <SCORE.RESTR>
0

>  <SCORE.RESTR.CAVITY>
0

>  <SCORE.RESTR.norm>
0

>  <SCORE.SYSTEM>
0

>  <SCORE.SYSTEM.CONST>
0

>  <SCORE.SYSTEM.DIHEDRAL>
0

>  <SCORE.SYSTEM.SOLV>
0

>  <SCORE.SYSTEM.norm>
0

>  <SCORE.heavy>
24

>  <SCORE.norm>
-0.799354

>  <RMSD>
8.986

$$$$
ligand
 OpenBabel11021811483D
libRbt.so/2013.1/901 2013/11/27
 24 26  0  0  0  0  0  0  0  0999 V2000
   -9.8961   -9.2443    6.7407 P   0  0  1  0  0  0  0  0  0  0  0  0
   -9.0928  -10.5217    6.8614 O   0  0  0  0  0  0  0  0  0  0  0  0
   -9.1327   -8.0093    6.3237 O   0  5  0  0  0  0  0  0  0  0  0  0
  -11.2079   -9.4070    5.9875 O   0  0  0  0  0  0  0  0  0  0  0  0
  -11.2703   -7.9154    8.6536 C   0  0  0  0  0  0  0  0  0  0  0  0
  -10.2639   -8.8716    8.2779 O   0  0  0  0  0  0  0  0  0  0  0  0
  -11.2465   -7.7030   10.1702 C   0  0  1  0  0  0  0  0  0  0  0  0
  -11.4377   -8.9305   10.8848 O   0  0  0  0  0  0  0  0  0  0  0  0
   -9.9567   -7.1100   10.7111 C   0  0  1  0  0  0  0  0  0  0  0  0
  -10.0730   -5.6841   10.7257 O   0  0  0  0  0  0  0  0  0  0  0  0
   -9.8740   -7.6768   12.1189 C   0  0  1  0  0  0  0  0  0  0  0  0
  -10.6775   -6.9024   13.0205 O   0  0  0  0  0  0  0  0  0  0  0  0
  -10.5549   -9.0267   12.0095 C   0  0  2  0  0  0  0  0  0  0  0  0
   -7.5080  -12.5532   14.0920 N   0  0  0  0  0  0  0  0  0  0  0  0
   -8.2752  -11.6164   14.6947 C   0  0  1  0  0  0  0  0  0  0  0  0
   -8.2935  -11.5476   16.0451 N   0  0  0  0  0  0  0  0  0  0  0  0
   -9.0199  -10.7522   13.9661 N   0  0  0  0  0  0  0  0  0  0  0  0
   -8.9969  -10.8258   12.6138 C   0  0  1  0  0  0  0  0  0  0  0  0
   -8.2213  -11.7712   11.9720 C   0  0  2  0  0  0  0  0  0  0  0  0
   -7.4665  -12.6474   12.7430 C   0  0  0  0  0  0  0  0  0  0  0  0
   -6.7525  -13.5159   12.2040 O   0  0  0  0  0  0  0  0  0  0  0  0
   -8.3966  -11.5984   10.6460 N   0  0  0  0  0  0  0  0  0  0  0  0
   -9.2659  -10.5752   10.4747 C   0  0  0  0  0  0  0  0  0  0  0  0
   -9.6208  -10.1194   11.6802 N   0  0  1  0  0  0  0  0  0  0  0  0
  1  2  1  6  0  0  0
  1  3  1  0  0  0  0
  1  4  2  0  0  0  0
  1  6  1  0  0  0  0
  5  6  1  0  0  0  0
  7  5  1  6  0  0  0
  7  8  1  0  0  0  0
  7  9  1  0  0  0  0
  9 10  1  1  0  0  0
  9 11  1  0  0  0  0
 11 12  1  1  0  0  0
 11 13  1  0  0  0  0
 13  8  1  6  0  0  0
 13 24  1  0  0  0  0
 14 15  1  0  0  0  0
 14 20  1  0  0  0  0
 15 16  1  6  0  0  0
 15 17  1  0  0  0  0
 18 17  1  1  0  0  0
 18 19  1  0  0  0  0
 18 24  1  0  0  0  0
 19 20  1  6  0  0  0
 19 22  1  0  0  0  0
 20 21  2  0  0  0  0
 22 23  1  0  0  0  0
 24 23  1  1  0  0  0
M  CHG  1   3  -1
M  END
>  <CHROM.1>
-165.06494671,-57.19983769,-173.92029102,-154.65435641,-9.49424488,-9.68392345
10.65938394,-2.22268725,-1.07868544,1.44861180

>  <Name>
ligand

>  <RI>
0

>  <Rbt.Current_Directory>
/home/itssahil/PROJECTS/Mol_Feturizer/New_Systems/rnas/3SLQ

>  <Rbt.Executable>
rbdock ($Id: //depot/dev/client3/rdock/2013.1/src/exe/rbdock.cxx#4 $)

>  <Rbt.Library>
libRbt.so (2013.1, Build901 2013/11/27)

>  <Rbt.Parameter_File>
/export/apps/rDock/src/rDock_2013.1_src/data/scripts/dock_solv.prm

>  <Rbt.Receptor>
prm/pocket_docking_6.prm

>  <SCORE>
-19.3563

>  <SCORE.INTER>
-13.0218

>  <SCORE.INTER.CONST>
1

>  <SCORE.INTER.POLAR>
0

>  <SCORE.INTER.ROT>
4

>  <SCORE.INTER.SOLV>
17.9992

>  <SCORE.INTER.VDW>
-20.9476

>  <SCORE.INTER.norm>
-0.542574

>  <SCORE.INTRA>
-6.3345

>  <SCORE.INTRA.DIHEDRAL>
-11.4712

>  <SCORE.INTRA.DIHEDRAL.0>
13.2525

>  <SCORE.INTRA.POLAR>
0

>  <SCORE.INTRA.POLAR.0>
0

>  <SCORE.INTRA.REPUL>
0

>  <SCORE.INTRA.REPUL.0>
0

>  <SCORE.INTRA.SOLV>
0.652128

>  <SCORE.INTRA.SOLV.lig_0>
-70.7221

>  <SCORE.INTRA.VDW>
-0.924967

>  <SCORE.INTRA.VDW.0>
-1.46337

>  <SCORE.INTRA.norm>
-0.263937

>  <SCORE.RESTR>
0

>  <SCORE.RESTR.CAVITY>
0

>  <SCORE.RESTR.norm>
0

>  <SCORE.SYSTEM>
0

>  <SCORE.SYSTEM.CONST>
0

>  <SCORE.SYSTEM.DIHEDRAL>
0

>  <SCORE.SYSTEM.SOLV>
0

>  <SCORE.SYSTEM.norm>
0

>  <SCORE.heavy>
24

>  <SCORE.norm>
-0.806511

>  <RMSD>
8.986

$$$$
ligand
 OpenBabel11021811483D
libRbt.so/2013.1/901 2013/11/27
 24 26  0  0  0  0  0  0  0  0999 V2000
   -9.8490   -9.1570    6.7300 P   0  0  1  0  0  0  0  0  0  0  0  0
   -9.0644   -7.9452    6.2746 O   0  0  0  0  0  0  0  0  0  0  0  0
  -11.2250   -9.3287    6.1309 O   0  5  0  0  0  0  0  0  0  0  0  0
   -9.0449  -10.4485    6.7357 O   0  0  0  0  0  0  0  0  0  0  0  0
  -11.2270   -7.8579    8.6605 C   0  0  0  0  0  0  0  0  0  0  0  0
  -10.2274   -8.8161    8.2720 O   0  0  0  0  0  0  0  0  0  0  0  0
  -11.1775   -7.6390   10.1756 C   0  0  1  0  0  0  0  0  0  0  0  0
  -11.4002   -8.8560   10.8990 O   0  0  0  0  0  0  0  0  0  0  0  0
   -9.8622   -7.0863   10.6976 C   0  0  1  0  0  0  0  0  0  0  0  0
   -9.9312   -5.6574   10.7061 O   0  0  0  0  0  0  0  0  0  0  0  0
   -9.7810   -7.6487   12.1073 C   0  0  1  0  0  0  0  0  0  0  0  0
  -10.5472   -6.8437   13.0145 O   0  0  0  0  0  0  0  0  0  0  0  0
  -10.5073   -8.9759   12.0133 C   0  0  2  0  0  0  0  0  0  0  0  0
   -7.4827  -12.5341   14.0741 N   0  0  0  0  0  0  0  0  0  0  0  0
   -8.2039  -11.5636   14.6801 C   0  0  1  0  0  0  0  0  0  0  0  0
   -8.1735  -11.4634   16.0283 N   0  0  0  0  0  0  0  0  0  0  0  0
   -8.9507  -10.6967   13.9570 N   0  0  0  0  0  0  0  0  0  0  0  0
   -8.9766  -10.8018   12.6068 C   0  0  1  0  0  0  0  0  0  0  0  0
   -8.2486  -11.7821   11.9616 C   0  0  2  0  0  0  0  0  0  0  0  0
   -7.4905  -12.6603   12.7271 C   0  0  0  0  0  0  0  0  0  0  0  0
   -6.8185  -13.5598   12.1848 O   0  0  0  0  0  0  0  0  0  0  0  0
   -8.4653  -11.6350   10.6386 N   0  0  0  0  0  0  0  0  0  0  0  0
   -9.3131  -10.5931   10.4727 C   0  0  0  0  0  0  0  0  0  0  0  0
   -9.6139  -10.1005   11.6785 N   0  0  1  0  0  0  0  0  0  0  0  0
  1  2  1  6  0  0  0
  1  3  1  0  0  0  0
  1  4  2  0  0  0  0
  1  6  1  0  0  0  0
  5  6  1  0  0  0  0
  7  5  1  6  0  0  0
  7  8  1  0  0  0  0
  7  9  1  0  0  0  0
  9 10  1  1  0  0  0
  9 11  1  0  0  0  0
 11 12  1  1  0  0  0
 11 13  1  0  0  0  0
 13  8  1  6  0  0  0
 13 24  1  0  0  0  0
 14 15  1  0  0  0  0
 14 20  1  0  0  0  0
 15 16  1  6  0  0  0
 15 17  1  0  0  0  0
 18 17  1  1  0  0  0
 18 19  1  0  0  0  0
 18 24  1  0  0  0  0
 19 20  1  6  0  0  0
 19 22  1  0  0  0  0
 20 21  2  0  0  0  0
 22 23  1  0  0  0  0
 24 23  1  1  0  0  0
M  CHG  1   3  -1
M  END
>  <CHROM.1>
73.78466562,-59.09616162,-171.65616481,-156.34334174,-9.45440152,-9.64373347
10.65131399,-2.24057007,-1.09797715,1.43244600

>  <Name>
ligand

>  <RI>
0

>  <Rbt.Current_Directory>
/home/itssahil/PROJECTS/Mol_Feturizer/New_Systems/rnas/3SLQ

>  <Rbt.Executable>
rbdock ($Id: //depot/dev/client3/rdock/2013.1/src/exe/rbdock.cxx#4 $)

>  <Rbt.Library>
libRbt.so (2013.1, Build901 2013/11/27)

>  <Rbt.Parameter_File>
/export/apps/rDock/src/rDock_2013.1_src/data/scripts/dock_solv.prm

>  <Rbt.Receptor>
prm/pocket_docking_6.prm

>  <SCORE>
-18.4467

>  <SCORE.INTER>
-12.1888

>  <SCORE.INTER.CONST>
1

>  <SCORE.INTER.POLAR>
0

>  <SCORE.INTER.ROT>
4

>  <SCORE.INTER.SOLV>
19.2062

>  <SCORE.INTER.VDW>
-20.7946

>  <SCORE.INTER.norm>
-0.507868

>  <SCORE.INTRA>
-6.2579

>  <SCORE.INTRA.DIHEDRAL>
-11.3891

>  <SCORE.INTRA.DIHEDRAL.0>
13.2525

>  <SCORE.INTRA.POLAR>
0

>  <SCORE.INTRA.POLAR.0>
0

>  <SCORE.INTRA.REPUL>
0

>  <SCORE.INTRA.REPUL.0>
0

>  <SCORE.INTRA.SOLV>
0.308501

>  <SCORE.INTRA.SOLV.lig_0>
-70.7221

>  <SCORE.INTRA.VDW>
-0.717609

>  <SCORE.INTRA.VDW.0>
-1.46337

>  <SCORE.INTRA.norm>
-0.260746

>  <SCORE.RESTR>
0

>  <SCORE.RESTR.CAVITY>
0

>  <SCORE.RESTR.norm>
0

>  <SCORE.SYSTEM>
0

>  <SCORE.SYSTEM.CONST>
0

>  <SCORE.SYSTEM.DIHEDRAL>
0

>  <SCORE.SYSTEM.SOLV>
0

>  <SCORE.SYSTEM.norm>
0

>  <SCORE.heavy>
24

>  <SCORE.norm>
-0.768614

>  <RMSD>
8.992

$$$$
ligand
 OpenBabel11021811483D
libRbt.so/2013.1/901 2013/11/27
 24 26  0  0  0  0  0  0  0  0999 V2000
   -9.8680   -9.1936    6.7324 P   0  0  1  0  0  0  0  0  0  0  0  0
   -9.0800   -7.9911    6.2586 O   0  0  0  0  0  0  0  0  0  0  0  0
  -11.2474   -9.3665    6.1414 O   0  5  0  0  0  0  0  0  0  0  0  0
   -9.0697  -10.4886    6.7508 O   0  0  0  0  0  0  0  0  0  0  0  0
  -11.2783   -7.9148    8.6532 C   0  0  0  0  0  0  0  0  0  0  0  0
  -10.2383   -8.8318    8.2717 O   0  0  0  0  0  0  0  0  0  0  0  0
  -11.2490   -7.6953   10.1687 C   0  0  1  0  0  0  0  0  0  0  0  0
  -11.4489   -8.9177   10.8896 O   0  0  0  0  0  0  0  0  0  0  0  0
   -9.9529   -7.1108   10.7036 C   0  0  1  0  0  0  0  0  0  0  0  0
  -10.0568   -5.6839   10.7117 O   0  0  0  0  0  0  0  0  0  0  0  0
   -9.8716   -7.6716   12.1140 C   0  0  1  0  0  0  0  0  0  0  0  0
  -10.6662   -6.8859   13.0138 O   0  0  0  0  0  0  0  0  0  0  0  0
  -10.5643   -9.0161   12.0127 C   0  0  2  0  0  0  0  0  0  0  0  0
   -7.4479  -12.4779   14.1007 N   0  0  0  0  0  0  0  0  0  0  0  0
   -8.1960  -11.5233   14.6994 C   0  0  1  0  0  0  0  0  0  0  0  0
   -8.1703  -11.4135   16.0470 N   0  0  0  0  0  0  0  0  0  0  0  0
   -8.9648  -10.6816   13.9697 N   0  0  0  0  0  0  0  0  0  0  0  0
   -8.9858  -10.7961   12.6201 C   0  0  1  0  0  0  0  0  0  0  0  0
   -8.2307  -11.7606   11.9823 C   0  0  2  0  0  0  0  0  0  0  0  0
   -7.4503  -12.6131   12.7546 C   0  0  0  0  0  0  0  0  0  0  0  0
   -6.7534  -13.4976   12.2191 O   0  0  0  0  0  0  0  0  0  0  0  0
   -8.4492  -11.6281   10.6581 N   0  0  0  0  0  0  0  0  0  0  0  0
   -9.3245  -10.6105   10.4843 C   0  0  0  0  0  0  0  0  0  0  0  0
   -9.6404  -10.1183   11.6864 N   0  0  1  0  0  0  0  0  0  0  0  0
  1  2  1  6  0  0  0
  1  3  1  0  0  0  0
  1  4  2  0  0  0  0
  1  6  1  0  0  0  0
  5  6  1  0  0  0  0
  7  5  1  6  0  0  0
  7  8  1  0  0  0  0
  7  9  1  0  0  0  0
  9 10  1  1  0  0  0
  9 11  1  0  0  0  0
 11 12  1  1  0  0  0
 11 13  1  0  0  0  0
 13  8  1  6  0  0  0
 13 24  1  0  0  0  0
 14 15  1  0  0  0  0
 14 20  1  0  0  0  0
 15 16  1  6  0  0  0
 15 17  1  0  0  0  0
 18 17  1  1  0  0  0
 18 19  1  0  0  0  0
 18 24  1  0  0  0  0
 19 20  1  6  0  0  0
 19 22  1  0  0  0  0
 20 21  2  0  0  0  0
 22 23  1  0  0  0  0
 24 23  1  1  0  0  0
M  CHG  1   3  -1
M  END
>  <CHROM.1>
77.07600770,-59.99659007,-173.78463245,-156.97684964,-9.48098695,-9.65615766
10.65967118,-2.22177036,-1.07279713,1.44472678

>  <Name>
ligand

>  <RI>
0

>  <Rbt.Current_Directory>
/home/itssahil/PROJECTS/Mol_Feturizer/New_Systems/rnas/3SLQ

>  <Rbt.Executable>
rbdock ($Id: //depot/dev/client3/rdock/2013.1/src/exe/rbdock.cxx#4 $)

>  <Rbt.Library>
libRbt.so (2013.1, Build901 2013/11/27)

>  <Rbt.Parameter_File>
/export/apps/rDock/src/rDock_2013.1_src/data/scripts/dock_solv.prm

>  <Rbt.Receptor>
prm/pocket_docking_6.prm

>  <SCORE>
-18.5941

>  <SCORE.INTER>
-12.3961

>  <SCORE.INTER.CONST>
1

>  <SCORE.INTER.POLAR>
0

>  <SCORE.INTER.ROT>
4

>  <SCORE.INTER.SOLV>
19.373

>  <SCORE.INTER.VDW>
-20.9884

>  <SCORE.INTER.norm>
-0.516503

>  <SCORE.INTRA>
-6.19798

>  <SCORE.INTRA.DIHEDRAL>
-11.3916

>  <SCORE.INTRA.DIHEDRAL.0>
13.2525

>  <SCORE.INTRA.POLAR>
0

>  <SCORE.INTRA.POLAR.0>
0

>  <SCORE.INTRA.REPUL>
0

>  <SCORE.INTRA.REPUL.0>
0

>  <SCORE.INTRA.SOLV>
0.336474

>  <SCORE.INTRA.SOLV.lig_0>
-70.7221

>  <SCORE.INTRA.VDW>
-0.670413

>  <SCORE.INTRA.VDW.0>
-1.46337

>  <SCORE.INTRA.norm>
-0.258249

>  <SCORE.RESTR>
0

>  <SCORE.RESTR.CAVITY>
0

>  <SCORE.RESTR.norm>
0

>  <SCORE.SYSTEM>
0

>  <SCORE.SYSTEM.CONST>
0

>  <SCORE.SYSTEM.DIHEDRAL>
0

>  <SCORE.SYSTEM.SOLV>
0

>  <SCORE.SYSTEM.norm>
0

>  <SCORE.heavy>
24

>  <SCORE.norm>
-0.774753

>  <RMSD>
8.993

$$$$
ligand
 OpenBabel11021811483D
libRbt.so/2013.1/901 2013/11/27
 24 26  0  0  0  0  0  0  0  0999 V2000
   -9.8283   -9.1438    6.7335 P   0  0  1  0  0  0  0  0  0  0  0  0
  -11.1578   -9.3383    6.0364 O   0  0  0  0  0  0  0  0  0  0  0  0
   -8.9779  -10.3795    6.9122 O   0  5  0  0  0  0  0  0  0  0  0  0
   -9.0322   -7.9507    6.2263 O   0  0  0  0  0  0  0  0  0  0  0  0
  -11.2803   -7.9146    8.6555 C   0  0  0  0  0  0  0  0  0  0  0  0
  -10.2403   -8.8312    8.2729 O   0  0  0  0  0  0  0  0  0  0  0  0
  -11.2503   -7.6962   10.1712 C   0  0  1  0  0  0  0  0  0  0  0  0
  -11.4475   -8.9194   10.8914 O   0  0  0  0  0  0  0  0  0  0  0  0
   -9.9549   -7.1097   10.7056 C   0  0  1  0  0  0  0  0  0  0  0  0
  -10.0614   -5.6831   10.7147 O   0  0  0  0  0  0  0  0  0  0  0  0
   -9.8716   -7.6714   12.1155 C   0  0  1  0  0  0  0  0  0  0  0  0
  -10.6669   -6.8877   13.0164 O   0  0  0  0  0  0  0  0  0  0  0  0
  -10.5619   -9.0170   12.0137 C   0  0  2  0  0  0  0  0  0  0  0  0
   -7.4981  -12.5264   14.1003 N   0  0  0  0  0  0  0  0  0  0  0  0
   -8.2536  -11.5790   14.7011 C   0  0  1  0  0  0  0  0  0  0  0  0
   -8.2527  -11.4921   16.0505 N   0  0  0  0  0  0  0  0  0  0  0  0
   -9.0055  -10.7219   13.9716 N   0  0  0  0  0  0  0  0  0  0  0  0
   -9.0018  -10.8135   12.6201 C   0  0  1  0  0  0  0  0  0  0  0  0
   -8.2385  -11.7702   11.9802 C   0  0  2  0  0  0  0  0  0  0  0  0
   -7.4760  -12.6388   12.7522 C   0  0  0  0  0  0  0  0  0  0  0  0
   -6.7726  -13.5170   12.2149 O   0  0  0  0  0  0  0  0  0  0  0  0
   -8.4318  -11.6144   10.6546 N   0  0  0  0  0  0  0  0  0  0  0  0
   -9.2999  -10.5904   10.4818 C   0  0  0  0  0  0  0  0  0  0  0  0
   -9.6363  -10.1174   11.6860 N   0  0  1  0  0  0  0  0  0  0  0  0
  1  2  1  6  0  0  0
  1  3  1  0  0  0  0
  1  4  2  0  0  0  0
  1  6  1  0  0  0  0
  5  6  1  0  0  0  0
  7  5  1  6  0  0  0
  7  8  1  0  0  0  0
  7  9  1  0  0  0  0
  9 10  1  1  0  0  0
  9 11  1  0  0  0  0
 11 12  1  1  0  0  0
 11 13  1  0  0  0  0
 13  8  1  6  0  0  0
 13 24  1  0  0  0  0
 14 15  1  0  0  0  0
 14 20  1  0  0  0  0
 15 16  1  6  0  0  0
 15 17  1  0  0  0  0
 18 17  1  1  0  0  0
 18 19  1  0  0  0  0
 18 24  1  0  0  0  0
 19 20  1  6  0  0  0
 19 22  1  0  0  0  0
 20 21  2  0  0  0  0
 22 23  1  0  0  0  0
 24 23  1  1  0  0  0
M  CHG  1   3  -1
M  END
>  <CHROM.1>
-45.57946077,-59.90469076,-171.05855762,-155.49350036,-9.47722343,-9.65381183
10.66126800,-2.19600113,-1.07429979,1.48064578

>  <Name>
ligand

>  <RI>
0

>  <Rbt.Current_Directory>
/home/itssahil/PROJECTS/Mol_Feturizer/New_Systems/rnas/3SLQ

>  <Rbt.Executable>
rbdock ($Id: //depot/dev/client3/rdock/2013.1/src/exe/rbdock.cxx#4 $)

>  <Rbt.Library>
libRbt.so (2013.1, Build901 2013/11/27)

>  <Rbt.Parameter_File>
/export/apps/rDock/src/rDock_2013.1_src/data/scripts/dock_solv.prm

>  <Rbt.Receptor>
prm/pocket_docking_6.prm

>  <SCORE>
-18.0044

>  <SCORE.INTER>
-11.6005

>  <SCORE.INTER.CONST>
1

>  <SCORE.INTER.POLAR>
0

>  <SCORE.INTER.ROT>
4

>  <SCORE.INTER.SOLV>
20.9937

>  <SCORE.INTER.VDW>
-20.9982

>  <SCORE.INTER.norm>
-0.483354

>  <SCORE.INTRA>
-6.40393

>  <SCORE.INTRA.DIHEDRAL>
-11.3154

>  <SCORE.INTRA.DIHEDRAL.0>
13.2525

>  <SCORE.INTRA.POLAR>
0

>  <SCORE.INTRA.POLAR.0>
0

>  <SCORE.INTRA.REPUL>
0

>  <SCORE.INTRA.REPUL.0>
0

>  <SCORE.INTRA.SOLV>
0.202092

>  <SCORE.INTRA.SOLV.lig_0>
-70.7221

>  <SCORE.INTRA.VDW>
-0.847294

>  <SCORE.INTRA.VDW.0>
-1.46337

>  <SCORE.INTRA.norm>
-0.26683

>  <SCORE.RESTR>
0

>  <SCORE.RESTR.CAVITY>
0

>  <SCORE.RESTR.norm>
0

>  <SCORE.SYSTEM>
0

>  <SCORE.SYSTEM.CONST>
0

>  <SCORE.SYSTEM.DIHEDRAL>
0

>  <SCORE.SYSTEM.SOLV>
0

>  <SCORE.SYSTEM.norm>
0

>  <SCORE.heavy>
24

>  <SCORE.norm>
-0.750185

>  <RMSD>
9.004

$$$$
ligand
 OpenBabel11021811483D
libRbt.so/2013.1/901 2013/11/27
 24 26  0  0  0  0  0  0  0  0999 V2000
   -9.9521   -9.0995    6.6286 P   0  0  1  0  0  0  0  0  0  0  0  0
   -9.1156   -7.8644    6.3711 O   0  0  0  0  0  0  0  0  0  0  0  0
  -11.3460   -9.0985    6.0465 O   0  5  0  0  0  0  0  0  0  0  0  0
   -9.2147  -10.4080    6.3863 O   0  0  0  0  0  0  0  0  0  0  0  0
  -11.4224   -8.3317    8.7646 C   0  0  0  0  0  0  0  0  0  0  0  0
  -10.2839   -9.0183    8.2162 O   0  0  0  0  0  0  0  0  0  0  0  0
  -11.4051   -8.4327   10.2927 C   0  0  1  0  0  0  0  0  0  0  0  0
  -11.1961   -9.7792   10.7370 O   0  0  0  0  0  0  0  0  0  0  0  0
  -10.3298   -7.6041   10.9746 C   0  0  1  0  0  0  0  0  0  0  0  0
  -10.8632   -6.3116   11.2770 O   0  0  0  0  0  0  0  0  0  0  0  0
  -10.0292   -8.3926   12.2388 C   0  0  1  0  0  0  0  0  0  0  0  0
  -10.9915   -8.0916   13.2595 O   0  0  0  0  0  0  0  0  0  0  0  0
  -10.2826   -9.8328   11.8397 C   0  0  2  0  0  0  0  0  0  0  0  0
   -6.4001  -12.8632   13.1814 N   0  0  0  0  0  0  0  0  0  0  0  0
   -7.4024  -12.3640   13.9401 C   0  0  1  0  0  0  0  0  0  0  0  0
   -7.4524  -12.6754   15.2550 N   0  0  0  0  0  0  0  0  0  0  0  0
   -8.3498  -11.5611   13.4016 N   0  0  0  0  0  0  0  0  0  0  0  0
   -8.2939  -11.2523   12.0839 C   0  0  1  0  0  0  0  0  0  0  0  0
   -7.2809  -11.7466   11.2860 C   0  0  2  0  0  0  0  0  0  0  0  0
   -6.3209  -12.5697   11.8631 C   0  0  0  0  0  0  0  0  0  0  0  0
   -5.3892  -13.0372   11.1788 O   0  0  0  0  0  0  0  0  0  0  0  0
   -7.4839  -11.2693   10.0411 N   0  0  0  0  0  0  0  0  0  0  0  0
   -8.6005  -10.5049   10.0694 C   0  0  0  0  0  0  0  0  0  0  0  0
   -9.0795  -10.5073   11.3174 N   0  0  1  0  0  0  0  0  0  0  0  0
  1  2  1  6  0  0  0
  1  3  1  0  0  0  0
  1  4  2  0  0  0  0
  1  6  1  0  0  0  0
  5  6  1  0  0  0  0
  7  5  1  6  0  0  0
  7  8  1  0  0  0  0
  7  9  1  0  0  0  0
  9 10  1  1  0  0  0
  9 11  1  0  0  0  0
 11 12  1  1  0  0  0
 11 13  1  0  0  0  0
 13  8  1  6  0  0  0
 13 24  1  0  0  0  0
 14 15  1  0  0  0  0
 14 20  1  0  0  0  0
 15 16  1  1  0  0  0
 15 17  1  0  0  0  0
 18 17  1  6  0  0  0
 18 19  1  0  0  0  0
 18 24  1  0  0  0  0
 19 20  1  1  0  0  0
 19 22  1  0  0  0  0
 20 21  2  0  0  0  0
 22 23  1  0  0  0  0
 24 23  1  6  0  0  0
M  CHG  1   3  -1
M  END
>  <CHROM.1>
88.55116017,-48.99405186,-178.75174950,-149.46062808,-9.20264600,-9.99273471
10.39208567,-2.26011325,-0.80732669,1.60760625

>  <Name>
ligand

>  <RI>
0

>  <Rbt.Current_Directory>
/home/itssahil/PROJECTS/Mol_Feturizer/New_Systems/rnas/3SLQ

>  <Rbt.Executable>
rbdock ($Id: //depot/dev/client3/rdock/2013.1/src/exe/rbdock.cxx#4 $)

>  <Rbt.Library>
libRbt.so (2013.1, Build901 2013/11/27)

>  <Rbt.Parameter_File>
/export/apps/rDock/src/rDock_2013.1_src/data/scripts/dock_solv.prm

>  <Rbt.Receptor>
prm/pocket_docking_5.prm

>  <SCORE>
-16.9725

>  <SCORE.INTER>
-11.892

>  <SCORE.INTER.CONST>
1

>  <SCORE.INTER.POLAR>
0

>  <SCORE.INTER.ROT>
4

>  <SCORE.INTER.SOLV>
19.8635

>  <SCORE.INTER.VDW>
-20.8158

>  <SCORE.INTER.norm>
-0.495499

>  <SCORE.INTRA>
-5.57584

>  <SCORE.INTRA.DIHEDRAL>
-10.4857

>  <SCORE.INTRA.DIHEDRAL.0>
13.2525

>  <SCORE.INTRA.POLAR>
0

>  <SCORE.INTRA.POLAR.0>
0

>  <SCORE.INTRA.REPUL>
0

>  <SCORE.INTRA.REPUL.0>
0

>  <SCORE.INTRA.SOLV>
0.453278

>  <SCORE.INTRA.SOLV.lig_0>
-70.7221

>  <SCORE.INTRA.VDW>
-0.559635

>  <SCORE.INTRA.VDW.0>
-1.46337

>  <SCORE.INTRA.norm>
-0.232327

>  <SCORE.RESTR>
0.495297

>  <SCORE.RESTR.CAVITY>
0.495297

>  <SCORE.RESTR.norm>
0.0206374

>  <SCORE.SYSTEM>
0

>  <SCORE.SYSTEM.CONST>
0

>  <SCORE.SYSTEM.DIHEDRAL>
0

>  <SCORE.SYSTEM.SOLV>
0

>  <SCORE.SYSTEM.norm>
0

>  <SCORE.heavy>
24

>  <SCORE.norm>
-0.707188

>  <RMSD>
9.023

$$$$
ligand
 OpenBabel11021811483D
libRbt.so/2013.1/901 2013/11/27
 24 26  0  0  0  0  0  0  0  0999 V2000
  -10.0033   -9.1057    6.6487 P   0  0  1  0  0  0  0  0  0  0  0  0
  -11.3669   -9.0877    5.9916 O   0  0  0  0  0  0  0  0  0  0  0  0
   -9.2170  -10.3896    6.5260 O   0  5  0  0  0  0  0  0  0  0  0  0
   -9.1618   -7.8711    6.3619 O   0  0  0  0  0  0  0  0  0  0  0  0
  -11.4824   -8.4504    8.8158 C   0  0  0  0  0  0  0  0  0  0  0  0
  -10.3391   -9.1037    8.2375 O   0  0  0  0  0  0  0  0  0  0  0  0
  -11.4129   -8.5347   10.3435 C   0  0  1  0  0  0  0  0  0  0  0  0
  -11.1606   -9.8716   10.7940 O   0  0  0  0  0  0  0  0  0  0  0  0
  -10.3339   -7.6764   10.9813 C   0  0  1  0  0  0  0  0  0  0  0  0
  -10.8848   -6.3922   11.2882 O   0  0  0  0  0  0  0  0  0  0  0  0
   -9.9752   -8.4448   12.2427 C   0  0  1  0  0  0  0  0  0  0  0  0
  -10.9097   -8.1534   13.2915 O   0  0  0  0  0  0  0  0  0  0  0  0
  -10.2104   -9.8942   11.8665 C   0  0  2  0  0  0  0  0  0  0  0  0
   -6.2772  -12.9101   13.0874 N   0  0  0  0  0  0  0  0  0  0  0  0
   -7.2702  -12.4331   13.8722 C   0  0  1  0  0  0  0  0  0  0  0  0
   -7.2937  -12.7668   15.1824 N   0  0  0  0  0  0  0  0  0  0  0  0
   -8.2343  -11.6301   13.3643 N   0  0  0  0  0  0  0  0  0  0  0  0
   -8.2049  -11.2989   12.0512 C   0  0  1  0  0  0  0  0  0  0  0  0
   -7.2019  -11.7703   11.2272 C   0  0  2  0  0  0  0  0  0  0  0  0
   -6.2243  -12.5939   11.7731 C   0  0  0  0  0  0  0  0  0  0  0  0
   -5.3009  -13.0411   11.0645 O   0  0  0  0  0  0  0  0  0  0  0  0
   -7.4317  -11.2742    9.9943 N   0  0  0  0  0  0  0  0  0  0  0  0
   -8.5544  -10.5208   10.0553 C   0  0  0  0  0  0  0  0  0  0  0  0
   -9.0109  -10.5486   11.3115 N   0  0  1  0  0  0  0  0  0  0  0  0
  1  2  1  6  0  0  0
  1  3  1  0  0  0  0
  1  4  2  0  0  0  0
  1  6  1  0  0  0  0
  5  6  1  0  0  0  0
  7  5  1  6  0  0  0
  7  8  1  0  0  0  0
  7  9  1  0  0  0  0
  9 10  1  1  0  0  0
  9 11  1  0  0  0  0
 11 12  1  1  0  0  0
 11 13  1  0  0  0  0
 13  8  1  6  0  0  0
 13 24  1  0  0  0  0
 14 15  1  0  0  0  0
 14 20  1  0  0  0  0
 15 16  1  1  0  0  0
 15 17  1  0  0  0  0
 18 17  1  6  0  0  0
 18 19  1  0  0  0  0
 18 24  1  0  0  0  0
 19 20  1  1  0  0  0
 19 22  1  0  0  0  0
 20 21  2  0  0  0  0
 22 23  1  0  0  0  0
 24 23  1  6  0  0  0
M  CHG  1   3  -1
M  END
>  <CHROM.1>
-32.42583895,-49.72526300,-174.51121498,-147.55556960,-9.16721723,-10.03817444
10.38378798,-2.28707023,-0.79176209,1.60361207

>  <Name>
ligand

>  <RI>
0

>  <Rbt.Current_Directory>
/home/itssahil/PROJECTS/Mol_Feturizer/New_Systems/rnas/3SLQ

>  <Rbt.Executable>
rbdock ($Id: //depot/dev/client3/rdock/2013.1/src/exe/rbdock.cxx#4 $)

>  <Rbt.Library>
libRbt.so (2013.1, Build901 2013/11/27)

>  <Rbt.Parameter_File>
/export/apps/rDock/src/rDock_2013.1_src/data/scripts/dock_solv.prm

>  <Rbt.Receptor>
prm/pocket_docking_5.prm

>  <SCORE>
-16.9448

>  <SCORE.INTER>
-11.497

>  <SCORE.INTER.CONST>
1

>  <SCORE.INTER.POLAR>
0

>  <SCORE.INTER.ROT>
4

>  <SCORE.INTER.SOLV>
20.6203

>  <SCORE.INTER.VDW>
-20.8048

>  <SCORE.INTER.norm>
-0.479043

>  <SCORE.INTRA>
-5.96847

>  <SCORE.INTRA.DIHEDRAL>
-10.4602

>  <SCORE.INTRA.DIHEDRAL.0>
13.2525

>  <SCORE.INTRA.POLAR>
0

>  <SCORE.INTRA.POLAR.0>
0

>  <SCORE.INTRA.REPUL>
0

>  <SCORE.INTRA.REPUL.0>
0

>  <SCORE.INTRA.SOLV>
0.0995308

>  <SCORE.INTRA.SOLV.lig_0>
-70.7221

>  <SCORE.INTRA.VDW>
-0.788126

>  <SCORE.INTRA.VDW.0>
-1.46337

>  <SCORE.INTRA.norm>
-0.248686

>  <SCORE.RESTR>
0.520668

>  <SCORE.RESTR.CAVITY>
0.520668

>  <SCORE.RESTR.norm>
0.0216945

>  <SCORE.SYSTEM>
0

>  <SCORE.SYSTEM.CONST>
0

>  <SCORE.SYSTEM.DIHEDRAL>
0

>  <SCORE.SYSTEM.SOLV>
0

>  <SCORE.SYSTEM.norm>
0

>  <SCORE.heavy>
24

>  <SCORE.norm>
-0.706035

>  <RMSD>
9.031

$$$$
ligand
 OpenBabel11021811483D
libRbt.so/2013.1/901 2013/11/27
 24 26  0  0  0  0  0  0  0  0999 V2000
   -9.5973   -9.0196    7.1732 P   0  0  1  0  0  0  0  0  0  0  0  0
   -8.9004  -10.3352    7.4468 O   0  0  0  0  0  0  0  0  0  0  0  0
   -8.8570   -8.0389    6.2946 O   0  5  0  0  0  0  0  0  0  0  0  0
  -11.0623   -9.1634    6.7891 O   0  0  0  0  0  0  0  0  0  0  0  0
  -10.1575   -8.7462    9.8048 C   0  0  0  0  0  0  0  0  0  0  0  0
   -9.5453   -8.2495    8.6020 O   0  0  0  0  0  0  0  0  0  0  0  0
   -9.8649   -7.7952   10.9692 C   0  0  1  0  0  0  0  0  0  0  0  0
  -10.4245   -8.2698   12.2003 O   0  0  0  0  0  0  0  0  0  0  0  0
   -8.3897   -7.5662   11.2505 C   0  0  1  0  0  0  0  0  0  0  0  0
   -7.9438   -6.4372   10.4932 O   0  0  0  0  0  0  0  0  0  0  0  0
   -8.3577   -7.2835   12.7435 C   0  0  1  0  0  0  0  0  0  0  0  0
   -8.6809   -5.9098   13.0020 O   0  0  0  0  0  0  0  0  0  0  0  0
   -9.5148   -8.0938   13.2934 C   0  0  2  0  0  0  0  0  0  0  0  0
   -9.4148  -11.2943   17.2688 N   0  0  0  0  0  0  0  0  0  0  0  0
   -9.8439  -10.0130   17.2077 C   0  0  1  0  0  0  0  0  0  0  0  0
  -10.3379   -9.4289   18.3227 N   0  0  0  0  0  0  0  0  0  0  0  0
   -9.7843   -9.3132   16.0507 N   0  0  0  0  0  0  0  0  0  0  0  0
   -9.2878   -9.9036   14.9373 C   0  0  1  0  0  0  0  0  0  0  0  0
   -8.8411  -11.2100   14.9712 C   0  0  2  0  0  0  0  0  0  0  0  0
   -8.9139  -11.9071   16.1715 C   0  0  0  0  0  0  0  0  0  0  0  0
   -8.5213  -13.0882   16.2461 O   0  0  0  0  0  0  0  0  0  0  0  0
   -8.4046  -11.5153   13.7322 N   0  0  0  0  0  0  0  0  0  0  0  0
   -8.5852  -10.4249   12.9509 C   0  0  0  0  0  0  0  0  0  0  0  0
   -9.1237   -9.4568   13.6991 N   0  0  1  0  0  0  0  0  0  0  0  0
  1  2  1  1  0  0  0
  1  3  1  0  0  0  0
  1  4  2  0  0  0  0
  1  6  1  0  0  0  0
  5  6  1  0  0  0  0
  7  5  1  6  0  0  0
  7  8  1  0  0  0  0
  7  9  1  0  0  0  0
  9 10  1  6  0  0  0
  9 11  1  0  0  0  0
 11 12  1  6  0  0  0
 11 13  1  0  0  0  0
 13  8  1  6  0  0  0
 13 24  1  0  0  0  0
 14 15  1  0  0  0  0
 14 20  1  0  0  0  0
 15 16  1  1  0  0  0
 15 17  1  0  0  0  0
 18 17  1  6  0  0  0
 18 19  1  0  0  0  0
 18 24  1  0  0  0  0
 19 20  1  1  0  0  0
 19 22  1  0  0  0  0
 20 21  2  0  0  0  0
 22 23  1  0  0  0  0
 24 23  1  6  0  0  0
M  CHG  1   3  -1
M  END
>  <CHROM.1>
-61.16930852,-178.34823914,177.81851283,-123.57048511,-9.28706437,-9.20885389
12.13074583,2.17975864,-1.53405619,-0.72455227

>  <Name>
ligand

>  <RI>
0

>  <Rbt.Current_Directory>
/home/itssahil/PROJECTS/Mol_Feturizer/New_Systems/rnas/3SLQ

>  <Rbt.Executable>
rbdock ($Id: //depot/dev/client3/rdock/2013.1/src/exe/rbdock.cxx#4 $)

>  <Rbt.Library>
libRbt.so (2013.1, Build901 2013/11/27)

>  <Rbt.Parameter_File>
/export/apps/rDock/src/rDock_2013.1_src/data/scripts/dock_solv.prm

>  <Rbt.Receptor>
prm/pocket_docking_5.prm

>  <SCORE>
-13.0362

>  <SCORE.INTER>
-6.57982

>  <SCORE.INTER.CONST>
1

>  <SCORE.INTER.POLAR>
0

>  <SCORE.INTER.ROT>
4

>  <SCORE.INTER.SOLV>
14.0074

>  <SCORE.INTER.VDW>
-15.3223

>  <SCORE.INTER.norm>
-0.274159

>  <SCORE.INTRA>
-6.4564

>  <SCORE.INTRA.DIHEDRAL>
-12.0119

>  <SCORE.INTRA.DIHEDRAL.0>
13.2525

>  <SCORE.INTRA.POLAR>
0

>  <SCORE.INTRA.POLAR.0>
0

>  <SCORE.INTRA.REPUL>
0

>  <SCORE.INTRA.REPUL.0>
0

>  <SCORE.INTRA.SOLV>
0.025612

>  <SCORE.INTRA.SOLV.lig_0>
-70.7221

>  <SCORE.INTRA.VDW>
-0.463272

>  <SCORE.INTRA.VDW.0>
-1.46337

>  <SCORE.INTRA.norm>
-0.269017

>  <SCORE.RESTR>
0

>  <SCORE.RESTR.CAVITY>
0

>  <SCORE.RESTR.norm>
0

>  <SCORE.SYSTEM>
0

>  <SCORE.SYSTEM.CONST>
0

>  <SCORE.SYSTEM.DIHEDRAL>
0

>  <SCORE.SYSTEM.SOLV>
0

>  <SCORE.SYSTEM.norm>
0

>  <SCORE.heavy>
24

>  <SCORE.norm>
-0.543176

>  <RMSD>
9.063

$$$$
ligand
 OpenBabel11021811483D
libRbt.so/2013.1/901 2013/11/27
 24 26  0  0  0  0  0  0  0  0999 V2000
  -10.0488   -9.0937    6.6940 P   0  0  1  0  0  0  0  0  0  0  0  0
  -11.3945   -9.3638    6.0555 O   0  0  0  0  0  0  0  0  0  0  0  0
   -9.0001  -10.1680    6.5275 O   0  5  0  0  0  0  0  0  0  0  0  0
   -9.5070   -7.6970    6.4286 O   0  0  0  0  0  0  0  0  0  0  0  0
  -11.5001   -8.6301    8.9284 C   0  0  0  0  0  0  0  0  0  0  0  0
  -10.3472   -9.2021    8.2866 O   0  0  0  0  0  0  0  0  0  0  0  0
  -11.3354   -8.6956   10.4497 C   0  0  1  0  0  0  0  0  0  0  0  0
  -10.9955  -10.0150   10.8941 O   0  0  0  0  0  0  0  0  0  0  0  0
  -10.2606   -7.7828   11.0148 C   0  0  1  0  0  0  0  0  0  0  0  0
  -10.8505   -6.5218   11.3448 O   0  0  0  0  0  0  0  0  0  0  0  0
   -9.7921   -8.5212   12.2579 C   0  0  1  0  0  0  0  0  0  0  0  0
  -10.6745   -8.2619   13.3590 O   0  0  0  0  0  0  0  0  0  0  0  0
   -9.9828   -9.9836   11.9074 C   0  0  2  0  0  0  0  0  0  0  0  0
   -6.1170  -13.2004   12.7818 N   0  0  0  0  0  0  0  0  0  0  0  0
   -7.1088  -12.8033   13.6113 C   0  0  1  0  0  0  0  0  0  0  0  0
   -7.1512  -13.2934   14.8709 N   0  0  0  0  0  0  0  0  0  0  0  0
   -8.0532  -11.9263   13.1976 N   0  0  0  0  0  0  0  0  0  0  0  0
   -8.0050  -11.4385   11.9349 C   0  0  1  0  0  0  0  0  0  0  0  0
   -7.0026  -11.8254   11.0672 C   0  0  2  0  0  0  0  0  0  0  0  0
   -6.0455  -12.7278   11.5161 C   0  0  0  0  0  0  0  0  0  0  0  0
   -5.1235  -13.1033   10.7654 O   0  0  0  0  0  0  0  0  0  0  0  0
   -7.2112  -11.1788    9.9021 N   0  0  0  0  0  0  0  0  0  0  0  0
   -8.3207  -10.4170   10.0460 C   0  0  0  0  0  0  0  0  0  0  0  0
   -8.7899  -10.5885   11.2860 N   0  0  1  0  0  0  0  0  0  0  0  0
  1  2  1  6  0  0  0
  1  3  1  0  0  0  0
  1  4  2  0  0  0  0
  1  6  1  0  0  0  0
  5  6  1  0  0  0  0
  7  5  1  6  0  0  0
  7  8  1  0  0  0  0
  7  9  1  0  0  0  0
  9 10  1  1  0  0  0
  9 11  1  0  0  0  0
 11 12  1  1  0  0  0
 11 13  1  0  0  0  0
 13  8  1  6  0  0  0
 13 24  1  0  0  0  0
 14 15  1  0  0  0  0
 14 20  1  0  0  0  0
 15 16  1  1  0  0  0
 15 17  1  0  0  0  0
 18 17  1  6  0  0  0
 18 19  1  0  0  0  0
 18 24  1  0  0  0  0
 19 20  1  1  0  0  0
 19 22  1  0  0  0  0
 20 21  2  0  0  0  0
 22 23  1  0  0  0  0
 24 23  1  6  0  0  0
M  CHG  1   3  -1
M  END
>  <CHROM.1>
-43.27383837,-51.37376663,-169.60454690,-138.32134101,-9.06173588,-10.14096066
10.34142851,-2.34843500,-0.79042926,1.61358559

>  <Name>
ligand

>  <RI>
0

>  <Rbt.Current_Directory>
/home/itssahil/PROJECTS/Mol_Feturizer/New_Systems/rnas/3SLQ

>  <Rbt.Executable>
rbdock ($Id: //depot/dev/client3/rdock/2013.1/src/exe/rbdock.cxx#4 $)

>  <Rbt.Library>
libRbt.so (2013.1, Build901 2013/11/27)

>  <Rbt.Parameter_File>
/export/apps/rDock/src/rDock_2013.1_src/data/scripts/dock_solv.prm

>  <Rbt.Receptor>
prm/pocket_docking_6.prm

>  <SCORE>
-18.2078

>  <SCORE.INTER>
-11.9162

>  <SCORE.INTER.CONST>
1

>  <SCORE.INTER.POLAR>
0

>  <SCORE.INTER.ROT>
4

>  <SCORE.INTER.SOLV>
19.457

>  <SCORE.INTER.VDW>
-20.6965

>  <SCORE.INTER.norm>
-0.496508

>  <SCORE.INTRA>
-6.29488

>  <SCORE.INTRA.DIHEDRAL>
-10.8159

>  <SCORE.INTRA.DIHEDRAL.0>
13.2525

>  <SCORE.INTRA.POLAR>
0

>  <SCORE.INTRA.POLAR.0>
0

>  <SCORE.INTRA.REPUL>
0

>  <SCORE.INTRA.REPUL.0>
0

>  <SCORE.INTRA.SOLV>
0.224472

>  <SCORE.INTRA.SOLV.lig_0>
-70.7221

>  <SCORE.INTRA.VDW>
-0.99916

>  <SCORE.INTRA.VDW.0>
-1.46337

>  <SCORE.INTRA.norm>
-0.262287

>  <SCORE.RESTR>
0.0032529

>  <SCORE.RESTR.CAVITY>
0.0032529

>  <SCORE.RESTR.norm>
0.000135538

>  <SCORE.SYSTEM>
0

>  <SCORE.SYSTEM.CONST>
0

>  <SCORE.SYSTEM.DIHEDRAL>
0

>  <SCORE.SYSTEM.SOLV>
0

>  <SCORE.SYSTEM.norm>
0

>  <SCORE.heavy>
24

>  <SCORE.norm>
-0.758659

>  <RMSD>
9.071

$$$$
ligand
 OpenBabel11021811483D
libRbt.so/2013.1/901 2013/11/27
 24 26  0  0  0  0  0  0  0  0999 V2000
  -11.3167   -7.3173    6.9878 P   0  0  1  0  0  0  0  0  0  0  0  0
  -10.6055   -6.1057    6.4241 O   0  0  0  0  0  0  0  0  0  0  0  0
  -12.8183   -7.3485    6.8266 O   0  5  0  0  0  0  0  0  0  0  0  0
  -10.6595   -8.6423    6.6312 O   0  0  0  0  0  0  0  0  0  0  0  0
   -9.9333   -6.9903    9.2884 C   0  0  0  0  0  0  0  0  0  0  0  0
  -11.1858   -7.1298    8.5956 O   0  0  0  0  0  0  0  0  0  0  0  0
  -10.1733   -6.9786   10.8010 C   0  0  1  0  0  0  0  0  0  0  0  0
  -10.8050   -8.1837   11.2512 O   0  0  0  0  0  0  0  0  0  0  0  0
   -8.9186   -6.8332   11.6449 C   0  0  1  0  0  0  0  0  0  0  0  0
   -8.6805   -5.4431   11.8851 O   0  0  0  0  0  0  0  0  0  0  0  0
   -9.2722   -7.5677   12.9278 C   0  0  1  0  0  0  0  0  0  0  0  0
  -10.0293   -6.7178   13.8011 O   0  0  0  0  0  0  0  0  0  0  0  0
  -10.2265   -8.6548   12.4747 C   0  0  2  0  0  0  0  0  0  0  0  0
   -7.7559  -12.6480   14.4764 N   0  0  0  0  0  0  0  0  0  0  0  0
   -8.2853  -11.5675   15.0942 C   0  0  1  0  0  0  0  0  0  0  0  0
   -8.1901  -11.4639   16.4391 N   0  0  0  0  0  0  0  0  0  0  0  0
   -8.9050  -10.5946   14.3860 N   0  0  0  0  0  0  0  0  0  0  0  0
   -8.9965  -10.7037   13.0389 C   0  0  1  0  0  0  0  0  0  0  0  0
   -8.4635  -11.7952   12.3819 C   0  0  2  0  0  0  0  0  0  0  0  0
   -7.8331  -12.7809   13.1323 C   0  0  0  0  0  0  0  0  0  0  0  0
   -7.3381  -13.7827   12.5790 O   0  0  0  0  0  0  0  0  0  0  0  0
   -8.7007  -11.6240   11.0653 N   0  0  0  0  0  0  0  0  0  0  0  0
   -9.3710  -10.4578   10.9152 C   0  0  0  0  0  0  0  0  0  0  0  0
   -9.5430   -9.9137   12.1240 N   0  0  1  0  0  0  0  0  0  0  0  0
  1  2  1  6  0  0  0
  1  3  1  0  0  0  0
  1  4  2  0  0  0  0
  1  6  1  0  0  0  0
  5  6  1  0  0  0  0
  7  5  1  6  0  0  0
  7  8  1  0  0  0  0
  7  9  1  0  0  0  0
  9 10  1  1  0  0  0
  9 11  1  0  0  0  0
 11 12  1  1  0  0  0
 11 13  1  0  0  0  0
 13  8  1  6  0  0  0
 13 24  1  0  0  0  0
 14 15  1  0  0  0  0
 14 20  1  0  0  0  0
 15 16  1  6  0  0  0
 15 17  1  0  0  0  0
 18 17  1  1  0  0  0
 18 19  1  0  0  0  0
 18 24  1  0  0  0  0
 19 20  1  6  0  0  0
 19 22  1  0  0  0  0
 20 21  2  0  0  0  0
 22 23  1  0  0  0  0
 24 23  1  1  0  0  0
M  CHG  1   3  -1
M  END
>  <CHROM.1>
-56.85665267,59.65198925,-174.19025135,-173.44360811,-9.64536180,-9.02526786
11.12822883,-3.08985568,-1.22507499,0.68285623

>  <Name>
ligand

>  <RI>
0

>  <Rbt.Current_Directory>
/home/itssahil/PROJECTS/Mol_Feturizer/New_Systems/rnas/3SLQ

>  <Rbt.Executable>
rbdock ($Id: //depot/dev/client3/rdock/2013.1/src/exe/rbdock.cxx#4 $)

>  <Rbt.Library>
libRbt.so (2013.1, Build901 2013/11/27)

>  <Rbt.Parameter_File>
/export/apps/rDock/src/rDock_2013.1_src/data/scripts/dock_solv.prm

>  <Rbt.Receptor>
prm/pocket_docking_8.prm

>  <SCORE>
-14.2542

>  <SCORE.INTER>
-7.99694

>  <SCORE.INTER.CONST>
1

>  <SCORE.INTER.POLAR>
0

>  <SCORE.INTER.ROT>
4

>  <SCORE.INTER.SOLV>
8.73026

>  <SCORE.INTER.VDW>
-14.508

>  <SCORE.INTER.norm>
-0.333206

>  <SCORE.INTRA>
-6.25725

>  <SCORE.INTRA.DIHEDRAL>
-11.8619

>  <SCORE.INTRA.DIHEDRAL.0>
13.2525

>  <SCORE.INTRA.POLAR>
0

>  <SCORE.INTRA.POLAR.0>
0

>  <SCORE.INTRA.REPUL>
0

>  <SCORE.INTRA.REPUL.0>
0

>  <SCORE.INTRA.SOLV>
-0.103572

>  <SCORE.INTRA.SOLV.lig_0>
-70.7221

>  <SCORE.INTRA.VDW>
-0.274539

>  <SCORE.INTRA.VDW.0>
-1.46337

>  <SCORE.INTRA.norm>
-0.260719

>  <SCORE.RESTR>
0

>  <SCORE.RESTR.CAVITY>
0

>  <SCORE.RESTR.norm>
0

>  <SCORE.SYSTEM>
0

>  <SCORE.SYSTEM.CONST>
0

>  <SCORE.SYSTEM.DIHEDRAL>
0

>  <SCORE.SYSTEM.SOLV>
0

>  <SCORE.SYSTEM.norm>
0

>  <SCORE.heavy>
24

>  <SCORE.norm>
-0.593925

>  <RMSD>
9.075

$$$$
ligand
 OpenBabel11021811483D
libRbt.so/2013.1/901 2013/11/27
 24 26  0  0  0  0  0  0  0  0999 V2000
  -10.1549   -9.1574    6.6490 P   0  0  1  0  0  0  0  0  0  0  0  0
   -9.6023   -7.7693    6.4052 O   0  0  0  0  0  0  0  0  0  0  0  0
  -11.5601   -9.4152    6.1583 O   0  5  0  0  0  0  0  0  0  0  0  0
   -9.1917  -10.2789    6.2897 O   0  0  0  0  0  0  0  0  0  0  0  0
  -11.5159   -8.6392    8.9277 C   0  0  0  0  0  0  0  0  0  0  0  0
  -10.3784   -9.2084    8.2566 O   0  0  0  0  0  0  0  0  0  0  0  0
  -11.3183   -8.7167   10.4445 C   0  0  1  0  0  0  0  0  0  0  0  0
  -10.9633  -10.0383   10.8703 O   0  0  0  0  0  0  0  0  0  0  0  0
  -10.2355   -7.8039   10.9942 C   0  0  1  0  0  0  0  0  0  0  0  0
  -10.8235   -6.5484   11.3474 O   0  0  0  0  0  0  0  0  0  0  0  0
   -9.7373   -8.5506   12.2207 C   0  0  1  0  0  0  0  0  0  0  0  0
  -10.5969   -8.3044   13.3426 O   0  0  0  0  0  0  0  0  0  0  0  0
   -9.9291  -10.0109   11.8619 C   0  0  2  0  0  0  0  0  0  0  0  0
   -6.0359  -13.2231   12.6236 N   0  0  0  0  0  0  0  0  0  0  0  0
   -7.0117  -12.8380   13.4774 C   0  0  1  0  0  0  0  0  0  0  0  0
   -7.0267  -13.3411   14.7324 N   0  0  0  0  0  0  0  0  0  0  0  0
   -7.9672  -11.9600   13.0922 N   0  0  0  0  0  0  0  0  0  0  0  0
   -7.9465  -11.4592   11.8339 C   0  0  1  0  0  0  0  0  0  0  0  0
   -6.9609  -11.8336   10.9419 C   0  0  2  0  0  0  0  0  0  0  0  0
   -5.9919  -12.7373   11.3617 C   0  0  0  0  0  0  0  0  0  0  0  0
   -5.0842  -13.1019   10.5884 O   0  0  0  0  0  0  0  0  0  0  0  0
   -7.1955  -11.1759    9.7881 N   0  0  0  0  0  0  0  0  0  0  0  0
   -8.3042  -10.4194    9.9625 C   0  0  0  0  0  0  0  0  0  0  0  0
   -8.7473  -10.6053   11.2100 N   0  0  1  0  0  0  0  0  0  0  0  0
  1  2  1  6  0  0  0
  1  3  1  0  0  0  0
  1  4  2  0  0  0  0
  1  6  1  0  0  0  0
  5  6  1  0  0  0  0
  7  5  1  6  0  0  0
  7  8  1  0  0  0  0
  7  9  1  0  0  0  0
  9 10  1  1  0  0  0
  9 11  1  0  0  0  0
 11 12  1  1  0  0  0
 11 13  1  0  0  0  0
 13  8  1  6  0  0  0
 13 24  1  0  0  0  0
 14 15  1  0  0  0  0
 14 20  1  0  0  0  0
 15 16  1  1  0  0  0
 15 17  1  0  0  0  0
 18 17  1  6  0  0  0
 18 19  1  0  0  0  0
 18 24  1  0  0  0  0
 19 20  1  1  0  0  0
 19 22  1  0  0  0  0
 20 21  2  0  0  0  0
 22 23  1  0  0  0  0
 24 23  1  6  0  0  0
M  CHG  1   3  -1
M  END
>  <CHROM.1>
80.55996918,-51.01152335,-173.03505111,-138.18675241,-9.05707871,-10.17266506
10.27176834,-2.39384952,-0.78973498,1.57657117

>  <Name>
ligand

>  <RI>
0

>  <Rbt.Current_Directory>
/home/itssahil/PROJECTS/Mol_Feturizer/New_Systems/rnas/3SLQ

>  <Rbt.Executable>
rbdock ($Id: //depot/dev/client3/rdock/2013.1/src/exe/rbdock.cxx#4 $)

>  <Rbt.Library>
libRbt.so (2013.1, Build901 2013/11/27)

>  <Rbt.Parameter_File>
/export/apps/rDock/src/rDock_2013.1_src/data/scripts/dock_solv.prm

>  <Rbt.Receptor>
prm/pocket_docking_6.prm

>  <SCORE>
-18.1796

>  <SCORE.INTER>
-12.1285

>  <SCORE.INTER.CONST>
1

>  <SCORE.INTER.POLAR>
0

>  <SCORE.INTER.ROT>
4

>  <SCORE.INTER.SOLV>
19.0708

>  <SCORE.INTER.VDW>
-20.7092

>  <SCORE.INTER.norm>
-0.505353

>  <SCORE.INTRA>
-6.05296

>  <SCORE.INTRA.DIHEDRAL>
-10.8777

>  <SCORE.INTRA.DIHEDRAL.0>
13.2525

>  <SCORE.INTRA.POLAR>
0

>  <SCORE.INTRA.POLAR.0>
0

>  <SCORE.INTRA.REPUL>
0

>  <SCORE.INTRA.REPUL.0>
0

>  <SCORE.INTRA.SOLV>
0.360156

>  <SCORE.INTRA.SOLV.lig_0>
-70.7221

>  <SCORE.INTRA.VDW>
-0.794178

>  <SCORE.INTRA.VDW.0>
-1.46337

>  <SCORE.INTRA.norm>
-0.252207

>  <SCORE.RESTR>
0.00185454

>  <SCORE.RESTR.CAVITY>
0.00185454

>  <SCORE.RESTR.norm>
7.72724e-05

>  <SCORE.SYSTEM>
0

>  <SCORE.SYSTEM.CONST>
0

>  <SCORE.SYSTEM.DIHEDRAL>
0

>  <SCORE.SYSTEM.SOLV>
0

>  <SCORE.SYSTEM.norm>
0

>  <SCORE.heavy>
24

>  <SCORE.norm>
-0.757482

>  <RMSD>
9.079

$$$$
ligand
 OpenBabel11021811483D
libRbt.so/2013.1/901 2013/11/27
 24 26  0  0  0  0  0  0  0  0999 V2000
  -10.2817   -9.1968    6.6476 P   0  0  1  0  0  0  0  0  0  0  0  0
   -9.6539   -7.8369    6.4287 O   0  0  0  0  0  0  0  0  0  0  0  0
  -11.6976   -9.3693    6.1505 O   0  5  0  0  0  0  0  0  0  0  0  0
   -9.3800  -10.3627    6.2705 O   0  0  0  0  0  0  0  0  0  0  0  0
  -11.6017   -8.6195    8.9363 C   0  0  0  0  0  0  0  0  0  0  0  0
  -10.5115   -9.2631    8.2538 O   0  0  0  0  0  0  0  0  0  0  0  0
  -11.3801   -8.6860   10.4503 C   0  0  1  0  0  0  0  0  0  0  0  0
  -11.0238  -10.0058   10.8808 O   0  0  0  0  0  0  0  0  0  0  0  0
  -10.2850   -7.7736   10.9754 C   0  0  1  0  0  0  0  0  0  0  0  0
  -10.8621   -6.5129   11.3282 O   0  0  0  0  0  0  0  0  0  0  0  0
   -9.7703   -8.5129   12.1997 C   0  0  1  0  0  0  0  0  0  0  0  0
  -10.6108   -8.2543   13.3332 O   0  0  0  0  0  0  0  0  0  0  0  0
   -9.9739   -9.9750   11.8555 C   0  0  2  0  0  0  0  0  0  0  0  0
   -6.0896  -13.2076   12.5761 N   0  0  0  0  0  0  0  0  0  0  0  0
   -7.0509  -12.8128   13.4419 C   0  0  1  0  0  0  0  0  0  0  0  0
   -7.0510  -13.3103   14.6993 N   0  0  0  0  0  0  0  0  0  0  0  0
   -8.0064  -11.9307   13.0665 N   0  0  0  0  0  0  0  0  0  0  0  0
   -8.0006  -11.4355   11.8057 C   0  0  1  0  0  0  0  0  0  0  0  0
   -7.0302  -11.8199   10.9015 C   0  0  2  0  0  0  0  0  0  0  0  0
   -6.0607  -12.7276   11.3115 C   0  0  0  0  0  0  0  0  0  0  0  0
   -5.1664  -13.1011   10.5270 O   0  0  0  0  0  0  0  0  0  0  0  0
   -7.2772  -11.1658    9.7482 N   0  0  0  0  0  0  0  0  0  0  0  0
   -8.3787  -10.4018    9.9350 C   0  0  0  0  0  0  0  0  0  0  0  0
   -8.8051  -10.5795   11.1895 N   0  0  1  0  0  0  0  0  0  0  0  0
  1  2  1  6  0  0  0
  1  3  1  0  0  0  0
  1  4  2  0  0  0  0
  1  6  1  0  0  0  0
  5  6  1  0  0  0  0
  7  5  1  6  0  0  0
  7  8  1  0  0  0  0
  7  9  1  0  0  0  0
  9 10  1  1  0  0  0
  9 11  1  0  0  0  0
 11 12  1  1  0  0  0
 11 13  1  0  0  0  0
 13  8  1  6  0  0  0
 13 24  1  0  0  0  0
 14 15  1  0  0  0  0
 14 20  1  0  0  0  0
 15 16  1  1  0  0  0
 15 17  1  0  0  0  0
 18 17  1  6  0  0  0
 18 19  1  0  0  0  0
 18 24  1  0  0  0  0
 19 20  1  1  0  0  0
 19 22  1  0  0  0  0
 20 21  2  0  0  0  0
 22 23  1  0  0  0  0
 24 23  1  6  0  0  0
M  CHG  1   3  -1
M  END
>  <CHROM.1>
79.11627714,-47.92083131,-170.38128312,-137.94382407,-9.13072028,-10.16481832
10.25391362,-2.42175580,-0.79540642,1.54616235

>  <Name>
ligand

>  <RI>
0

>  <Rbt.Current_Directory>
/home/itssahil/PROJECTS/Mol_Feturizer/New_Systems/rnas/3SLQ

>  <Rbt.Executable>
rbdock ($Id: //depot/dev/client3/rdock/2013.1/src/exe/rbdock.cxx#4 $)

>  <Rbt.Library>
libRbt.so (2013.1, Build901 2013/11/27)

>  <Rbt.Parameter_File>
/export/apps/rDock/src/rDock_2013.1_src/data/scripts/dock_solv.prm

>  <Rbt.Receptor>
prm/pocket_docking_6.prm

>  <SCORE>
-18.3039

>  <SCORE.INTER>
-12.3995

>  <SCORE.INTER.CONST>
1

>  <SCORE.INTER.POLAR>
0

>  <SCORE.INTER.ROT>
4

>  <SCORE.INTER.SOLV>
19.0315

>  <SCORE.INTER.VDW>
-20.8768

>  <SCORE.INTER.norm>
-0.516644

>  <SCORE.INTRA>
-5.90551

>  <SCORE.INTRA.DIHEDRAL>
-10.5227

>  <SCORE.INTRA.DIHEDRAL.0>
13.2525

>  <SCORE.INTRA.POLAR>
0

>  <SCORE.INTRA.POLAR.0>
0

>  <SCORE.INTRA.REPUL>
0

>  <SCORE.INTRA.REPUL.0>
0

>  <SCORE.INTRA.SOLV>
0.347988

>  <SCORE.INTRA.SOLV.lig_0>
-70.7221

>  <SCORE.INTRA.VDW>
-0.818168

>  <SCORE.INTRA.VDW.0>
-1.46337

>  <SCORE.INTRA.norm>
-0.246063

>  <SCORE.RESTR>
0.00108993

>  <SCORE.RESTR.CAVITY>
0.00108993

>  <SCORE.RESTR.norm>
4.54136e-05

>  <SCORE.SYSTEM>
0

>  <SCORE.SYSTEM.CONST>
0

>  <SCORE.SYSTEM.DIHEDRAL>
0

>  <SCORE.SYSTEM.SOLV>
0

>  <SCORE.SYSTEM.norm>
0

>  <SCORE.heavy>
24

>  <SCORE.norm>
-0.762662

>  <RMSD>
9.087

$$$$
ligand
 OpenBabel11021811483D
libRbt.so/2013.1/901 2013/11/27
 24 26  0  0  0  0  0  0  0  0999 V2000
  -10.0469   -9.0981    6.7252 P   0  0  1  0  0  0  0  0  0  0  0  0
  -11.4106   -9.3706    6.1271 O   0  0  0  0  0  0  0  0  0  0  0  0
   -8.9922  -10.1555    6.4988 O   0  5  0  0  0  0  0  0  0  0  0  0
   -9.5308   -7.6893    6.4731 O   0  0  0  0  0  0  0  0  0  0  0  0
  -11.4280   -8.7060    9.0171 C   0  0  0  0  0  0  0  0  0  0  0  0
  -10.2891   -9.2455    8.3242 O   0  0  0  0  0  0  0  0  0  0  0  0
  -11.2124   -8.8058   10.5301 C   0  0  1  0  0  0  0  0  0  0  0  0
  -10.8928  -10.1423   10.9373 O   0  0  0  0  0  0  0  0  0  0  0  0
  -10.0945   -7.9328   11.0742 C   0  0  1  0  0  0  0  0  0  0  0  0
  -10.6386   -6.6637   11.4485 O   0  0  0  0  0  0  0  0  0  0  0  0
   -9.6032   -8.7077   12.2859 C   0  0  1  0  0  0  0  0  0  0  0  0
  -10.4396   -8.4472   13.4221 O   0  0  0  0  0  0  0  0  0  0  0  0
   -9.8451  -10.1574   11.9148 C   0  0  2  0  0  0  0  0  0  0  0  0
   -6.0781  -13.5393   12.5697 N   0  0  0  0  0  0  0  0  0  0  0  0
   -7.0335  -13.1382   13.4391 C   0  0  1  0  0  0  0  0  0  0  0  0
   -7.0618  -13.6725   14.6809 N   0  0  0  0  0  0  0  0  0  0  0  0
   -7.9554  -12.2136   13.0825 N   0  0  0  0  0  0  0  0  0  0  0  0
   -7.9215  -11.6816   11.8373 C   0  0  1  0  0  0  0  0  0  0  0  0
   -6.9562  -12.0715   10.9299 C   0  0  2  0  0  0  0  0  0  0  0  0
   -6.0215  -13.0232   11.3204 C   0  0  0  0  0  0  0  0  0  0  0  0
   -5.1331  -13.4032   10.5324 O   0  0  0  0  0  0  0  0  0  0  0  0
   -7.1706  -11.3754    9.7948 N   0  0  0  0  0  0  0  0  0  0  0  0
   -8.2476  -10.5806    9.9954 C   0  0  0  0  0  0  0  0  0  0  0  0
   -8.6911  -10.7809   11.2405 N   0  0  1  0  0  0  0  0  0  0  0  0
  1  2  1  6  0  0  0
  1  3  1  0  0  0  0
  1  4  2  0  0  0  0
  1  6  1  0  0  0  0
  5  6  1  0  0  0  0
  7  5  1  6  0  0  0
  7  8  1  0  0  0  0
  7  9  1  0  0  0  0
  9 10  1  1  0  0  0
  9 11  1  0  0  0  0
 11 12  1  1  0  0  0
 11 13  1  0  0  0  0
 13  8  1  6  0  0  0
 13 24  1  0  0  0  0
 14 15  1  0  0  0  0
 14 20  1  0  0  0  0
 15 16  1  1  0  0  0
 15 17  1  0  0  0  0
 18 17  1  6  0  0  0
 18 19  1  0  0  0  0
 18 24  1  0  0  0  0
 19 20  1  1  0  0  0
 19 22  1  0  0  0  0
 20 21  2  0  0  0  0
 22 23  1  0  0  0  0
 24 23  1  6  0  0  0
M  CHG  1   3  -1
M  END
>  <CHROM.1>
-43.06540413,-53.72022421,-169.79117083,-137.08974126,-8.98599515,-10.30081315
10.31015198,-2.38782882,-0.82363339,1.61797411

>  <Name>
ligand

>  <RI>
0

>  <Rbt.Current_Directory>
/home/itssahil/PROJECTS/Mol_Feturizer/New_Systems/rnas/3SLQ

>  <Rbt.Executable>
rbdock ($Id: //depot/dev/client3/rdock/2013.1/src/exe/rbdock.cxx#4 $)

>  <Rbt.Library>
libRbt.so (2013.1, Build901 2013/11/27)

>  <Rbt.Parameter_File>
/export/apps/rDock/src/rDock_2013.1_src/data/scripts/dock_solv.prm

>  <Rbt.Receptor>
prm/pocket_docking_7.prm

>  <SCORE>
-18.7294

>  <SCORE.INTER>
-12.3624

>  <SCORE.INTER.CONST>
1

>  <SCORE.INTER.POLAR>
0

>  <SCORE.INTER.ROT>
4

>  <SCORE.INTER.SOLV>
19.3366

>  <SCORE.INTER.VDW>
-20.9538

>  <SCORE.INTER.norm>
-0.515101

>  <SCORE.INTRA>
-6.36699

>  <SCORE.INTRA.DIHEDRAL>
-10.9476

>  <SCORE.INTRA.DIHEDRAL.0>
13.2525

>  <SCORE.INTRA.POLAR>
0

>  <SCORE.INTRA.POLAR.0>
0

>  <SCORE.INTRA.REPUL>
0

>  <SCORE.INTRA.REPUL.0>
0

>  <SCORE.INTRA.SOLV>
0.212248

>  <SCORE.INTRA.SOLV.lig_0>
-70.7221

>  <SCORE.INTRA.VDW>
-0.999313

>  <SCORE.INTRA.VDW.0>
-1.46337

>  <SCORE.INTRA.norm>
-0.265291

>  <SCORE.RESTR>
0

>  <SCORE.RESTR.CAVITY>
0

>  <SCORE.RESTR.norm>
0

>  <SCORE.SYSTEM>
0

>  <SCORE.SYSTEM.CONST>
0

>  <SCORE.SYSTEM.DIHEDRAL>
0

>  <SCORE.SYSTEM.SOLV>
0

>  <SCORE.SYSTEM.norm>
0

>  <SCORE.heavy>
24

>  <SCORE.norm>
-0.780392

>  <RMSD>
9.185

$$$$
ligand
 OpenBabel11021811483D
libRbt.so/2013.1/901 2013/11/27
 24 26  0  0  0  0  0  0  0  0999 V2000
  -10.0681   -9.3467    6.6489 P   0  0  1  0  0  0  0  0  0  0  0  0
   -9.2799  -10.6157    6.4042 O   0  0  0  0  0  0  0  0  0  0  0  0
   -9.3224   -8.0470    6.4579 O   0  5  0  0  0  0  0  0  0  0  0  0
  -11.4430   -9.3368    5.9977 O   0  0  0  0  0  0  0  0  0  0  0  0
  -11.4525   -8.7767    8.9011 C   0  0  0  0  0  0  0  0  0  0  0  0
  -10.2945   -9.3356    8.2570 O   0  0  0  0  0  0  0  0  0  0  0  0
  -11.2782   -8.8280   10.4218 C   0  0  1  0  0  0  0  0  0  0  0  0
  -10.9774  -10.1519   10.8809 O   0  0  0  0  0  0  0  0  0  0  0  0
  -10.1703   -7.9431   10.9671 C   0  0  1  0  0  0  0  0  0  0  0  0
  -10.7168   -6.6597   11.2850 O   0  0  0  0  0  0  0  0  0  0  0  0
   -9.7161   -8.6803   12.2163 C   0  0  1  0  0  0  0  0  0  0  0  0
  -10.5812   -8.3786   13.3204 O   0  0  0  0  0  0  0  0  0  0  0  0
   -9.9563  -10.1401   11.8862 C   0  0  2  0  0  0  0  0  0  0  0  0
   -6.2188  -13.5058   12.7577 N   0  0  0  0  0  0  0  0  0  0  0  0
   -7.1939  -13.0705   13.5879 C   0  0  1  0  0  0  0  0  0  0  0  0
   -7.2547  -13.5588   14.8474 N   0  0  0  0  0  0  0  0  0  0  0  0
   -8.1034  -12.1571   13.1750 N   0  0  0  0  0  0  0  0  0  0  0  0
   -8.0369  -11.6712   11.9123 C   0  0  1  0  0  0  0  0  0  0  0  0
   -7.0509  -12.0968   11.0439 C   0  0  2  0  0  0  0  0  0  0  0  0
   -6.1295  -13.0360   11.4921 C   0  0  0  0  0  0  0  0  0  0  0  0
   -5.2233  -13.4470   10.7408 O   0  0  0  0  0  0  0  0  0  0  0  0
   -7.2347  -11.4422    9.8791 N   0  0  0  0  0  0  0  0  0  0  0  0
   -8.3135  -10.6377   10.0238 C   0  0  0  0  0  0  0  0  0  0  0  0
   -8.7883  -10.7911   11.2640 N   0  0  1  0  0  0  0  0  0  0  0  0
  1  2  1  6  0  0  0
  1  3  1  0  0  0  0
  1  4  2  0  0  0  0
  1  6  1  0  0  0  0
  5  6  1  0  0  0  0
  7  5  1  6  0  0  0
  7  8  1  0  0  0  0
  7  9  1  0  0  0  0
  9 10  1  1  0  0  0
  9 11  1  0  0  0  0
 11 12  1  1  0  0  0
 11 13  1  0  0  0  0
 13  8  1  6  0  0  0
 13 24  1  0  0  0  0
 14 15  1  0  0  0  0
 14 20  1  0  0  0  0
 15 16  1  1  0  0  0
 15 17  1  0  0  0  0
 18 17  1  6  0  0  0
 18 19  1  0  0  0  0
 18 24  1  0  0  0  0
 19 20  1  1  0  0  0
 19 22  1  0  0  0  0
 20 21  2  0  0  0  0
 22 23  1  0  0  0  0
 24 23  1  6  0  0  0
M  CHG  1   3  -1
M  END
>  <CHROM.1>
-148.15000798,-54.12495766,-175.06186002,-137.37937549,-9.06904560,-10.35893099
10.30858786,-2.36675942,-0.83092799,1.58373095

>  <Name>
ligand

>  <RI>
0

>  <Rbt.Current_Directory>
/home/itssahil/PROJECTS/Mol_Feturizer/New_Systems/rnas/3SLQ

>  <Rbt.Executable>
rbdock ($Id: //depot/dev/client3/rdock/2013.1/src/exe/rbdock.cxx#4 $)

>  <Rbt.Library>
libRbt.so (2013.1, Build901 2013/11/27)

>  <Rbt.Parameter_File>
/export/apps/rDock/src/rDock_2013.1_src/data/scripts/dock_solv.prm

>  <Rbt.Receptor>
prm/pocket_docking_7.prm

>  <SCORE>
-20.3886

>  <SCORE.INTER>
-14.4798

>  <SCORE.INTER.CONST>
1

>  <SCORE.INTER.POLAR>
0

>  <SCORE.INTER.ROT>
4

>  <SCORE.INTER.SOLV>
17.031

>  <SCORE.INTER.VDW>
-21.5969

>  <SCORE.INTER.norm>
-0.603324

>  <SCORE.INTRA>
-5.90885

>  <SCORE.INTRA.DIHEDRAL>
-10.4727

>  <SCORE.INTRA.DIHEDRAL.0>
13.2525

>  <SCORE.INTRA.POLAR>
0

>  <SCORE.INTRA.POLAR.0>
0

>  <SCORE.INTRA.REPUL>
0

>  <SCORE.INTRA.REPUL.0>
0

>  <SCORE.INTRA.SOLV>
0.594289

>  <SCORE.INTRA.SOLV.lig_0>
-70.7221

>  <SCORE.INTRA.VDW>
-0.969661

>  <SCORE.INTRA.VDW.0>
-1.46337

>  <SCORE.INTRA.norm>
-0.246202

>  <SCORE.RESTR>
0

>  <SCORE.RESTR.CAVITY>
0

>  <SCORE.RESTR.norm>
0

>  <SCORE.SYSTEM>
0

>  <SCORE.SYSTEM.CONST>
0

>  <SCORE.SYSTEM.DIHEDRAL>
0

>  <SCORE.SYSTEM.SOLV>
0

>  <SCORE.SYSTEM.norm>
0

>  <SCORE.heavy>
24

>  <SCORE.norm>
-0.849526

>  <RMSD>
9.203

$$$$
ligand
 OpenBabel11021811483D
libRbt.so/2013.1/901 2013/11/27
 24 26  0  0  0  0  0  0  0  0999 V2000
   -9.9806   -9.1646    6.6564 P   0  0  1  0  0  0  0  0  0  0  0  0
   -9.3137   -7.8325    6.3878 O   0  0  0  0  0  0  0  0  0  0  0  0
  -11.3886   -9.3268    6.1339 O   0  5  0  0  0  0  0  0  0  0  0  0
   -9.1002  -10.3689    6.3576 O   0  0  0  0  0  0  0  0  0  0  0  0
  -11.3958   -8.5355    8.8734 C   0  0  0  0  0  0  0  0  0  0  0  0
  -10.2490   -9.1473    8.2579 O   0  0  0  0  0  0  0  0  0  0  0  0
  -11.2708   -8.6106   10.3980 C   0  0  1  0  0  0  0  0  0  0  0  0
  -11.0456   -9.9518   10.8503 O   0  0  0  0  0  0  0  0  0  0  0  0
  -10.1405   -7.7838   10.9868 C   0  0  1  0  0  0  0  0  0  0  0  0
  -10.6368   -6.4798   11.3032 O   0  0  0  0  0  0  0  0  0  0  0  0
   -9.7594   -8.5543   12.2404 C   0  0  1  0  0  0  0  0  0  0  0  0
  -10.6430   -8.2242   13.3213 O   0  0  0  0  0  0  0  0  0  0  0  0
  -10.0564   -9.9979   11.8861 C   0  0  2  0  0  0  0  0  0  0  0  0
   -6.4704  -13.5002   12.8508 N   0  0  0  0  0  0  0  0  0  0  0  0
   -7.4457  -13.0241   13.6580 C   0  0  1  0  0  0  0  0  0  0  0  0
   -7.5523  -13.5040   14.9177 N   0  0  0  0  0  0  0  0  0  0  0  0
   -8.3105  -12.0784   13.2221 N   0  0  0  0  0  0  0  0  0  0  0  0
   -8.1981  -11.6012   11.9594 C   0  0  1  0  0  0  0  0  0  0  0  0
   -7.2108  -12.0681   11.1142 C   0  0  2  0  0  0  0  0  0  0  0  0
   -6.3360  -13.0399   11.5857 C   0  0  0  0  0  0  0  0  0  0  0  0
   -5.4302  -13.4887   10.8558 O   0  0  0  0  0  0  0  0  0  0  0  0
   -7.3442  -11.4123    9.9433 N   0  0  0  0  0  0  0  0  0  0  0  0
   -8.3942  -10.5664   10.0616 C   0  0  0  0  0  0  0  0  0  0  0  0
   -8.9011  -10.6958   11.2917 N   0  0  1  0  0  0  0  0  0  0  0  0
  1  2  1  6  0  0  0
  1  3  1  0  0  0  0
  1  4  2  0  0  0  0
  1  6  1  0  0  0  0
  5  6  1  0  0  0  0
  7  5  1  6  0  0  0
  7  8  1  0  0  0  0
  7  9  1  0  0  0  0
  9 10  1  1  0  0  0
  9 11  1  0  0  0  0
 11 12  1  1  0  0  0
 11 13  1  0  0  0  0
 13  8  1  6  0  0  0
 13 24  1  0  0  0  0
 14 15  1  0  0  0  0
 14 20  1  0  0  0  0
 15 16  1  1  0  0  0
 15 17  1  0  0  0  0
 18 17  1  6  0  0  0
 18 19  1  0  0  0  0
 18 24  1  0  0  0  0
 19 20  1  1  0  0  0
 19 22  1  0  0  0  0
 20 21  2  0  0  0  0
 22 23  1  0  0  0  0
 24 23  1  6  0  0  0
M  CHG  1   3  -1
M  END
>  <CHROM.1>
84.28722556,-53.81985028,-175.56786149,-138.48377952,-9.12933305,-10.24037769
10.33716952,-2.32179724,-0.86955273,1.62112646

>  <Name>
ligand

>  <RI>
0

>  <Rbt.Current_Directory>
/home/itssahil/PROJECTS/Mol_Feturizer/New_Systems/rnas/3SLQ

>  <Rbt.Executable>
rbdock ($Id: //depot/dev/client3/rdock/2013.1/src/exe/rbdock.cxx#4 $)

>  <Rbt.Library>
libRbt.so (2013.1, Build901 2013/11/27)

>  <Rbt.Parameter_File>
/export/apps/rDock/src/rDock_2013.1_src/data/scripts/dock_solv.prm

>  <Rbt.Receptor>
prm/pocket_docking_7.prm

>  <SCORE>
-18.85

>  <SCORE.INTER>
-12.838

>  <SCORE.INTER.CONST>
1

>  <SCORE.INTER.POLAR>
0

>  <SCORE.INTER.ROT>
4

>  <SCORE.INTER.SOLV>
20.3282

>  <SCORE.INTER.VDW>
-21.6014

>  <SCORE.INTER.norm>
-0.534916

>  <SCORE.INTRA>
-6.012

>  <SCORE.INTRA.DIHEDRAL>
-10.9516

>  <SCORE.INTRA.DIHEDRAL.0>
13.2525

>  <SCORE.INTRA.POLAR>
0

>  <SCORE.INTRA.POLAR.0>
0

>  <SCORE.INTRA.REPUL>
0

>  <SCORE.INTRA.REPUL.0>
0

>  <SCORE.INTRA.SOLV>
0.388791

>  <SCORE.INTRA.SOLV.lig_0>
-70.7221

>  <SCORE.INTRA.VDW>
-0.730602

>  <SCORE.INTRA.VDW.0>
-1.46337

>  <SCORE.INTRA.norm>
-0.2505

>  <SCORE.RESTR>
0

>  <SCORE.RESTR.CAVITY>
0

>  <SCORE.RESTR.norm>
0

>  <SCORE.SYSTEM>
0

>  <SCORE.SYSTEM.CONST>
0

>  <SCORE.SYSTEM.DIHEDRAL>
0

>  <SCORE.SYSTEM.SOLV>
0

>  <SCORE.SYSTEM.norm>
0

>  <SCORE.heavy>
24

>  <SCORE.norm>
-0.785416

>  <RMSD>
9.213

$$$$
ligand
 OpenBabel11021811483D
libRbt.so/2013.1/901 2013/11/27
 24 26  0  0  0  0  0  0  0  0999 V2000
  -10.0138   -9.0784    6.7232 P   0  0  1  0  0  0  0  0  0  0  0  0
  -11.3503   -9.3795    6.0794 O   0  0  0  0  0  0  0  0  0  0  0  0
   -8.9422  -10.1316    6.5673 O   0  5  0  0  0  0  0  0  0  0  0  0
   -9.4996   -7.6721    6.4535 O   0  0  0  0  0  0  0  0  0  0  0  0
  -11.4836   -8.6305    8.9487 C   0  0  0  0  0  0  0  0  0  0  0  0
  -10.3179   -9.1852    8.3149 O   0  0  0  0  0  0  0  0  0  0  0  0
  -11.3262   -8.6892   10.4710 C   0  0  1  0  0  0  0  0  0  0  0  0
  -11.0566  -10.0200   10.9295 O   0  0  0  0  0  0  0  0  0  0  0  0
  -10.2067   -7.8280   11.0302 C   0  0  1  0  0  0  0  0  0  0  0  0
  -10.7308   -6.5347   11.3459 O   0  0  0  0  0  0  0  0  0  0  0  0
   -9.7803   -8.5772   12.2820 C   0  0  1  0  0  0  0  0  0  0  0  0
  -10.6507   -8.2612   13.3779 O   0  0  0  0  0  0  0  0  0  0  0  0
  -10.0461  -10.0312   11.9455 C   0  0  2  0  0  0  0  0  0  0  0  0
   -6.4298  -13.5258   12.8209 N   0  0  0  0  0  0  0  0  0  0  0  0
   -7.4091  -13.0790   13.6399 C   0  0  1  0  0  0  0  0  0  0  0  0
   -7.5114  -13.5918   14.8869 N   0  0  0  0  0  0  0  0  0  0  0  0
   -8.2821  -12.1300   13.2282 N   0  0  0  0  0  0  0  0  0  0  0  0
   -8.1740  -11.6197   11.9781 C   0  0  1  0  0  0  0  0  0  0  0  0
   -7.1827  -12.0562   11.1214 C   0  0  2  0  0  0  0  0  0  0  0  0
   -6.2995  -13.0322   11.5680 C   0  0  0  0  0  0  0  0  0  0  0  0
   -5.3899  -13.4543   10.8269 O   0  0  0  0  0  0  0  0  0  0  0  0
   -7.3219  -11.3719    9.9676 N   0  0  0  0  0  0  0  0  0  0  0  0
   -8.3792  -10.5385   10.1073 C   0  0  0  0  0  0  0  0  0  0  0  0
   -8.8849  -10.7037   11.3336 N   0  0  1  0  0  0  0  0  0  0  0  0
  1  2  1  6  0  0  0
  1  3  1  0  0  0  0
  1  4  2  0  0  0  0
  1  6  1  0  0  0  0
  5  6  1  0  0  0  0
  7  5  1  6  0  0  0
  7  8  1  0  0  0  0
  7  9  1  0  0  0  0
  9 10  1  1  0  0  0
  9 11  1  0  0  0  0
 11 12  1  1  0  0  0
 11 13  1  0  0  0  0
 13  8  1  6  0  0  0
 13 24  1  0  0  0  0
 14 15  1  0  0  0  0
 14 20  1  0  0  0  0
 15 16  1  1  0  0  0
 15 17  1  0  0  0  0
 18 17  1  6  0  0  0
 18 19  1  0  0  0  0
 18 24  1  0  0  0  0
 19 20  1  1  0  0  0
 19 22  1  0  0  0  0
 20 21  2  0  0  0  0
 22 23  1  0  0  0  0
 24 23  1  6  0  0  0
M  CHG  1   3  -1
M  END
>  <CHROM.1>
-43.47129259,-55.33179281,-169.71352624,-136.00841054,-9.13583738,-10.24108024
10.37486651,-2.32261156,-0.85130716,1.64685836

>  <Name>
ligand

>  <RI>
0

>  <Rbt.Current_Directory>
/home/itssahil/PROJECTS/Mol_Feturizer/New_Systems/rnas/3SLQ

>  <Rbt.Executable>
rbdock ($Id: //depot/dev/client3/rdock/2013.1/src/exe/rbdock.cxx#4 $)

>  <Rbt.Library>
libRbt.so (2013.1, Build901 2013/11/27)

>  <Rbt.Parameter_File>
/export/apps/rDock/src/rDock_2013.1_src/data/scripts/dock_solv.prm

>  <Rbt.Receptor>
prm/pocket_docking_7.prm

>  <SCORE>
-18.8664

>  <SCORE.INTER>
-12.4732

>  <SCORE.INTER.CONST>
1

>  <SCORE.INTER.POLAR>
0

>  <SCORE.INTER.ROT>
4

>  <SCORE.INTER.SOLV>
20.1933

>  <SCORE.INTER.VDW>
-21.3132

>  <SCORE.INTER.norm>
-0.519716

>  <SCORE.INTRA>
-6.39323

>  <SCORE.INTRA.DIHEDRAL>
-11.0232

>  <SCORE.INTRA.DIHEDRAL.0>
13.2525

>  <SCORE.INTRA.POLAR>
0

>  <SCORE.INTRA.POLAR.0>
0

>  <SCORE.INTRA.REPUL>
0

>  <SCORE.INTRA.REPUL.0>
0

>  <SCORE.INTRA.SOLV>
0.20817

>  <SCORE.INTRA.SOLV.lig_0>
-70.7221

>  <SCORE.INTRA.VDW>
-0.985704

>  <SCORE.INTRA.VDW.0>
-1.46337

>  <SCORE.INTRA.norm>
-0.266384

>  <SCORE.RESTR>
0

>  <SCORE.RESTR.CAVITY>
0

>  <SCORE.RESTR.norm>
0

>  <SCORE.SYSTEM>
0

>  <SCORE.SYSTEM.CONST>
0

>  <SCORE.SYSTEM.DIHEDRAL>
0

>  <SCORE.SYSTEM.SOLV>
0

>  <SCORE.SYSTEM.norm>
0

>  <SCORE.heavy>
24

>  <SCORE.norm>
-0.786101

>  <RMSD>
9.216

$$$$
ligand
 OpenBabel11021811483D
libRbt.so/2013.1/901 2013/11/27
 24 26  0  0  0  0  0  0  0  0999 V2000
  -10.0197   -9.0795    6.7246 P   0  0  1  0  0  0  0  0  0  0  0  0
  -11.3565   -9.3671    6.0751 O   0  0  0  0  0  0  0  0  0  0  0  0
   -8.9548  -10.1388    6.5642 O   0  5  0  0  0  0  0  0  0  0  0  0
   -9.4954   -7.6749    6.4662 O   0  0  0  0  0  0  0  0  0  0  0  0
  -11.4847   -8.6241    8.9517 C   0  0  0  0  0  0  0  0  0  0  0  0
  -10.3289   -9.1954    8.3146 O   0  0  0  0  0  0  0  0  0  0  0  0
  -11.3253   -8.6878   10.4736 C   0  0  1  0  0  0  0  0  0  0  0  0
  -11.0697  -10.0225   10.9288 O   0  0  0  0  0  0  0  0  0  0  0  0
  -10.1954   -7.8402   11.0327 C   0  0  1  0  0  0  0  0  0  0  0  0
  -10.7046   -6.5420   11.3521 O   0  0  0  0  0  0  0  0  0  0  0  0
   -9.7751   -8.5969   12.2821 C   0  0  1  0  0  0  0  0  0  0  0  0
  -10.6400   -8.2736   13.3802 O   0  0  0  0  0  0  0  0  0  0  0  0
  -10.0575  -10.0470   11.9429 C   0  0  2  0  0  0  0  0  0  0  0  0
   -6.4072  -13.4994   12.8446 N   0  0  0  0  0  0  0  0  0  0  0  0
   -7.3728  -13.0344   13.6697 C   0  0  1  0  0  0  0  0  0  0  0  0
   -7.4485  -13.5128   14.9322 N   0  0  0  0  0  0  0  0  0  0  0  0
   -8.2584  -12.1012   13.2488 N   0  0  0  0  0  0  0  0  0  0  0  0
   -8.1771  -11.6255   11.9832 C   0  0  1  0  0  0  0  0  0  0  0  0
   -7.2002  -12.0812   11.1198 C   0  0  2  0  0  0  0  0  0  0  0  0
   -6.3036  -13.0402   11.5762 C   0  0  0  0  0  0  0  0  0  0  0  0
   -5.4063  -13.4787   10.8296 O   0  0  0  0  0  0  0  0  0  0  0  0
   -7.3652  -11.4299    9.9504 N   0  0  0  0  0  0  0  0  0  0  0  0
   -8.4238  -10.5977   10.0875 C   0  0  0  0  0  0  0  0  0  0  0  0
   -8.9049  -10.7310   11.3275 N   0  0  1  0  0  0  0  0  0  0  0  0
  1  2  1  6  0  0  0
  1  3  1  0  0  0  0
  1  4  2  0  0  0  0
  1  6  1  0  0  0  0
  5  6  1  0  0  0  0
  7  5  1  6  0  0  0
  7  8  1  0  0  0  0
  7  9  1  0  0  0  0
  9 10  1  1  0  0  0
  9 11  1  0  0  0  0
 11 12  1  1  0  0  0
 11 13  1  0  0  0  0
 13  8  1  6  0  0  0
 13 24  1  0  0  0  0
 14 15  1  0  0  0  0
 14 20  1  0  0  0  0
 15 16  1  1  0  0  0
 15 17  1  0  0  0  0
 18 17  1  6  0  0  0
 18 19  1  0  0  0  0
 18 24  1  0  0  0  0
 19 20  1  1  0  0  0
 19 22  1  0  0  0  0
 20 21  2  0  0  0  0
 22 23  1  0  0  0  0
 24 23  1  6  0  0  0
M  CHG  1   3  -1
M  END
>  <CHROM.1>
-44.22576723,-55.08591144,-169.15922136,-138.19723352,-9.13630314,-10.24495013
10.37925159,-2.32532471,-0.85156591,1.63816373

>  <Name>
ligand

>  <RI>
0

>  <Rbt.Current_Directory>
/home/itssahil/PROJECTS/Mol_Feturizer/New_Systems/rnas/3SLQ

>  <Rbt.Executable>
rbdock ($Id: //depot/dev/client3/rdock/2013.1/src/exe/rbdock.cxx#4 $)

>  <Rbt.Library>
libRbt.so (2013.1, Build901 2013/11/27)

>  <Rbt.Parameter_File>
/export/apps/rDock/src/rDock_2013.1_src/data/scripts/dock_solv.prm

>  <Rbt.Receptor>
prm/pocket_docking_7.prm

>  <SCORE>
-18.931

>  <SCORE.INTER>
-12.5474

>  <SCORE.INTER.CONST>
1

>  <SCORE.INTER.POLAR>
0

>  <SCORE.INTER.ROT>
4

>  <SCORE.INTER.SOLV>
19.8974

>  <SCORE.INTER.VDW>
-21.264

>  <SCORE.INTER.norm>
-0.522806

>  <SCORE.INTRA>
-6.38364

>  <SCORE.INTRA.DIHEDRAL>
-10.9941

>  <SCORE.INTRA.DIHEDRAL.0>
13.2525

>  <SCORE.INTRA.POLAR>
0

>  <SCORE.INTRA.POLAR.0>
0

>  <SCORE.INTRA.REPUL>
0

>  <SCORE.INTRA.REPUL.0>
0

>  <SCORE.INTRA.SOLV>
0.235208

>  <SCORE.INTRA.SOLV.lig_0>
-70.7221

>  <SCORE.INTRA.VDW>
-1.00421

>  <SCORE.INTRA.VDW.0>
-1.46337

>  <SCORE.INTRA.norm>
-0.265985

>  <SCORE.RESTR>
0

>  <SCORE.RESTR.CAVITY>
0

>  <SCORE.RESTR.norm>
0

>  <SCORE.SYSTEM>
0

>  <SCORE.SYSTEM.CONST>
0

>  <SCORE.SYSTEM.DIHEDRAL>
0

>  <SCORE.SYSTEM.SOLV>
0

>  <SCORE.SYSTEM.norm>
0

>  <SCORE.heavy>
24

>  <SCORE.norm>
-0.788791

>  <RMSD>
9.217

$$$$
ligand
 OpenBabel11021811483D
libRbt.so/2013.1/901 2013/11/27
 24 26  0  0  0  0  0  0  0  0999 V2000
  -10.2012   -9.2400    6.6848 P   0  0  1  0  0  0  0  0  0  0  0  0
   -9.4507   -7.9513    6.4253 O   0  0  0  0  0  0  0  0  0  0  0  0
  -11.6275   -9.2964    6.1903 O   0  5  0  0  0  0  0  0  0  0  0  0
   -9.4114  -10.4953    6.3455 O   0  0  0  0  0  0  0  0  0  0  0  0
  -11.5581   -8.6116    8.9381 C   0  0  0  0  0  0  0  0  0  0  0  0
  -10.4349   -9.2352    8.2918 O   0  0  0  0  0  0  0  0  0  0  0  0
  -11.3788   -8.6631   10.4583 C   0  0  1  0  0  0  0  0  0  0  0  0
  -11.1075   -9.9926   10.9197 O   0  0  0  0  0  0  0  0  0  0  0  0
  -10.2480   -7.8033   10.9966 C   0  0  1  0  0  0  0  0  0  0  0  0
  -10.7627   -6.5065   11.3133 O   0  0  0  0  0  0  0  0  0  0  0  0
   -9.8062   -8.5478   12.2460 C   0  0  1  0  0  0  0  0  0  0  0  0
  -10.6593   -8.2228   13.3527 O   0  0  0  0  0  0  0  0  0  0  0  0
  -10.0822  -10.0024   11.9208 C   0  0  2  0  0  0  0  0  0  0  0  0
   -6.4245  -13.4565   12.7846 N   0  0  0  0  0  0  0  0  0  0  0  0
   -7.3858  -12.9964   13.6175 C   0  0  1  0  0  0  0  0  0  0  0  0
   -7.4541  -13.4813   14.8779 N   0  0  0  0  0  0  0  0  0  0  0  0
   -8.2744  -12.0618   13.2063 N   0  0  0  0  0  0  0  0  0  0  0  0
   -8.2004  -11.5796   11.9426 C   0  0  1  0  0  0  0  0  0  0  0  0
   -7.2281  -12.0302   11.0716 C   0  0  2  0  0  0  0  0  0  0  0  0
   -6.3282  -12.9908   11.5180 C   0  0  0  0  0  0  0  0  0  0  0  0
   -5.4349  -13.4248   10.7642 O   0  0  0  0  0  0  0  0  0  0  0  0
   -7.4000  -11.3731    9.9064 N   0  0  0  0  0  0  0  0  0  0  0  0
   -8.4585  -10.5424   10.0535 C   0  0  0  0  0  0  0  0  0  0  0  0
   -8.9326  -10.6823   11.2956 N   0  0  1  0  0  0  0  0  0  0  0  0
  1  2  1  6  0  0  0
  1  3  1  0  0  0  0
  1  4  2  0  0  0  0
  1  6  1  0  0  0  0
  5  6  1  0  0  0  0
  7  5  1  6  0  0  0
  7  8  1  0  0  0  0
  7  9  1  0  0  0  0
  9 10  1  1  0  0  0
  9 11  1  0  0  0  0
 11 12  1  1  0  0  0
 11 13  1  0  0  0  0
 13  8  1  6  0  0  0
 13 24  1  0  0  0  0
 14 15  1  0  0  0  0
 14 20  1  0  0  0  0
 15 16  1  1  0  0  0
 15 17  1  0  0  0  0
 18 17  1  6  0  0  0
 18 19  1  0  0  0  0
 18 24  1  0  0  0  0
 19 20  1  1  0  0  0
 19 22  1  0  0  0  0
 20 21  2  0  0  0  0
 22 23  1  0  0  0  0
 24 23  1  6  0  0  0
M  CHG  1   3  -1
M  END
>  <CHROM.1>
87.29504205,-52.41730411,-173.67771358,-137.29612905,-9.21115657,-10.25546936
10.34028721,-2.37557251,-0.85378584,1.57254992

>  <Name>
ligand

>  <RI>
0

>  <Rbt.Current_Directory>
/home/itssahil/PROJECTS/Mol_Feturizer/New_Systems/rnas/3SLQ

>  <Rbt.Executable>
rbdock ($Id: //depot/dev/client3/rdock/2013.1/src/exe/rbdock.cxx#4 $)

>  <Rbt.Library>
libRbt.so (2013.1, Build901 2013/11/27)

>  <Rbt.Parameter_File>
/export/apps/rDock/src/rDock_2013.1_src/data/scripts/dock_solv.prm

>  <Rbt.Receptor>
prm/pocket_docking_8.prm

>  <SCORE>
-18.6937

>  <SCORE.INTER>
-12.9056

>  <SCORE.INTER.CONST>
1

>  <SCORE.INTER.POLAR>
0

>  <SCORE.INTER.ROT>
4

>  <SCORE.INTER.SOLV>
19.7898

>  <SCORE.INTER.VDW>
-21.467

>  <SCORE.INTER.norm>
-0.537733

>  <SCORE.INTRA>
-5.78812

>  <SCORE.INTRA.DIHEDRAL>
-10.601

>  <SCORE.INTRA.DIHEDRAL.0>
13.2525

>  <SCORE.INTRA.POLAR>
0

>  <SCORE.INTRA.POLAR.0>
0

>  <SCORE.INTRA.REPUL>
0

>  <SCORE.INTRA.REPUL.0>
0

>  <SCORE.INTRA.SOLV>
0.390447

>  <SCORE.INTRA.SOLV.lig_0>
-70.7221

>  <SCORE.INTRA.VDW>
-0.682847

>  <SCORE.INTRA.VDW.0>
-1.46337

>  <SCORE.INTRA.norm>
-0.241172

>  <SCORE.RESTR>
0

>  <SCORE.RESTR.CAVITY>
0

>  <SCORE.RESTR.norm>
0

>  <SCORE.SYSTEM>
0

>  <SCORE.SYSTEM.CONST>
0

>  <SCORE.SYSTEM.DIHEDRAL>
0

>  <SCORE.SYSTEM.SOLV>
0

>  <SCORE.SYSTEM.norm>
0

>  <SCORE.heavy>
24

>  <SCORE.norm>
-0.778905

>  <RMSD>
9.219

$$$$
ligand
 OpenBabel11021811483D
libRbt.so/2013.1/901 2013/11/27
 24 26  0  0  0  0  0  0  0  0999 V2000
  -10.0485   -9.3488    6.6673 P   0  0  1  0  0  0  0  0  0  0  0  0
   -9.2437  -10.6041    6.4065 O   0  0  0  0  0  0  0  0  0  0  0  0
   -9.3243   -8.0367    6.4783 O   0  5  0  0  0  0  0  0  0  0  0  0
  -11.4296   -9.3553    6.0291 O   0  0  0  0  0  0  0  0  0  0  0  0
  -11.4081   -8.7919    8.9378 C   0  0  0  0  0  0  0  0  0  0  0  0
  -10.2598   -9.3519    8.2775 O   0  0  0  0  0  0  0  0  0  0  0  0
  -11.2090   -8.8361   10.4558 C   0  0  1  0  0  0  0  0  0  0  0  0
  -10.9050  -10.1587   10.9166 O   0  0  0  0  0  0  0  0  0  0  0  0
  -10.0895   -7.9521   10.9782 C   0  0  1  0  0  0  0  0  0  0  0  0
  -10.6265   -6.6654   11.2985 O   0  0  0  0  0  0  0  0  0  0  0  0
   -9.6172   -8.6845   12.2236 C   0  0  1  0  0  0  0  0  0  0  0  0
  -10.4630   -8.3743   13.3401 O   0  0  0  0  0  0  0  0  0  0  0  0
   -9.8675  -10.1452   11.9050 C   0  0  2  0  0  0  0  0  0  0  0  0
   -6.2138  -13.6239   12.6834 N   0  0  0  0  0  0  0  0  0  0  0  0
   -7.1825  -13.1926   13.5230 C   0  0  1  0  0  0  0  0  0  0  0  0
   -7.2609  -13.7194   14.7659 N   0  0  0  0  0  0  0  0  0  0  0  0
   -8.0685  -12.2453   13.1359 N   0  0  0  0  0  0  0  0  0  0  0  0
   -7.9844  -11.7210   11.8898 C   0  0  1  0  0  0  0  0  0  0  0  0
   -7.0044  -12.1415   11.0123 C   0  0  2  0  0  0  0  0  0  0  0  0
   -6.1074  -13.1160   11.4339 C   0  0  0  0  0  0  0  0  0  0  0  0
   -5.2074  -13.5239   10.6735 O   0  0  0  0  0  0  0  0  0  0  0  0
   -7.1672  -11.4459    9.8684 N   0  0  0  0  0  0  0  0  0  0  0  0
   -8.2276  -10.6213   10.0343 C   0  0  0  0  0  0  0  0  0  0  0  0
   -8.7120  -10.8031   11.2670 N   0  0  1  0  0  0  0  0  0  0  0  0
  1  2  1  6  0  0  0
  1  3  1  0  0  0  0
  1  4  2  0  0  0  0
  1  6  1  0  0  0  0
  5  6  1  0  0  0  0
  7  5  1  6  0  0  0
  7  8  1  0  0  0  0
  7  9  1  0  0  0  0
  9 10  1  1  0  0  0
  9 11  1  0  0  0  0
 11 12  1  1  0  0  0
 11 13  1  0  0  0  0
 13  8  1  6  0  0  0
 13 24  1  0  0  0  0
 14 15  1  0  0  0  0
 14 20  1  0  0  0  0
 15 16  1  1  0  0  0
 15 17  1  0  0  0  0
 18 17  1  6  0  0  0
 18 19  1  0  0  0  0
 18 24  1  0  0  0  0
 19 20  1  1  0  0  0
 19 22  1  0  0  0  0
 20 21  2  0  0  0  0
 22 23  1  0  0  0  0
 24 23  1  6  0  0  0
M  CHG  1   3  -1
M  END
>  <CHROM.1>
-149.39507345,-54.40498318,-174.04425398,-134.67646077,-9.02172909,-10.38965848
10.30405299,-2.38650809,-0.84768249,1.57966335

>  <Name>
ligand

>  <RI>
0

>  <Rbt.Current_Directory>
/home/itssahil/PROJECTS/Mol_Feturizer/New_Systems/rnas/3SLQ

>  <Rbt.Executable>
rbdock ($Id: //depot/dev/client3/rdock/2013.1/src/exe/rbdock.cxx#4 $)

>  <Rbt.Library>
libRbt.so (2013.1, Build901 2013/11/27)

>  <Rbt.Parameter_File>
/export/apps/rDock/src/rDock_2013.1_src/data/scripts/dock_solv.prm

>  <Rbt.Receptor>
prm/pocket_docking_7.prm

>  <SCORE>
-20.4129

>  <SCORE.INTER>
-14.4935

>  <SCORE.INTER.CONST>
1

>  <SCORE.INTER.POLAR>
0

>  <SCORE.INTER.ROT>
4

>  <SCORE.INTER.SOLV>
16.8547

>  <SCORE.INTER.VDW>
-21.5472

>  <SCORE.INTER.norm>
-0.603896

>  <SCORE.INTRA>
-5.91938

>  <SCORE.INTRA.DIHEDRAL>
-10.51

>  <SCORE.INTRA.DIHEDRAL.0>
13.2525

>  <SCORE.INTRA.POLAR>
0

>  <SCORE.INTRA.POLAR.0>
0

>  <SCORE.INTRA.REPUL>
0

>  <SCORE.INTRA.REPUL.0>
0

>  <SCORE.INTRA.SOLV>
0.608409

>  <SCORE.INTRA.SOLV.lig_0>
-70.7221

>  <SCORE.INTRA.VDW>
-0.968591

>  <SCORE.INTRA.VDW.0>
-1.46337

>  <SCORE.INTRA.norm>
-0.246641

>  <SCORE.RESTR>
0

>  <SCORE.RESTR.CAVITY>
0

>  <SCORE.RESTR.norm>
0

>  <SCORE.SYSTEM>
0

>  <SCORE.SYSTEM.CONST>
0

>  <SCORE.SYSTEM.DIHEDRAL>
0

>  <SCORE.SYSTEM.SOLV>
0

>  <SCORE.SYSTEM.norm>
0

>  <SCORE.heavy>
24

>  <SCORE.norm>
-0.850536

>  <RMSD>
9.220

$$$$
ligand
 OpenBabel11021811483D
libRbt.so/2013.1/901 2013/11/27
 24 26  0  0  0  0  0  0  0  0999 V2000
  -10.0591   -9.3487    6.6592 P   0  0  1  0  0  0  0  0  0  0  0  0
   -9.2410  -10.5927    6.3858 O   0  0  0  0  0  0  0  0  0  0  0  0
   -9.3492   -8.0272    6.4819 O   0  5  0  0  0  0  0  0  0  0  0  0
  -11.4406   -9.3640    6.0221 O   0  0  0  0  0  0  0  0  0  0  0  0
  -11.4107   -8.8057    8.9377 C   0  0  0  0  0  0  0  0  0  0  0  0
  -10.2689   -9.3693    8.2694 O   0  0  0  0  0  0  0  0  0  0  0  0
  -11.2025   -8.8536   10.4544 C   0  0  1  0  0  0  0  0  0  0  0  0
  -10.8857  -10.1754   10.9088 O   0  0  0  0  0  0  0  0  0  0  0  0
  -10.0868   -7.9629   10.9735 C   0  0  1  0  0  0  0  0  0  0  0  0
  -10.6318   -6.6813   11.3013 O   0  0  0  0  0  0  0  0  0  0  0  0
   -9.6018   -8.6959   12.2135 C   0  0  1  0  0  0  0  0  0  0  0  0
  -10.4435   -8.3960   13.3360 O   0  0  0  0  0  0  0  0  0  0  0  0
   -9.8427  -10.1573   11.8913 C   0  0  2  0  0  0  0  0  0  0  0  0
   -6.2502  -13.7178   12.5793 N   0  0  0  0  0  0  0  0  0  0  0  0
   -7.2266  -13.3085   13.4210 C   0  0  1  0  0  0  0  0  0  0  0  0
   -7.3327  -13.8862   14.6389 N   0  0  0  0  0  0  0  0  0  0  0  0
   -8.0931  -12.3332   13.0604 N   0  0  0  0  0  0  0  0  0  0  0  0
   -7.9813  -11.7579   11.8392 C   0  0  1  0  0  0  0  0  0  0  0  0
   -6.9928  -12.1550   10.9603 C   0  0  2  0  0  0  0  0  0  0  0  0
   -6.1163  -13.1592   11.3543 C   0  0  0  0  0  0  0  0  0  0  0  0
   -5.2094  -13.5474   10.5917 O   0  0  0  0  0  0  0  0  0  0  0  0
   -7.1272  -11.4094    9.8445 N   0  0  0  0  0  0  0  0  0  0  0  0
   -8.1788  -10.5774   10.0285 C   0  0  0  0  0  0  0  0  0  0  0  0
   -8.6859  -10.8042   11.2444 N   0  0  1  0  0  0  0  0  0  0  0  0
  1  2  1  6  0  0  0
  1  3  1  0  0  0  0
  1  4  2  0  0  0  0
  1  6  1  0  0  0  0
  5  6  1  0  0  0  0
  7  5  1  6  0  0  0
  7  8  1  0  0  0  0
  7  9  1  0  0  0  0
  9 10  1  1  0  0  0
  9 11  1  0  0  0  0
 11 12  1  1  0  0  0
 11 13  1  0  0  0  0
 13  8  1  6  0  0  0
 13 24  1  0  0  0  0
 14 15  1  0  0  0  0
 14 20  1  0  0  0  0
 15 16  1  1  0  0  0
 15 17  1  0  0  0  0
 18 17  1  6  0  0  0
 18 19  1  0  0  0  0
 18 24  1  0  0  0  0
 19 20  1  1  0  0  0
 19 22  1  0  0  0  0
 20 21  2  0  0  0  0
 22 23  1  0  0  0  0
 24 23  1  6  0  0  0
M  CHG  1   3  -1
M  END
>  <CHROM.1>
-150.60712688,-53.71858979,-173.30094626,-131.83037385,-9.02371766,-10.41377848
10.27297774,-2.39659937,-0.85491076,1.58762060

>  <Name>
ligand

>  <RI>
0

>  <Rbt.Current_Directory>
/home/itssahil/PROJECTS/Mol_Feturizer/New_Systems/rnas/3SLQ

>  <Rbt.Executable>
rbdock ($Id: //depot/dev/client3/rdock/2013.1/src/exe/rbdock.cxx#4 $)

>  <Rbt.Library>
libRbt.so (2013.1, Build901 2013/11/27)

>  <Rbt.Parameter_File>
/export/apps/rDock/src/rDock_2013.1_src/data/scripts/dock_solv.prm

>  <Rbt.Receptor>
prm/pocket_docking_7.prm

>  <SCORE>
-20.4027

>  <SCORE.INTER>
-14.4701

>  <SCORE.INTER.CONST>
1

>  <SCORE.INTER.POLAR>
0

>  <SCORE.INTER.ROT>
4

>  <SCORE.INTER.SOLV>
17.3133

>  <SCORE.INTER.VDW>
-21.6845

>  <SCORE.INTER.norm>
-0.60292

>  <SCORE.INTRA>
-5.93264

>  <SCORE.INTRA.DIHEDRAL>
-10.5139

>  <SCORE.INTRA.DIHEDRAL.0>
13.2525

>  <SCORE.INTRA.POLAR>
0

>  <SCORE.INTRA.POLAR.0>
0

>  <SCORE.INTRA.REPUL>
0

>  <SCORE.INTRA.REPUL.0>
0

>  <SCORE.INTRA.SOLV>
0.61676

>  <SCORE.INTRA.SOLV.lig_0>
-70.7221

>  <SCORE.INTRA.VDW>
-0.984083

>  <SCORE.INTRA.VDW.0>
-1.46337

>  <SCORE.INTRA.norm>
-0.247193

>  <SCORE.RESTR>
0

>  <SCORE.RESTR.CAVITY>
0

>  <SCORE.RESTR.norm>
0

>  <SCORE.SYSTEM>
0

>  <SCORE.SYSTEM.CONST>
0

>  <SCORE.SYSTEM.DIHEDRAL>
0

>  <SCORE.SYSTEM.SOLV>
0

>  <SCORE.SYSTEM.norm>
0

>  <SCORE.heavy>
24

>  <SCORE.norm>
-0.850114

>  <RMSD>
9.242

$$$$
ligand
 OpenBabel11021811483D
libRbt.so/2013.1/901 2013/11/27
 24 26  0  0  0  0  0  0  0  0999 V2000
   -9.8438   -9.0419    6.6777 P   0  0  1  0  0  0  0  0  0  0  0  0
   -9.0480   -7.8571    6.1734 O   0  0  0  0  0  0  0  0  0  0  0  0
  -11.2294   -9.2131    6.1011 O   0  5  0  0  0  0  0  0  0  0  0  0
   -9.0580  -10.3440    6.7163 O   0  0  0  0  0  0  0  0  0  0  0  0
   -9.2627   -8.0412    9.1220 C   0  0  0  0  0  0  0  0  0  0  0  0
  -10.1983   -8.6453    8.2121 O   0  0  0  0  0  0  0  0  0  0  0  0
   -9.8589   -8.0022   10.5323 C   0  0  1  0  0  0  0  0  0  0  0  0
  -10.3921   -9.2740   10.9223 O   0  0  0  0  0  0  0  0  0  0  0  0
   -8.8807   -7.6140   11.6278 C   0  0  1  0  0  0  0  0  0  0  0  0
   -8.9189   -6.1944   11.8010 O   0  0  0  0  0  0  0  0  0  0  0  0
   -9.4185   -8.3392   12.8505 C   0  0  1  0  0  0  0  0  0  0  0  0
  -10.4824   -7.5883   13.4527 O   0  0  0  0  0  0  0  0  0  0  0  0
  -10.0614   -9.5881   12.2808 C   0  0  2  0  0  0  0  0  0  0  0  0
   -7.4446  -12.9196   15.1287 N   0  0  0  0  0  0  0  0  0  0  0  0
   -8.2497  -11.9042   15.5162 C   0  0  1  0  0  0  0  0  0  0  0  0
   -8.4426  -11.6820   16.8360 N   0  0  0  0  0  0  0  0  0  0  0  0
   -8.8604  -11.1127   14.6036 N   0  0  0  0  0  0  0  0  0  0  0  0
   -8.6627  -11.3399   13.2830 C   0  0  1  0  0  0  0  0  0  0  0  0
   -7.8445  -12.3685   12.8590 C   0  0  2  0  0  0  0  0  0  0  0  0
   -7.2299  -13.1674   13.8161 C   0  0  0  0  0  0  0  0  0  0  0  0
   -6.4833  -14.1067   13.4766 O   0  0  0  0  0  0  0  0  0  0  0  0
   -7.8378  -12.3438   11.5106 N   0  0  0  0  0  0  0  0  0  0  0  0
   -8.6392  -11.3283   11.1127 C   0  0  0  0  0  0  0  0  0  0  0  0
   -9.1325  -10.7310   12.2021 N   0  0  1  0  0  0  0  0  0  0  0  0
  1  2  1  6  0  0  0
  1  3  1  0  0  0  0
  1  4  2  0  0  0  0
  1  6  1  0  0  0  0
  5  6  1  0  0  0  0
  7  5  1  6  0  0  0
  7  8  1  0  0  0  0
  7  9  1  0  0  0  0
  9 10  1  1  0  0  0
  9 11  1  0  0  0  0
 11 12  1  6  0  0  0
 11 13  1  0  0  0  0
 13  8  1  6  0  0  0
 13 24  1  0  0  0  0
 14 15  1  0  0  0  0
 14 20  1  0  0  0  0
 15 16  1  1  0  0  0
 15 17  1  0  0  0  0
 18 17  1  6  0  0  0
 18 19  1  0  0  0  0
 18 24  1  0  0  0  0
 19 20  1  1  0  0  0
 19 22  1  0  0  0  0
 20 21  2  0  0  0  0
 22 23  1  0  0  0  0
 24 23  1  6  0  0  0
M  CHG  1   3  -1
M  END
>  <CHROM.1>
-42.59415919,49.26955943,-171.35915597,-176.57471848,-9.05961769,-9.98556991
11.16198329,-2.23745490,-1.19585352,1.38394266

>  <Name>
ligand

>  <RI>
0

>  <Rbt.Current_Directory>
/home/itssahil/PROJECTS/Mol_Feturizer/New_Systems/rnas/3SLQ

>  <Rbt.Executable>
rbdock ($Id: //depot/dev/client3/rdock/2013.1/src/exe/rbdock.cxx#4 $)

>  <Rbt.Library>
libRbt.so (2013.1, Build901 2013/11/27)

>  <Rbt.Parameter_File>
/export/apps/rDock/src/rDock_2013.1_src/data/scripts/dock_solv.prm

>  <Rbt.Receptor>
prm/pocket_docking_7.prm

>  <SCORE>
-14.8399

>  <SCORE.INTER>
-9.15969

>  <SCORE.INTER.CONST>
1

>  <SCORE.INTER.POLAR>
0

>  <SCORE.INTER.ROT>
4

>  <SCORE.INTER.SOLV>
16.1376

>  <SCORE.INTER.VDW>
-17.7523

>  <SCORE.INTER.norm>
-0.381654

>  <SCORE.INTRA>
-5.68023

>  <SCORE.INTRA.DIHEDRAL>
-10.8105

>  <SCORE.INTRA.DIHEDRAL.0>
13.2525

>  <SCORE.INTRA.POLAR>
0

>  <SCORE.INTRA.POLAR.0>
0

>  <SCORE.INTRA.REPUL>
0

>  <SCORE.INTRA.REPUL.0>
0

>  <SCORE.INTRA.SOLV>
-0.13153

>  <SCORE.INTRA.SOLV.lig_0>
-70.7221

>  <SCORE.INTRA.VDW>
-0.209214

>  <SCORE.INTRA.VDW.0>
-1.46337

>  <SCORE.INTRA.norm>
-0.236676

>  <SCORE.RESTR>
0

>  <SCORE.RESTR.CAVITY>
0

>  <SCORE.RESTR.norm>
0

>  <SCORE.SYSTEM>
0

>  <SCORE.SYSTEM.CONST>
0

>  <SCORE.SYSTEM.DIHEDRAL>
0

>  <SCORE.SYSTEM.SOLV>
0

>  <SCORE.SYSTEM.norm>
0

>  <SCORE.heavy>
24

>  <SCORE.norm>
-0.61833

>  <RMSD>
9.287

$$$$
ligand
 OpenBabel11021811483D
libRbt.so/2013.1/901 2013/11/27
 24 26  0  0  0  0  0  0  0  0999 V2000
   -9.9763   -8.9488    7.1794 P   0  0  1  0  0  0  0  0  0  0  0  0
  -11.0712   -9.8452    6.6416 O   0  0  0  0  0  0  0  0  0  0  0  0
   -8.5593   -9.3368    6.8281 O   0  5  0  0  0  0  0  0  0  0  0  0
  -10.2434   -7.4632    6.9891 O   0  0  0  0  0  0  0  0  0  0  0  0
  -11.1332   -9.0456    9.6219 C   0  0  0  0  0  0  0  0  0  0  0  0
   -9.9862   -9.2413    8.7767 O   0  0  0  0  0  0  0  0  0  0  0  0
  -10.7420   -9.2562   11.0876 C   0  0  1  0  0  0  0  0  0  0  0  0
  -10.3144  -10.6009   11.3387 O   0  0  0  0  0  0  0  0  0  0  0  0
   -9.6126   -8.3677   11.5804 C   0  0  1  0  0  0  0  0  0  0  0  0
  -10.1707   -7.1668   12.1218 O   0  0  0  0  0  0  0  0  0  0  0  0
   -8.9498   -9.2096   12.6585 C   0  0  1  0  0  0  0  0  0  0  0  0
   -9.6628   -9.0912   13.8978 O   0  0  0  0  0  0  0  0  0  0  0  0
   -9.1626  -10.6355   12.1905 C   0  0  2  0  0  0  0  0  0  0  0  0
   -5.6269  -14.3000   11.8336 N   0  0  0  0  0  0  0  0  0  0  0  0
   -6.5393  -14.0782   12.8072 C   0  0  1  0  0  0  0  0  0  0  0  0
   -6.5854  -14.9122   13.8705 N   0  0  0  0  0  0  0  0  0  0  0  0
   -7.4010  -13.0372   12.7298 N   0  0  0  0  0  0  0  0  0  0  0  0
   -7.3494  -12.2049   11.6624 C   0  0  1  0  0  0  0  0  0  0  0  0
   -6.4270  -12.4067   10.6546 C   0  0  2  0  0  0  0  0  0  0  0  0
   -5.5539  -13.4834   10.7575 C   0  0  0  0  0  0  0  0  0  0  0  0
   -4.7057  -13.7016    9.8700 O   0  0  0  0  0  0  0  0  0  0  0  0
   -6.6102  -11.4291    9.7437 N   0  0  0  0  0  0  0  0  0  0  0  0
   -7.6270  -10.6475   10.1763 C   0  0  0  0  0  0  0  0  0  0  0  0
   -8.0644  -11.1345   11.3418 N   0  0  1  0  0  0  0  0  0  0  0  0
  1  2  1  6  0  0  0
  1  3  1  0  0  0  0
  1  4  2  0  0  0  0
  1  6  1  0  0  0  0
  5  6  1  0  0  0  0
  7  5  1  6  0  0  0
  7  8  1  0  0  0  0
  7  9  1  0  0  0  0
  9 10  1  1  0  0  0
  9 11  1  0  0  0  0
 11 12  1  1  0  0  0
 11 13  1  0  0  0  0
 13  8  1  6  0  0  0
 13 24  1  0  0  0  0
 14 15  1  0  0  0  0
 14 20  1  0  0  0  0
 15 16  1  1  0  0  0
 15 17  1  0  0  0  0
 18 17  1  6  0  0  0
 18 19  1  0  0  0  0
 18 24  1  0  0  0  0
 19 20  1  1  0  0  0
 19 22  1  0  0  0  0
 20 21  2  0  0  0  0
 22 23  1  0  0  0  0
 24 23  1  6  0  0  0
M  CHG  1   3  -1
M  END
>  <CHROM.1>
-58.52655767,-63.49000713,-173.22189380,-123.93531490,-8.57059187,-10.63555099
10.43561751,-2.53882626,-0.84839452,1.66715835

>  <Name>
ligand

>  <RI>
0

>  <Rbt.Current_Directory>
/home/itssahil/PROJECTS/Mol_Feturizer/New_Systems/rnas/3SLQ

>  <Rbt.Executable>
rbdock ($Id: //depot/dev/client3/rdock/2013.1/src/exe/rbdock.cxx#4 $)

>  <Rbt.Library>
libRbt.so (2013.1, Build901 2013/11/27)

>  <Rbt.Parameter_File>
/export/apps/rDock/src/rDock_2013.1_src/data/scripts/dock_solv.prm

>  <Rbt.Receptor>
prm/pocket_docking_8.prm

>  <SCORE>
-18.1952

>  <SCORE.INTER>
-11.3715

>  <SCORE.INTER.CONST>
1

>  <SCORE.INTER.POLAR>
0

>  <SCORE.INTER.ROT>
4

>  <SCORE.INTER.SOLV>
13.8566

>  <SCORE.INTER.VDW>
-18.4665

>  <SCORE.INTER.norm>
-0.473813

>  <SCORE.INTRA>
-6.82373

>  <SCORE.INTRA.DIHEDRAL>
-11.7739

>  <SCORE.INTRA.DIHEDRAL.0>
13.2525

>  <SCORE.INTRA.POLAR>
0

>  <SCORE.INTRA.POLAR.0>
0

>  <SCORE.INTRA.REPUL>
0

>  <SCORE.INTRA.REPUL.0>
0

>  <SCORE.INTRA.SOLV>
0.118064

>  <SCORE.INTRA.SOLV.lig_0>
-70.7221

>  <SCORE.INTRA.VDW>
-0.99583

>  <SCORE.INTRA.VDW.0>
-1.46337

>  <SCORE.INTRA.norm>
-0.284322

>  <SCORE.RESTR>
0

>  <SCORE.RESTR.CAVITY>
0

>  <SCORE.RESTR.norm>
0

>  <SCORE.SYSTEM>
0

>  <SCORE.SYSTEM.CONST>
0

>  <SCORE.SYSTEM.DIHEDRAL>
0

>  <SCORE.SYSTEM.SOLV>
0

>  <SCORE.SYSTEM.norm>
0

>  <SCORE.heavy>
24

>  <SCORE.norm>
-0.758135

>  <RMSD>
9.321

$$$$
ligand
 OpenBabel11021811483D
libRbt.so/2013.1/901 2013/11/27
 24 26  0  0  0  0  0  0  0  0999 V2000
   -9.3431   -8.4638    6.9956 P   0  0  1  0  0  0  0  0  0  0  0  0
   -8.4722   -7.7233    6.0033 O   0  0  0  0  0  0  0  0  0  0  0  0
  -10.1272   -7.6119    7.9658 O   0  5  0  0  0  0  0  0  0  0  0  0
  -10.1810   -9.5728    6.3769 O   0  0  0  0  0  0  0  0  0  0  0  0
   -8.6068  -10.2350    8.9020 C   0  0  0  0  0  0  0  0  0  0  0  0
   -8.2763   -9.1660    7.9986 O   0  0  0  0  0  0  0  0  0  0  0  0
   -9.4249   -9.6900   10.0766 C   0  0  1  0  0  0  0  0  0  0  0  0
   -9.9269  -10.7412   10.9114 O   0  0  0  0  0  0  0  0  0  0  0  0
   -8.6657   -8.7566   11.0040 C   0  0  1  0  0  0  0  0  0  0  0  0
   -8.8274   -7.4123   10.5421 O   0  0  0  0  0  0  0  0  0  0  0  0
   -9.3441   -8.9697   12.3474 C   0  0  1  0  0  0  0  0  0  0  0  0
  -10.5399   -8.1820   12.4370 O   0  0  0  0  0  0  0  0  0  0  0  0
   -9.8001  -10.4145   12.3009 C   0  0  2  0  0  0  0  0  0  0  0  0
   -7.7083  -12.1279   16.6305 N   0  0  0  0  0  0  0  0  0  0  0  0
   -8.6586  -11.1823   16.4508 C   0  0  1  0  0  0  0  0  0  0  0  0
   -9.1831  -10.5605   17.5309 N   0  0  0  0  0  0  0  0  0  0  0  0
   -9.0875  -10.8533   15.2099 N   0  0  0  0  0  0  0  0  0  0  0  0
   -8.5577  -11.4793   14.1318 C   0  0  1  0  0  0  0  0  0  0  0  0
   -7.5849  -12.4474   14.2858 C   0  0  2  0  0  0  0  0  0  0  0  0
   -7.1624  -12.7676   15.5707 C   0  0  0  0  0  0  0  0  0  0  0  0
   -6.2863  -13.6355   15.7545 O   0  0  0  0  0  0  0  0  0  0  0  0
   -7.2523  -12.8793   13.0523 N   0  0  0  0  0  0  0  0  0  0  0  0
   -8.0080  -12.1987   12.1591 C   0  0  0  0  0  0  0  0  0  0  0  0
   -8.7956  -11.3543   12.8327 N   0  0  1  0  0  0  0  0  0  0  0  0
  1  2  1  6  0  0  0
  1  3  1  0  0  0  0
  1  4  2  0  0  0  0
  1  6  1  0  0  0  0
  5  6  1  0  0  0  0
  7  5  1  6  0  0  0
  7  8  1  0  0  0  0
  7  9  1  0  0  0  0
  9 10  1  6  0  0  0
  9 11  1  0  0  0  0
 11 12  1  6  0  0  0
 11 13  1  0  0  0  0
 13  8  1  6  0  0  0
 13 24  1  0  0  0  0
 14 15  1  0  0  0  0
 14 20  1  0  0  0  0
 15 16  1  6  0  0  0
 15 17  1  0  0  0  0
 18 17  1  1  0  0  0
 18 19  1  0  0  0  0
 18 24  1  0  0  0  0
 19 20  1  6  0  0  0
 19 22  1  0  0  0  0
 20 21  2  0  0  0  0
 22 23  1  0  0  0  0
 24 23  1  1  0  0  0
M  CHG  1   3  -1
M  END
>  <CHROM.1>
-164.02102713,172.36824635,-73.54516260,-170.03245925,-8.80104547,-10.17489013
11.57433721,-1.85822837,-1.01438604,1.73120332

>  <Name>
ligand

>  <RI>
0

>  <Rbt.Current_Directory>
/home/itssahil/PROJECTS/Mol_Feturizer/New_Systems/rnas/3SLQ

>  <Rbt.Executable>
rbdock ($Id: //depot/dev/client3/rdock/2013.1/src/exe/rbdock.cxx#4 $)

>  <Rbt.Library>
libRbt.so (2013.1, Build901 2013/11/27)

>  <Rbt.Parameter_File>
/export/apps/rDock/src/rDock_2013.1_src/data/scripts/dock_solv.prm

>  <Rbt.Receptor>
prm/pocket_docking_6.prm

>  <SCORE>
-13.5053

>  <SCORE.INTER>
-9.29333

>  <SCORE.INTER.CONST>
1

>  <SCORE.INTER.POLAR>
0

>  <SCORE.INTER.ROT>
4

>  <SCORE.INTER.SOLV>
12.022

>  <SCORE.INTER.VDW>
-16.4696

>  <SCORE.INTER.norm>
-0.387222

>  <SCORE.INTRA>
-4.212

>  <SCORE.INTRA.DIHEDRAL>
-10.5652

>  <SCORE.INTRA.DIHEDRAL.0>
13.2525

>  <SCORE.INTRA.POLAR>
0

>  <SCORE.INTRA.POLAR.0>
0

>  <SCORE.INTRA.REPUL>
0

>  <SCORE.INTRA.REPUL.0>
0

>  <SCORE.INTRA.SOLV>
3.82288

>  <SCORE.INTRA.SOLV.lig_0>
-70.7221

>  <SCORE.INTRA.VDW>
-0.84086

>  <SCORE.INTRA.VDW.0>
-1.46337

>  <SCORE.INTRA.norm>
-0.1755

>  <SCORE.RESTR>
0

>  <SCORE.RESTR.CAVITY>
0

>  <SCORE.RESTR.norm>
0

>  <SCORE.SYSTEM>
0

>  <SCORE.SYSTEM.CONST>
0

>  <SCORE.SYSTEM.DIHEDRAL>
0

>  <SCORE.SYSTEM.SOLV>
0

>  <SCORE.SYSTEM.norm>
0

>  <SCORE.heavy>
24

>  <SCORE.norm>
-0.562722

>  <RMSD>
9.367

$$$$
ligand
 OpenBabel11021811483D
libRbt.so/2013.1/901 2013/11/27
 24 26  0  0  0  0  0  0  0  0999 V2000
  -13.0746   -9.2648    6.8514 P   0  0  1  0  0  0  0  0  0  0  0  0
  -11.8080   -9.4086    6.0349 O   0  0  0  0  0  0  0  0  0  0  0  0
  -13.7753   -7.9289    6.7719 O   0  5  0  0  0  0  0  0  0  0  0  0
  -14.0321  -10.4397    6.7205 O   0  0  0  0  0  0  0  0  0  0  0  0
  -11.4675   -8.4100    8.8515 C   0  0  0  0  0  0  0  0  0  0  0  0
  -12.5450   -9.2412    8.3864 O   0  0  0  0  0  0  0  0  0  0  0  0
  -11.3037   -8.5686   10.3660 C   0  0  1  0  0  0  0  0  0  0  0  0
  -11.0334   -9.9269   10.7349 O   0  0  0  0  0  0  0  0  0  0  0  0
  -10.1811   -7.7467   10.9758 C   0  0  1  0  0  0  0  0  0  0  0  0
  -10.7027   -6.4767   11.3781 O   0  0  0  0  0  0  0  0  0  0  0  0
   -9.7501   -8.5769   12.1738 C   0  0  1  0  0  0  0  0  0  0  0  0
  -10.6155   -8.3330   13.2918 O   0  0  0  0  0  0  0  0  0  0  0  0
  -10.0186  -10.0054   11.7436 C   0  0  2  0  0  0  0  0  0  0  0  0
   -6.2246  -13.3402   12.4796 N   0  0  0  0  0  0  0  0  0  0  0  0
   -7.1822  -12.9245   13.3397 C   0  0  1  0  0  0  0  0  0  0  0  0
   -7.2049  -13.4272   14.5948 N   0  0  0  0  0  0  0  0  0  0  0  0
   -8.1117  -12.0164   12.9609 N   0  0  0  0  0  0  0  0  0  0  0  0
   -8.0832  -11.5161   11.7025 C   0  0  1  0  0  0  0  0  0  0  0  0
   -7.1160  -11.9215   10.8040 C   0  0  2  0  0  0  0  0  0  0  0  0
   -6.1734  -12.8557   11.2175 C   0  0  0  0  0  0  0  0  0  0  0  0
   -5.2829  -13.2487   10.4383 O   0  0  0  0  0  0  0  0  0  0  0  0
   -7.3370  -11.2563    9.6518 N   0  0  0  0  0  0  0  0  0  0  0  0
   -8.4199  -10.4650    9.8336 C   0  0  0  0  0  0  0  0  0  0  0  0
   -8.8605  -10.6369   11.0839 N   0  0  1  0  0  0  0  0  0  0  0  0
  1  2  1  6  0  0  0
  1  3  1  0  0  0  0
  1  4  2  0  0  0  0
  1  6  1  0  0  0  0
  5  6  1  0  0  0  0
  7  5  1  6  0  0  0
  7  8  1  0  0  0  0
  7  9  1  0  0  0  0
  9 10  1  1  0  0  0
  9 11  1  0  0  0  0
 11 12  1  1  0  0  0
 11 13  1  0  0  0  0
 13  8  1  6  0  0  0
 13 24  1  0  0  0  0
 14 15  1  0  0  0  0
 14 20  1  0  0  0  0
 15 16  1  1  0  0  0
 15 17  1  0  0  0  0
 18 17  1  6  0  0  0
 18 19  1  0  0  0  0
 18 24  1  0  0  0  0
 19 20  1  1  0  0  0
 19 22  1  0  0  0  0
 20 21  2  0  0  0  0
 22 23  1  0  0  0  0
 24 23  1  6  0  0  0
M  CHG  1   3  -1
M  END
>  <CHROM.1>
48.80043838,58.95946018,175.94068547,-141.54117076,-9.88924778,-10.20950258
10.24963156,-2.86020802,-0.75169128,1.05192982

>  <Name>
ligand

>  <RI>
0

>  <Rbt.Current_Directory>
/home/itssahil/PROJECTS/Mol_Feturizer/New_Systems/rnas/3SLQ

>  <Rbt.Executable>
rbdock ($Id: //depot/dev/client3/rdock/2013.1/src/exe/rbdock.cxx#4 $)

>  <Rbt.Library>
libRbt.so (2013.1, Build901 2013/11/27)

>  <Rbt.Parameter_File>
/export/apps/rDock/src/rDock_2013.1_src/data/scripts/dock_solv.prm

>  <Rbt.Receptor>
prm/pocket_docking_8.prm

>  <SCORE>
-17.1315

>  <SCORE.INTER>
-10.8903

>  <SCORE.INTER.CONST>
1

>  <SCORE.INTER.POLAR>
0

>  <SCORE.INTER.ROT>
4

>  <SCORE.INTER.SOLV>
8.01869

>  <SCORE.INTER.VDW>
-16.1998

>  <SCORE.INTER.norm>
-0.453762

>  <SCORE.INTRA>
-6.24116

>  <SCORE.INTRA.DIHEDRAL>
-11.7495

>  <SCORE.INTRA.DIHEDRAL.0>
13.2525

>  <SCORE.INTRA.POLAR>
0

>  <SCORE.INTRA.POLAR.0>
0

>  <SCORE.INTRA.REPUL>
0

>  <SCORE.INTRA.REPUL.0>
0

>  <SCORE.INTRA.SOLV>
-0.117947

>  <SCORE.INTRA.SOLV.lig_0>
-70.7221

>  <SCORE.INTRA.VDW>
-0.307461

>  <SCORE.INTRA.VDW.0>
-1.46337

>  <SCORE.INTRA.norm>
-0.260048

>  <SCORE.RESTR>
0

>  <SCORE.RESTR.CAVITY>
0

>  <SCORE.RESTR.norm>
0

>  <SCORE.SYSTEM>
0

>  <SCORE.SYSTEM.CONST>
0

>  <SCORE.SYSTEM.DIHEDRAL>
0

>  <SCORE.SYSTEM.SOLV>
0

>  <SCORE.SYSTEM.norm>
0

>  <SCORE.heavy>
24

>  <SCORE.norm>
-0.713811

>  <RMSD>
9.369

$$$$
ligand
 OpenBabel11021811483D
libRbt.so/2013.1/901 2013/11/27
 24 26  0  0  0  0  0  0  0  0999 V2000
  -13.0590   -7.8850    6.9056 P   0  0  1  0  0  0  0  0  0  0  0  0
  -13.2948   -6.3989    6.7401 O   0  0  0  0  0  0  0  0  0  0  0  0
  -14.2909   -8.7580    6.9525 O   0  5  0  0  0  0  0  0  0  0  0  0
  -11.9758   -8.4449    5.9958 O   0  0  0  0  0  0  0  0  0  0  0  0
  -12.0156   -9.2449    8.9974 C   0  0  0  0  0  0  0  0  0  0  0  0
  -12.5271   -8.0248    8.4336 O   0  0  0  0  0  0  0  0  0  0  0  0
  -11.5971   -9.0112   10.4520 C   0  0  1  0  0  0  0  0  0  0  0  0
  -11.0975  -10.2074   11.0631 O   0  0  0  0  0  0  0  0  0  0  0  0
  -10.5097   -7.9677   10.6431 C   0  0  1  0  0  0  0  0  0  0  0  0
  -11.1230   -6.6896   10.8358 O   0  0  0  0  0  0  0  0  0  0  0  0
   -9.7917   -8.4361   11.8982 C   0  0  1  0  0  0  0  0  0  0  0  0
  -10.4954   -8.0032   13.0711 O   0  0  0  0  0  0  0  0  0  0  0  0
   -9.9356   -9.9446   11.8597 C   0  0  2  0  0  0  0  0  0  0  0  0
   -6.1706  -13.3337   12.4883 N   0  0  0  0  0  0  0  0  0  0  0  0
   -7.0770  -12.8804   13.3840 C   0  0  1  0  0  0  0  0  0  0  0  0
   -7.0470  -13.3539   14.6503 N   0  0  0  0  0  0  0  0  0  0  0  0
   -8.0076  -11.9635   13.0297 N   0  0  0  0  0  0  0  0  0  0  0  0
   -8.0321  -11.4925   11.7599 C   0  0  1  0  0  0  0  0  0  0  0  0
   -7.1176  -11.9366   10.8252 C   0  0  2  0  0  0  0  0  0  0  0  0
   -6.1728  -12.8790   11.2141 C   0  0  0  0  0  0  0  0  0  0  0  0
   -5.3289  -13.3065   10.4019 O   0  0  0  0  0  0  0  0  0  0  0  0
   -7.3830  -11.2936    9.6697 N   0  0  0  0  0  0  0  0  0  0  0  0
   -8.4413  -10.4778    9.8853 C   0  0  0  0  0  0  0  0  0  0  0  0
   -8.8229  -10.6130   11.1594 N   0  0  1  0  0  0  0  0  0  0  0  0
  1  2  1  6  0  0  0
  1  3  1  0  0  0  0
  1  4  2  0  0  0  0
  1  6  1  0  0  0  0
  5  6  1  0  0  0  0
  7  5  1  6  0  0  0
  7  8  1  0  0  0  0
  7  9  1  0  0  0  0
  9 10  1  1  0  0  0
  9 11  1  0  0  0  0
 11 12  1  1  0  0  0
 11 13  1  0  0  0  0
 13  8  1  6  0  0  0
 13 24  1  0  0  0  0
 14 15  1  0  0  0  0
 14 20  1  0  0  0  0
 15 16  1  1  0  0  0
 15 17  1  0  0  0  0
 18 17  1  6  0  0  0
 18 19  1  0  0  0  0
 18 24  1  0  0  0  0
 19 20  1  1  0  0  0
 19 22  1  0  0  0  0
 20 21  2  0  0  0  0
 22 23  1  0  0  0  0
 24 23  1  6  0  0  0
M  CHG  1   3  -1
M  END
>  <CHROM.1>
-172.11853379,179.16396855,179.59366828,-125.39325666,-9.92940891,-9.90089350
10.24809673,-2.74161577,-0.75961894,1.34056678

>  <Name>
ligand

>  <RI>
0

>  <Rbt.Current_Directory>
/home/itssahil/PROJECTS/Mol_Feturizer/New_Systems/rnas/3SLQ

>  <Rbt.Executable>
rbdock ($Id: //depot/dev/client3/rdock/2013.1/src/exe/rbdock.cxx#4 $)

>  <Rbt.Library>
libRbt.so (2013.1, Build901 2013/11/27)

>  <Rbt.Parameter_File>
/export/apps/rDock/src/rDock_2013.1_src/data/scripts/dock_solv.prm

>  <Rbt.Receptor>
prm/pocket_docking_8.prm

>  <SCORE>
-16.1471

>  <SCORE.INTER>
-10.0481

>  <SCORE.INTER.CONST>
1

>  <SCORE.INTER.POLAR>
0

>  <SCORE.INTER.ROT>
4

>  <SCORE.INTER.SOLV>
9.84838

>  <SCORE.INTER.VDW>
-16.2482

>  <SCORE.INTER.norm>
-0.418672

>  <SCORE.INTRA>
-6.09897

>  <SCORE.INTRA.DIHEDRAL>
-11.9392

>  <SCORE.INTRA.DIHEDRAL.0>
13.2525

>  <SCORE.INTRA.POLAR>
0

>  <SCORE.INTRA.POLAR.0>
0

>  <SCORE.INTRA.REPUL>
0

>  <SCORE.INTRA.REPUL.0>
0

>  <SCORE.INTRA.SOLV>
0.602553

>  <SCORE.INTRA.SOLV.lig_0>
-70.7221

>  <SCORE.INTRA.VDW>
-0.430646

>  <SCORE.INTRA.VDW.0>
-1.46337

>  <SCORE.INTRA.norm>
-0.254124

>  <SCORE.RESTR>
0

>  <SCORE.RESTR.CAVITY>
0

>  <SCORE.RESTR.norm>
0

>  <SCORE.SYSTEM>
0

>  <SCORE.SYSTEM.CONST>
0

>  <SCORE.SYSTEM.DIHEDRAL>
0

>  <SCORE.SYSTEM.SOLV>
0

>  <SCORE.SYSTEM.norm>
0

>  <SCORE.heavy>
24

>  <SCORE.norm>
-0.672796

>  <RMSD>
9.379

$$$$
ligand
 OpenBabel11021811483D
libRbt.so/2013.1/901 2013/11/27
 24 26  0  0  0  0  0  0  0  0999 V2000
   -9.9452   -9.1738    6.6577 P   0  0  1  0  0  0  0  0  0  0  0  0
   -9.1693  -10.4729    6.6121 O   0  0  0  0  0  0  0  0  0  0  0  0
   -9.1896   -7.9275    6.2607 O   0  5  0  0  0  0  0  0  0  0  0  0
  -11.3240   -9.2537    6.0196 O   0  0  0  0  0  0  0  0  0  0  0  0
   -9.1378   -8.4065    9.1220 C   0  0  0  0  0  0  0  0  0  0  0  0
  -10.1615   -8.9076    8.2449 O   0  0  0  0  0  0  0  0  0  0  0  0
   -9.6959   -8.2538   10.5401 C   0  0  1  0  0  0  0  0  0  0  0  0
  -10.2402   -9.4835   11.0355 O   0  0  0  0  0  0  0  0  0  0  0  0
   -8.6827   -7.8054   11.5794 C   0  0  1  0  0  0  0  0  0  0  0  0
   -8.6922   -6.3765   11.6491 O   0  0  0  0  0  0  0  0  0  0  0  0
   -9.2004   -8.4294   12.8651 C   0  0  1  0  0  0  0  0  0  0  0  0
  -10.2351   -7.6167   13.4371 O   0  0  0  0  0  0  0  0  0  0  0  0
   -9.8792   -9.7041   12.4046 C   0  0  2  0  0  0  0  0  0  0  0  0
   -7.5224  -13.0843   15.4173 N   0  0  0  0  0  0  0  0  0  0  0  0
   -8.3283  -12.0507   15.7516 C   0  0  1  0  0  0  0  0  0  0  0  0
   -8.6000  -11.8211   17.0561 N   0  0  0  0  0  0  0  0  0  0  0  0
   -8.8621  -11.2485   14.8010 N   0  0  0  0  0  0  0  0  0  0  0  0
   -8.5857  -11.4832   13.4959 C   0  0  1  0  0  0  0  0  0  0  0  0
   -7.7648  -12.5304   13.1262 C   0  0  2  0  0  0  0  0  0  0  0  0
   -7.2299  -13.3400   14.1214 C   0  0  0  0  0  0  0  0  0  0  0  0
   -6.4839  -14.2960   13.8313 O   0  0  0  0  0  0  0  0  0  0  0  0
   -7.6715  -12.5092   11.7809 N   0  0  0  0  0  0  0  0  0  0  0  0
   -8.4237  -11.4776   11.3315 C   0  0  0  0  0  0  0  0  0  0  0  0
   -8.9723  -10.8670   12.3866 N   0  0  1  0  0  0  0  0  0  0  0  0
  1  2  1  6  0  0  0
  1  3  1  0  0  0  0
  1  4  2  0  0  0  0
  1  6  1  0  0  0  0
  5  6  1  0  0  0  0
  7  5  1  6  0  0  0
  7  8  1  0  0  0  0
  7  9  1  0  0  0  0
  9 10  1  1  0  0  0
  9 11  1  0  0  0  0
 11 12  1  6  0  0  0
 11 13  1  0  0  0  0
 13  8  1  6  0  0  0
 13 24  1  0  0  0  0
 14 15  1  0  0  0  0
 14 20  1  0  0  0  0
 15 16  1  1  0  0  0
 15 17  1  0  0  0  0
 18 17  1  6  0  0  0
 18 19  1  0  0  0  0
 18 24  1  0  0  0  0
 19 20  1  1  0  0  0
 19 22  1  0  0  0  0
 20 21  2  0  0  0  0
 22 23  1  0  0  0  0
 24 23  1  6  0  0  0
M  CHG  1   3  -1
M  END
>  <CHROM.1>
77.04202221,56.21361713,178.96345591,-170.01596527,-9.00797781,-10.14075854
11.26210507,-2.31023542,-1.22892143,1.29613098

>  <Name>
ligand

>  <RI>
0

>  <Rbt.Current_Directory>
/home/itssahil/PROJECTS/Mol_Feturizer/New_Systems/rnas/3SLQ

>  <Rbt.Executable>
rbdock ($Id: //depot/dev/client3/rdock/2013.1/src/exe/rbdock.cxx#4 $)

>  <Rbt.Library>
libRbt.so (2013.1, Build901 2013/11/27)

>  <Rbt.Parameter_File>
/export/apps/rDock/src/rDock_2013.1_src/data/scripts/dock_solv.prm

>  <Rbt.Receptor>
prm/pocket_docking_7.prm

>  <SCORE>
-14.9511

>  <SCORE.INTER>
-9.18162

>  <SCORE.INTER.CONST>
1

>  <SCORE.INTER.POLAR>
0

>  <SCORE.INTER.ROT>
4

>  <SCORE.INTER.SOLV>
14.2166

>  <SCORE.INTER.VDW>
-17.1266

>  <SCORE.INTER.norm>
-0.382567

>  <SCORE.INTRA>
-5.76947

>  <SCORE.INTRA.DIHEDRAL>
-11.5338

>  <SCORE.INTRA.DIHEDRAL.0>
13.2525

>  <SCORE.INTRA.POLAR>
0

>  <SCORE.INTRA.POLAR.0>
0

>  <SCORE.INTRA.REPUL>
0

>  <SCORE.INTRA.REPUL.0>
0

>  <SCORE.INTRA.SOLV>
0.0988966

>  <SCORE.INTRA.SOLV.lig_0>
-70.7221

>  <SCORE.INTRA.VDW>
-0.0520338

>  <SCORE.INTRA.VDW.0>
-1.46337

>  <SCORE.INTRA.norm>
-0.240395

>  <SCORE.RESTR>
0

>  <SCORE.RESTR.CAVITY>
0

>  <SCORE.RESTR.norm>
0

>  <SCORE.SYSTEM>
0

>  <SCORE.SYSTEM.CONST>
0

>  <SCORE.SYSTEM.DIHEDRAL>
0

>  <SCORE.SYSTEM.SOLV>
0

>  <SCORE.SYSTEM.norm>
0

>  <SCORE.heavy>
24

>  <SCORE.norm>
-0.622962

>  <RMSD>
9.390

$$$$
ligand
 OpenBabel11021811483D
libRbt.so/2013.1/901 2013/11/27
 24 26  0  0  0  0  0  0  0  0999 V2000
  -13.0347   -7.8443    6.9623 P   0  0  1  0  0  0  0  0  0  0  0  0
  -14.2531   -8.7425    6.9647 O   0  0  0  0  0  0  0  0  0  0  0  0
  -11.8469   -8.3279    6.1641 O   0  5  0  0  0  0  0  0  0  0  0  0
  -13.3487   -6.3759    6.7177 O   0  0  0  0  0  0  0  0  0  0  0  0
  -11.9885   -9.1990    9.0560 C   0  0  0  0  0  0  0  0  0  0  0  0
  -12.4579   -7.9700    8.4751 O   0  0  0  0  0  0  0  0  0  0  0  0
  -11.5693   -8.9612   10.5098 C   0  0  1  0  0  0  0  0  0  0  0  0
  -11.0967  -10.1622   11.1330 O   0  0  0  0  0  0  0  0  0  0  0  0
  -10.4606   -7.9393   10.6950 C   0  0  1  0  0  0  0  0  0  0  0  0
  -11.0473   -6.6469   10.8744 O   0  0  0  0  0  0  0  0  0  0  0  0
   -9.7562   -8.4115   11.9563 C   0  0  1  0  0  0  0  0  0  0  0  0
  -10.4540   -7.9534   13.1231 O   0  0  0  0  0  0  0  0  0  0  0  0
   -9.9318   -9.9169   11.9307 C   0  0  2  0  0  0  0  0  0  0  0  0
   -6.2769  -13.4198   12.5849 N   0  0  0  0  0  0  0  0  0  0  0  0
   -7.1797  -12.9439   13.4725 C   0  0  1  0  0  0  0  0  0  0  0  0
   -7.1785  -13.4241   14.7366 N   0  0  0  0  0  0  0  0  0  0  0  0
   -8.0784  -11.9980   13.1123 N   0  0  0  0  0  0  0  0  0  0  0  0
   -8.0742  -11.5204   11.8447 C   0  0  1  0  0  0  0  0  0  0  0  0
   -7.1626  -11.9871   10.9182 C   0  0  2  0  0  0  0  0  0  0  0  0
   -6.2509  -12.9591   11.3131 C   0  0  0  0  0  0  0  0  0  0  0  0
   -5.4107  -13.4078   10.5084 O   0  0  0  0  0  0  0  0  0  0  0  0
   -7.3954  -11.3310    9.7632 N   0  0  0  0  0  0  0  0  0  0  0  0
   -8.4314  -10.4851    9.9708 C   0  0  0  0  0  0  0  0  0  0  0  0
   -8.8316  -10.6148   11.2397 N   0  0  1  0  0  0  0  0  0  0  0  0
  1  2  1  6  0  0  0
  1  3  1  0  0  0  0
  1  4  2  0  0  0  0
  1  6  1  0  0  0  0
  5  6  1  0  0  0  0
  7  5  1  6  0  0  0
  7  8  1  0  0  0  0
  7  9  1  0  0  0  0
  9 10  1  1  0  0  0
  9 11  1  0  0  0  0
 11 12  1  1  0  0  0
 11 13  1  0  0  0  0
 13  8  1  6  0  0  0
 13 24  1  0  0  0  0
 14 15  1  0  0  0  0
 14 20  1  0  0  0  0
 15 16  1  1  0  0  0
 15 17  1  0  0  0  0
 18 17  1  6  0  0  0
 18 19  1  0  0  0  0
 18 24  1  0  0  0  0
 19 20  1  1  0  0  0
 19 22  1  0  0  0  0
 20 21  2  0  0  0  0
 22 23  1  0  0  0  0
 24 23  1  6  0  0  0
M  CHG  1   3  -1
M  END
>  <CHROM.1>
62.00818554,179.82948000,-177.80777678,-124.33796103,-9.93387020,-9.89645074
10.31770117,-2.74966245,-0.78358893,1.32746093

>  <Name>
ligand

>  <RI>
0

>  <Rbt.Current_Directory>
/home/itssahil/PROJECTS/Mol_Feturizer/New_Systems/rnas/3SLQ

>  <Rbt.Executable>
rbdock ($Id: //depot/dev/client3/rdock/2013.1/src/exe/rbdock.cxx#4 $)

>  <Rbt.Library>
libRbt.so (2013.1, Build901 2013/11/27)

>  <Rbt.Parameter_File>
/export/apps/rDock/src/rDock_2013.1_src/data/scripts/dock_solv.prm

>  <Rbt.Receptor>
prm/pocket_docking_7.prm

>  <SCORE>
-16.1932

>  <SCORE.INTER>
-9.86357

>  <SCORE.INTER.CONST>
1

>  <SCORE.INTER.POLAR>
0

>  <SCORE.INTER.ROT>
4

>  <SCORE.INTER.SOLV>
10.2602

>  <SCORE.INTER.VDW>
-16.2624

>  <SCORE.INTER.norm>
-0.410982

>  <SCORE.INTRA>
-6.3296

>  <SCORE.INTRA.DIHEDRAL>
-12.0152

>  <SCORE.INTRA.DIHEDRAL.0>
13.2525

>  <SCORE.INTRA.POLAR>
0

>  <SCORE.INTRA.POLAR.0>
0

>  <SCORE.INTRA.REPUL>
0

>  <SCORE.INTRA.REPUL.0>
0

>  <SCORE.INTRA.SOLV>
0.0958609

>  <SCORE.INTRA.SOLV.lig_0>
-70.7221

>  <SCORE.INTRA.VDW>
-0.369913

>  <SCORE.INTRA.VDW.0>
-1.46337

>  <SCORE.INTRA.norm>
-0.263733

>  <SCORE.RESTR>
0

>  <SCORE.RESTR.CAVITY>
0

>  <SCORE.RESTR.norm>
0

>  <SCORE.SYSTEM>
0

>  <SCORE.SYSTEM.CONST>
0

>  <SCORE.SYSTEM.DIHEDRAL>
0

>  <SCORE.SYSTEM.SOLV>
0

>  <SCORE.SYSTEM.norm>
0

>  <SCORE.heavy>
24

>  <SCORE.norm>
-0.674715

>  <RMSD>
9.403

$$$$
ligand
 OpenBabel11021811483D
libRbt.so/2013.1/901 2013/11/27
 24 26  0  0  0  0  0  0  0  0999 V2000
  -13.0036   -7.9032    6.8847 P   0  0  1  0  0  0  0  0  0  0  0  0
  -13.1673   -6.4129    6.6753 O   0  0  0  0  0  0  0  0  0  0  0  0
  -14.2758   -8.7155    6.9441 O   0  5  0  0  0  0  0  0  0  0  0  0
  -11.9407   -8.5392    6.0015 O   0  0  0  0  0  0  0  0  0  0  0  0
  -12.0236   -9.2464    9.0176 C   0  0  0  0  0  0  0  0  0  0  0  0
  -12.4917   -8.0244    8.4211 O   0  0  0  0  0  0  0  0  0  0  0  0
  -11.6089   -8.9916   10.4698 C   0  0  1  0  0  0  0  0  0  0  0  0
  -11.1212  -10.1814   11.1028 O   0  0  0  0  0  0  0  0  0  0  0  0
  -10.5140   -7.9538   10.6478 C   0  0  1  0  0  0  0  0  0  0  0  0
  -11.1178   -6.6678   10.8166 O   0  0  0  0  0  0  0  0  0  0  0  0
   -9.8046   -8.4068   11.9134 C   0  0  1  0  0  0  0  0  0  0  0  0
  -10.5094   -7.9487   13.0760 O   0  0  0  0  0  0  0  0  0  0  0  0
   -9.9604   -9.9145   11.8995 C   0  0  2  0  0  0  0  0  0  0  0  0
   -6.2938  -13.4023   12.5690 N   0  0  0  0  0  0  0  0  0  0  0  0
   -7.2070  -12.9355   13.4508 C   0  0  1  0  0  0  0  0  0  0  0  0
   -7.2148  -13.4223   14.7123 N   0  0  0  0  0  0  0  0  0  0  0  0
   -8.1072  -11.9923   13.0872 N   0  0  0  0  0  0  0  0  0  0  0  0
   -8.0940  -11.5082   11.8222 C   0  0  1  0  0  0  0  0  0  0  0  0
   -7.1717  -11.9655   10.9017 C   0  0  2  0  0  0  0  0  0  0  0  0
   -6.2586  -12.9350   11.2998 C   0  0  0  0  0  0  0  0  0  0  0  0
   -5.4090  -13.3752   10.5005 O   0  0  0  0  0  0  0  0  0  0  0  0
   -7.3974  -11.3046    9.7479 N   0  0  0  0  0  0  0  0  0  0  0  0
   -8.4395  -10.4650    9.9505 C   0  0  0  0  0  0  0  0  0  0  0  0
   -8.8504  -10.6033   11.2150 N   0  0  1  0  0  0  0  0  0  0  0  0
  1  2  1  6  0  0  0
  1  3  1  0  0  0  0
  1  4  2  0  0  0  0
  1  6  1  0  0  0  0
  5  6  1  0  0  0  0
  7  5  1  6  0  0  0
  7  8  1  0  0  0  0
  7  9  1  0  0  0  0
  9 10  1  1  0  0  0
  9 11  1  0  0  0  0
 11 12  1  1  0  0  0
 11 13  1  0  0  0  0
 13  8  1  6  0  0  0
 13 24  1  0  0  0  0
 14 15  1  0  0  0  0
 14 20  1  0  0  0  0
 15 16  1  1  0  0  0
 15 17  1  0  0  0  0
 18 17  1  6  0  0  0
 18 19  1  0  0  0  0
 18 24  1  0  0  0  0
 19 20  1  1  0  0  0
 19 22  1  0  0  0  0
 20 21  2  0  0  0  0
 22 23  1  0  0  0  0
 24 23  1  6  0  0  0
M  CHG  1   3  -1
M  END
>  <CHROM.1>
-171.10330010,-179.40079563,179.42780445,-123.34335184,-9.95056005,-9.91198700
10.27712758,-2.73475165,-0.77851020,1.33529294

>  <Name>
ligand

>  <RI>
0

>  <Rbt.Current_Directory>
/home/itssahil/PROJECTS/Mol_Feturizer/New_Systems/rnas/3SLQ

>  <Rbt.Executable>
rbdock ($Id: //depot/dev/client3/rdock/2013.1/src/exe/rbdock.cxx#4 $)

>  <Rbt.Library>
libRbt.so (2013.1, Build901 2013/11/27)

>  <Rbt.Parameter_File>
/export/apps/rDock/src/rDock_2013.1_src/data/scripts/dock_solv.prm

>  <Rbt.Receptor>
prm/pocket_docking_7.prm

>  <SCORE>
-16.1514

>  <SCORE.INTER>
-10.0754

>  <SCORE.INTER.CONST>
1

>  <SCORE.INTER.POLAR>
0

>  <SCORE.INTER.ROT>
4

>  <SCORE.INTER.SOLV>
10.1959

>  <SCORE.INTER.VDW>
-16.3822

>  <SCORE.INTER.norm>
-0.419807

>  <SCORE.INTRA>
-6.07604

>  <SCORE.INTRA.DIHEDRAL>
-11.9146

>  <SCORE.INTRA.DIHEDRAL.0>
13.2525

>  <SCORE.INTRA.POLAR>
0

>  <SCORE.INTRA.POLAR.0>
0

>  <SCORE.INTRA.REPUL>
0

>  <SCORE.INTRA.REPUL.0>
0

>  <SCORE.INTRA.SOLV>
0.607395

>  <SCORE.INTRA.SOLV.lig_0>
-70.7221

>  <SCORE.INTRA.VDW>
-0.422415

>  <SCORE.INTRA.VDW.0>
-1.46337

>  <SCORE.INTRA.norm>
-0.253168

>  <SCORE.RESTR>
0

>  <SCORE.RESTR.CAVITY>
0

>  <SCORE.RESTR.norm>
0

>  <SCORE.SYSTEM>
0

>  <SCORE.SYSTEM.CONST>
0

>  <SCORE.SYSTEM.DIHEDRAL>
0

>  <SCORE.SYSTEM.SOLV>
0

>  <SCORE.SYSTEM.norm>
0

>  <SCORE.heavy>
24

>  <SCORE.norm>
-0.672976

>  <RMSD>
9.408

$$$$
ligand
 OpenBabel11021811483D
libRbt.so/2013.1/901 2013/11/27
 24 26  0  0  0  0  0  0  0  0999 V2000
   -6.3365   -6.1553   12.9511 P   0  0  1  0  0  0  0  0  0  0  0  0
   -4.9165   -6.6749   13.0225 O   0  0  0  0  0  0  0  0  0  0  0  0
   -6.5281   -4.6857   13.2430 O   0  5  0  0  0  0  0  0  0  0  0  0
   -7.1026   -6.6149   11.7196 O   0  0  0  0  0  0  0  0  0  0  0  0
   -7.6908   -8.1116   14.2366 C   0  0  0  0  0  0  0  0  0  0  0  0
   -7.0576   -6.8204   14.2453 O   0  0  0  0  0  0  0  0  0  0  0  0
   -8.1573   -8.4725   15.6501 C   0  0  1  0  0  0  0  0  0  0  0  0
   -8.9063   -7.4098   16.2532 O   0  0  0  0  0  0  0  0  0  0  0  0
   -9.0473   -9.7007   15.7340 C   0  0  1  0  0  0  0  0  0  0  0  0
   -8.2263  -10.8544   15.9385 O   0  0  0  0  0  0  0  0  0  0  0  0
   -9.9218   -9.4175   16.9444 C   0  0  1  0  0  0  0  0  0  0  0  0
   -9.2321   -9.7618   18.1544 O   0  0  0  0  0  0  0  0  0  0  0  0
  -10.0523   -7.9073   16.9551 C   0  0  2  0  0  0  0  0  0  0  0  0
  -15.1436   -8.1609   16.6901 N   0  0  0  0  0  0  0  0  0  0  0  0
  -14.2962   -8.7752   17.5468 C   0  0  1  0  0  0  0  0  0  0  0  0
  -14.7994   -9.5861   18.5048 N   0  0  0  0  0  0  0  0  0  0  0  0
  -12.9585   -8.5890   17.4563 N   0  0  0  0  0  0  0  0  0  0  0  0
  -12.4605   -7.7760   16.4941 C   0  0  1  0  0  0  0  0  0  0  0  0
  -13.3025   -7.1374   15.6050 C   0  0  2  0  0  0  0  0  0  0  0  0
  -14.6721   -7.3446   15.7197 C   0  0  0  0  0  0  0  0  0  0  0  0
  -15.4675   -6.7877   14.9375 O   0  0  0  0  0  0  0  0  0  0  0  0
  -12.5283   -6.4120   14.7724 N   0  0  0  0  0  0  0  0  0  0  0  0
  -11.2396   -6.5932   15.1445 C   0  0  0  0  0  0  0  0  0  0  0  0
  -11.2179   -7.4231   16.1922 N   0  0  1  0  0  0  0  0  0  0  0  0
  1  2  1  6  0  0  0
  1  3  1  0  0  0  0
  1  4  2  0  0  0  0
  1  6  1  0  0  0  0
  5  6  1  0  0  0  0
  7  5  1  6  0  0  0
  7  8  1  0  0  0  0
  7  9  1  0  0  0  0
  9 10  1  1  0  0  0
  9 11  1  0  0  0  0
 11 12  1  1  0  0  0
 11 13  1  0  0  0  0
 13  8  1  6  0  0  0
 13 24  1  0  0  0  0
 14 15  1  0  0  0  0
 14 20  1  0  0  0  0
 15 16  1  6  0  0  0
 15 17  1  0  0  0  0
 18 17  1  1  0  0  0
 18 19  1  0  0  0  0
 18 24  1  0  0  0  0
 19 20  1  6  0  0  0
 19 22  1  0  0  0  0
 20 21  2  0  0  0  0
 22 23  1  0  0  0  0
 24 23  1  1  0  0  0
M  CHG  1   3  -1
M  END
>  <CHROM.1>
-88.01137876,49.65262499,175.13906979,174.83947846,-10.11658861,-7.70045015
15.39898101,0.42135745,0.18251341,-0.76502690

>  <Name>
ligand

>  <RI>
0

>  <Rbt.Current_Directory>
/home/itssahil/PROJECTS/Mol_Feturizer/New_Systems/rnas/3SLQ

>  <Rbt.Executable>
rbdock ($Id: //depot/dev/client3/rdock/2013.1/src/exe/rbdock.cxx#4 $)

>  <Rbt.Library>
libRbt.so (2013.1, Build901 2013/11/27)

>  <Rbt.Parameter_File>
/export/apps/rDock/src/rDock_2013.1_src/data/scripts/dock_solv.prm

>  <Rbt.Receptor>
prm/pocket_docking_8.prm

>  <SCORE>
-14.7071

>  <SCORE.INTER>
-9.41081

>  <SCORE.INTER.CONST>
1

>  <SCORE.INTER.POLAR>
0

>  <SCORE.INTER.ROT>
4

>  <SCORE.INTER.SOLV>
11.4599

>  <SCORE.INTER.VDW>
-16.3605

>  <SCORE.INTER.norm>
-0.392117

>  <SCORE.INTRA>
-5.29624

>  <SCORE.INTRA.DIHEDRAL>
-10.4913

>  <SCORE.INTRA.DIHEDRAL.0>
13.2525

>  <SCORE.INTRA.POLAR>
0

>  <SCORE.INTRA.POLAR.0>
0

>  <SCORE.INTRA.REPUL>
0

>  <SCORE.INTRA.REPUL.0>
0

>  <SCORE.INTRA.SOLV>
0.0888678

>  <SCORE.INTRA.SOLV.lig_0>
-70.7221

>  <SCORE.INTRA.VDW>
-0.0950047

>  <SCORE.INTRA.VDW.0>
-1.46337

>  <SCORE.INTRA.norm>
-0.220677

>  <SCORE.RESTR>
0

>  <SCORE.RESTR.CAVITY>
0

>  <SCORE.RESTR.norm>
0

>  <SCORE.SYSTEM>
0

>  <SCORE.SYSTEM.CONST>
0

>  <SCORE.SYSTEM.DIHEDRAL>
0

>  <SCORE.SYSTEM.SOLV>
0

>  <SCORE.SYSTEM.norm>
0

>  <SCORE.heavy>
24

>  <SCORE.norm>
-0.612794

>  <RMSD>
9.432

$$$$
ligand
 OpenBabel11021811483D
libRbt.so/2013.1/901 2013/11/27
 24 26  0  0  0  0  0  0  0  0999 V2000
  -14.0899  -10.1269    7.6167 P   0  0  1  0  0  0  0  0  0  0  0  0
  -13.2824  -11.3669    7.2974 O   0  0  0  0  0  0  0  0  0  0  0  0
  -13.9998   -8.9937    6.6220 O   0  5  0  0  0  0  0  0  0  0  0  0
  -15.5189  -10.4142    8.0529 O   0  0  0  0  0  0  0  0  0  0  0  0
  -11.9569   -9.0128    8.8506 C   0  0  0  0  0  0  0  0  0  0  0  0
  -13.3169   -9.4786    8.8893 O   0  0  0  0  0  0  0  0  0  0  0  0
  -11.5853   -8.3784   10.1942 C   0  0  1  0  0  0  0  0  0  0  0  0
  -11.5067   -9.3533   11.2419 O   0  0  0  0  0  0  0  0  0  0  0  0
  -10.2514   -7.6516   10.2093 C   0  0  1  0  0  0  0  0  0  0  0  0
  -10.4672   -6.2807    9.8616 O   0  0  0  0  0  0  0  0  0  0  0  0
   -9.7907   -7.7951   11.6506 C   0  0  1  0  0  0  0  0  0  0  0  0
  -10.4096   -6.7994   12.4776 O   0  0  0  0  0  0  0  0  0  0  0  0
  -10.3749   -9.1230   12.0901 C   0  0  2  0  0  0  0  0  0  0  0  0
   -7.4663  -12.5913   14.4495 N   0  0  0  0  0  0  0  0  0  0  0  0
   -8.2151  -11.5960   14.9768 C   0  0  1  0  0  0  0  0  0  0  0  0
   -8.2527  -11.4391   16.3193 N   0  0  0  0  0  0  0  0  0  0  0  0
   -8.9224  -10.7603   14.1809 N   0  0  0  0  0  0  0  0  0  0  0  0
   -8.8802  -10.9223   12.8367 C   0  0  1  0  0  0  0  0  0  0  0  0
   -8.1227  -11.9291   12.2711 C   0  0  2  0  0  0  0  0  0  0  0  0
   -7.4062  -12.7743   13.1103 C   0  0  0  0  0  0  0  0  0  0  0  0
   -6.7096  -13.6959   12.6412 O   0  0  0  0  0  0  0  0  0  0  0  0
   -8.2718  -11.8379   10.9338 N   0  0  0  0  0  0  0  0  0  0  0  0
   -9.1078  -10.8038   10.6814 C   0  0  0  0  0  0  0  0  0  0  0  0
   -9.4682  -10.2608   11.8486 N   0  0  1  0  0  0  0  0  0  0  0  0
  1  2  1  6  0  0  0
  1  3  1  0  0  0  0
  1  4  2  0  0  0  0
  1  6  1  0  0  0  0
  5  6  1  0  0  0  0
  7  5  1  6  0  0  0
  7  8  1  0  0  0  0
  7  9  1  0  0  0  0
  9 10  1  1  0  0  0
  9 11  1  0  0  0  0
 11 12  1  1  0  0  0
 11 13  1  0  0  0  0
 13  8  1  6  0  0  0
 13 24  1  0  0  0  0
 14 15  1  0  0  0  0
 14 20  1  0  0  0  0
 15 16  1  6  0  0  0
 15 17  1  0  0  0  0
 18 17  1  1  0  0  0
 18 19  1  0  0  0  0
 18 24  1  0  0  0  0
 19 20  1  6  0  0  0
 19 22  1  0  0  0  0
 20 21  2  0  0  0  0
 22 23  1  0  0  0  0
 24 23  1  1  0  0  0
M  CHG  1   3  -1
M  END
>  <CHROM.1>
62.02538185,68.84642952,176.17174425,-134.32695879,-10.61254287,-10.09373435
10.93588203,3.02289366,-0.82605127,0.20802784

>  <Name>
ligand

>  <RI>
0

>  <Rbt.Current_Directory>
/home/itssahil/PROJECTS/Mol_Feturizer/New_Systems/rnas/3SLQ

>  <Rbt.Executable>
rbdock ($Id: //depot/dev/client3/rdock/2013.1/src/exe/rbdock.cxx#4 $)

>  <Rbt.Library>
libRbt.so (2013.1, Build901 2013/11/27)

>  <Rbt.Parameter_File>
/export/apps/rDock/src/rDock_2013.1_src/data/scripts/dock_solv.prm

>  <Rbt.Receptor>
prm/pocket_docking_8.prm

>  <SCORE>
-16.6855

>  <SCORE.INTER>
-10.4588

>  <SCORE.INTER.CONST>
1

>  <SCORE.INTER.POLAR>
0

>  <SCORE.INTER.ROT>
4

>  <SCORE.INTER.SOLV>
7.92565

>  <SCORE.INTER.VDW>
-15.8811

>  <SCORE.INTER.norm>
-0.435784

>  <SCORE.INTRA>
-6.22668

>  <SCORE.INTRA.DIHEDRAL>
-11.6807

>  <SCORE.INTRA.DIHEDRAL.0>
13.2525

>  <SCORE.INTRA.POLAR>
0

>  <SCORE.INTRA.POLAR.0>
0

>  <SCORE.INTRA.REPUL>
0

>  <SCORE.INTRA.REPUL.0>
0

>  <SCORE.INTRA.SOLV>
-0.0700583

>  <SCORE.INTRA.SOLV.lig_0>
-70.7221

>  <SCORE.INTRA.VDW>
-0.351298

>  <SCORE.INTRA.VDW.0>
-1.46337

>  <SCORE.INTRA.norm>
-0.259445

>  <SCORE.RESTR>
0

>  <SCORE.RESTR.CAVITY>
0

>  <SCORE.RESTR.norm>
0

>  <SCORE.SYSTEM>
0

>  <SCORE.SYSTEM.CONST>
0

>  <SCORE.SYSTEM.DIHEDRAL>
0

>  <SCORE.SYSTEM.SOLV>
0

>  <SCORE.SYSTEM.norm>
0

>  <SCORE.heavy>
24

>  <SCORE.norm>
-0.695229

>  <RMSD>
9.453

$$$$
ligand
 OpenBabel11021811483D
libRbt.so/2013.1/901 2013/11/27
 24 26  0  0  0  0  0  0  0  0999 V2000
  -13.6394   -3.4920    7.3057 P   0  0  1  0  0  0  0  0  0  0  0  0
  -12.3396   -3.1900    6.5910 O   0  0  0  0  0  0  0  0  0  0  0  0
  -13.5803   -3.5360    8.8144 O   0  5  0  0  0  0  0  0  0  0  0  0
  -14.8297   -2.6991    6.7868 O   0  0  0  0  0  0  0  0  0  0  0  0
  -12.9396   -6.0989    7.1381 C   0  0  0  0  0  0  0  0  0  0  0  0
  -13.9144   -5.0558    6.9649 O   0  0  0  0  0  0  0  0  0  0  0  0
  -13.5384   -7.4456    6.7214 C   0  0  1  0  0  0  0  0  0  0  0  0
  -12.6202   -8.5261    6.9301 O   0  0  0  0  0  0  0  0  0  0  0  0
  -14.8064   -7.8361    7.4612 C   0  0  1  0  0  0  0  0  0  0  0  0
  -15.9367   -7.3476    6.7327 O   0  0  0  0  0  0  0  0  0  0  0  0
  -14.7579   -9.3553    7.4615 C   0  0  1  0  0  0  0  0  0  0  0  0
  -15.2526   -9.8742    6.2188 O   0  0  0  0  0  0  0  0  0  0  0  0
  -13.2760   -9.6732    7.4848 C   0  0  2  0  0  0  0  0  0  0  0  0
  -10.2411   -7.4164   10.9131 N   0  0  0  0  0  0  0  0  0  0  0  0
  -10.5450   -7.0348    9.6515 C   0  0  1  0  0  0  0  0  0  0  0  0
  -10.0084   -5.8953    9.1596 N   0  0  0  0  0  0  0  0  0  0  0  0
  -11.3746   -7.7762    8.8806 N   0  0  0  0  0  0  0  0  0  0  0  0
  -11.9085   -8.9170    9.3789 C   0  0  1  0  0  0  0  0  0  0  0  0
  -11.6142   -9.3313   10.6630 C   0  0  2  0  0  0  0  0  0  0  0  0
  -10.7603   -8.5518   11.4344 C   0  0  0  0  0  0  0  0  0  0  0  0
  -10.4682   -8.8894   12.5986 O   0  0  0  0  0  0  0  0  0  0  0  0
  -12.2779  -10.4866   10.8720 N   0  0  0  0  0  0  0  0  0  0  0  0
  -12.9713  -10.7737    9.7456 C   0  0  0  0  0  0  0  0  0  0  0  0
  -12.7361   -9.8090    8.8505 N   0  0  1  0  0  0  0  0  0  0  0  0
  1  2  1  6  0  0  0
  1  3  1  0  0  0  0
  1  4  2  0  0  0  0
  1  6  1  0  0  0  0
  5  6  1  0  0  0  0
  7  5  1  1  0  0  0
  7  8  1  0  0  0  0
  7  9  1  0  0  0  0
  9 10  1  6  0  0  0
  9 11  1  0  0  0  0
 11 12  1  6  0  0  0
 11 13  1  0  0  0  0
 13  8  1  1  0  0  0
 13 24  1  0  0  0  0
 14 15  1  0  0  0  0
 14 20  1  0  0  0  0
 15 16  1  6  0  0  0
 15 17  1  0  0  0  0
 18 17  1  1  0  0  0
 18 19  1  0  0  0  0
 18 24  1  0  0  0  0
 19 20  1  6  0  0  0
 19 22  1  0  0  0  0
 20 21  2  0  0  0  0
 22 23  1  0  0  0  0
 24 23  1  1  0  0  0
M  CHG  1   3  -1
M  END
>  <CHROM.1>
50.39482059,-177.54881053,179.92403167,5.18242886,-12.86321981,-7.15646434
8.40359402,-2.04831273,0.77229513,2.94118231

>  <Name>
ligand

>  <RI>
0

>  <Rbt.Current_Directory>
/home/itssahil/PROJECTS/Mol_Feturizer/New_Systems/rnas/3SLQ

>  <Rbt.Executable>
rbdock ($Id: //depot/dev/client3/rdock/2013.1/src/exe/rbdock.cxx#4 $)

>  <Rbt.Library>
libRbt.so (2013.1, Build901 2013/11/27)

>  <Rbt.Parameter_File>
/export/apps/rDock/src/rDock_2013.1_src/data/scripts/dock_solv.prm

>  <Rbt.Receptor>
prm/blind_docking_40.prm

>  <SCORE>
-14.9025

>  <SCORE.INTER>
-10.6689

>  <SCORE.INTER.CONST>
1

>  <SCORE.INTER.POLAR>
0

>  <SCORE.INTER.ROT>
4

>  <SCORE.INTER.SOLV>
9.70693

>  <SCORE.INTER.VDW>
-16.6149

>  <SCORE.INTER.norm>
-0.444539

>  <SCORE.INTRA>
-4.24416

>  <SCORE.INTRA.DIHEDRAL>
-11.8884

>  <SCORE.INTRA.DIHEDRAL.0>
13.2525

>  <SCORE.INTRA.POLAR>
0

>  <SCORE.INTRA.POLAR.0>
0

>  <SCORE.INTRA.REPUL>
0

>  <SCORE.INTRA.REPUL.0>
0

>  <SCORE.INTRA.SOLV>
1.84159

>  <SCORE.INTRA.SOLV.lig_0>
-70.7221

>  <SCORE.INTRA.VDW>
0.779263

>  <SCORE.INTRA.VDW.0>
-1.46337

>  <SCORE.INTRA.norm>
-0.17684

>  <SCORE.RESTR>
0.0105663

>  <SCORE.RESTR.CAVITY>
0.0105663

>  <SCORE.RESTR.norm>
0.000440263

>  <SCORE.SYSTEM>
0

>  <SCORE.SYSTEM.CONST>
0

>  <SCORE.SYSTEM.DIHEDRAL>
0

>  <SCORE.SYSTEM.SOLV>
0

>  <SCORE.SYSTEM.norm>
0

>  <SCORE.heavy>
24

>  <SCORE.norm>
-0.620938

>  <RMSD>
9.489

$$$$
ligand
 OpenBabel11021811483D
libRbt.so/2013.1/901 2013/11/27
 24 26  0  0  0  0  0  0  0  0999 V2000
  -12.8599   -8.3879    8.0639 P   0  0  1  0  0  0  0  0  0  0  0  0
  -14.2175   -9.0284    8.2592 O   0  0  0  0  0  0  0  0  0  0  0  0
  -11.8911   -9.1287    7.1725 O   0  5  0  0  0  0  0  0  0  0  0  0
  -12.9162   -6.8981    7.7609 O   0  0  0  0  0  0  0  0  0  0  0  0
  -11.6961   -9.8217   10.0396 C   0  0  0  0  0  0  0  0  0  0  0  0
  -12.1389   -8.5606    9.5087 O   0  0  0  0  0  0  0  0  0  0  0  0
  -11.0418   -9.6097   11.4081 C   0  0  1  0  0  0  0  0  0  0  0  0
  -10.3851  -10.7947   11.8758 O   0  0  0  0  0  0  0  0  0  0  0  0
   -9.9900   -8.5143   11.4495 C   0  0  1  0  0  0  0  0  0  0  0  0
  -10.6220   -7.2784   11.7958 O   0  0  0  0  0  0  0  0  0  0  0  0
   -9.0417   -8.9805   12.5420 C   0  0  1  0  0  0  0  0  0  0  0  0
   -9.5500   -8.6229   13.8351 O   0  0  0  0  0  0  0  0  0  0  0  0
   -9.1162  -10.4928   12.4692 C   0  0  2  0  0  0  0  0  0  0  0  0
   -5.7600  -14.3122   12.0172 N   0  0  0  0  0  0  0  0  0  0  0  0
   -6.5793  -14.0059   13.0488 C   0  0  1  0  0  0  0  0  0  0  0  0
   -6.5674  -14.7844   14.1544 N   0  0  0  0  0  0  0  0  0  0  0  0
   -7.4055  -12.9355   12.9877 N   0  0  0  0  0  0  0  0  0  0  0  0
   -7.4124  -12.1591   11.8778 C   0  0  1  0  0  0  0  0  0  0  0  0
   -6.5852  -12.4475   10.8102 C   0  0  2  0  0  0  0  0  0  0  0  0
   -5.7469  -13.5528   10.8976 C   0  0  0  0  0  0  0  0  0  0  0  0
   -4.9841  -13.8487    9.9567 O   0  0  0  0  0  0  0  0  0  0  0  0
   -6.8075  -11.5089    9.8676 N   0  0  0  0  0  0  0  0  0  0  0  0
   -7.7553  -10.6661   10.3401 C   0  0  0  0  0  0  0  0  0  0  0  0
   -8.1117  -11.0772   11.5612 N   0  0  1  0  0  0  0  0  0  0  0  0
  1  2  1  6  0  0  0
  1  3  1  0  0  0  0
  1  4  2  0  0  0  0
  1  6  1  0  0  0  0
  5  6  1  0  0  0  0
  7  5  1  6  0  0  0
  7  8  1  0  0  0  0
  7  9  1  0  0  0  0
  9 10  1  1  0  0  0
  9 11  1  0  0  0  0
 11 12  1  1  0  0  0
 11 13  1  0  0  0  0
 13  8  1  6  0  0  0
 13 24  1  0  0  0  0
 14 15  1  0  0  0  0
 14 20  1  0  0  0  0
 15 16  1  1  0  0  0
 15 17  1  0  0  0  0
 18 17  1  6  0  0  0
 18 19  1  0  0  0  0
 18 24  1  0  0  0  0
 19 20  1  1  0  0  0
 19 22  1  0  0  0  0
 20 21  2  0  0  0  0
 22 23  1  0  0  0  0
 24 23  1  6  0  0  0
M  CHG  1   3  -1
M  END
>  <CHROM.1>
69.99682751,-170.15801948,179.03416867,-108.03146426,-9.44506051,-10.51166519
10.78201283,-2.95834882,-0.75352994,1.26504426

>  <Name>
ligand

>  <RI>
0

>  <Rbt.Current_Directory>
/home/itssahil/PROJECTS/Mol_Feturizer/New_Systems/rnas/3SLQ

>  <Rbt.Executable>
rbdock ($Id: //depot/dev/client3/rdock/2013.1/src/exe/rbdock.cxx#4 $)

>  <Rbt.Library>
libRbt.so (2013.1, Build901 2013/11/27)

>  <Rbt.Parameter_File>
/export/apps/rDock/src/rDock_2013.1_src/data/scripts/dock_solv.prm

>  <Rbt.Receptor>
prm/pocket_docking_8.prm

>  <SCORE>
-16.2863

>  <SCORE.INTER>
-10.4179

>  <SCORE.INTER.CONST>
1

>  <SCORE.INTER.POLAR>
0

>  <SCORE.INTER.ROT>
4

>  <SCORE.INTER.SOLV>
10.9116

>  <SCORE.INTER.VDW>
-16.8491

>  <SCORE.INTER.norm>
-0.434078

>  <SCORE.INTRA>
-5.86847

>  <SCORE.INTRA.DIHEDRAL>
-11.554

>  <SCORE.INTRA.DIHEDRAL.0>
13.2525

>  <SCORE.INTRA.POLAR>
0

>  <SCORE.INTRA.POLAR.0>
0

>  <SCORE.INTRA.REPUL>
0

>  <SCORE.INTRA.REPUL.0>
0

>  <SCORE.INTRA.SOLV>
0.237365

>  <SCORE.INTRA.SOLV.lig_0>
-70.7221

>  <SCORE.INTRA.VDW>
-0.210128

>  <SCORE.INTRA.VDW.0>
-1.46337

>  <SCORE.INTRA.norm>
-0.24452

>  <SCORE.RESTR>
0

>  <SCORE.RESTR.CAVITY>
0

>  <SCORE.RESTR.norm>
0

>  <SCORE.SYSTEM>
0

>  <SCORE.SYSTEM.CONST>
0

>  <SCORE.SYSTEM.DIHEDRAL>
0

>  <SCORE.SYSTEM.SOLV>
0

>  <SCORE.SYSTEM.norm>
0

>  <SCORE.heavy>
24

>  <SCORE.norm>
-0.678598

>  <RMSD>
9.509

$$$$
ligand
 OpenBabel11021811483D
libRbt.so/2013.1/901 2013/11/27
 24 26  0  0  0  0  0  0  0  0999 V2000
  -13.5735   -9.8975    8.5566 P   0  0  1  0  0  0  0  0  0  0  0  0
  -14.0697   -8.4693    8.4820 O   0  0  0  0  0  0  0  0  0  0  0  0
  -14.6030  -10.9477    8.9017 O   0  5  0  0  0  0  0  0  0  0  0  0
  -12.6852  -10.3058    7.3909 O   0  0  0  0  0  0  0  0  0  0  0  0
  -11.4932   -9.0922   10.0854 C   0  0  0  0  0  0  0  0  0  0  0  0
  -12.6546   -9.9187    9.8954 O   0  0  0  0  0  0  0  0  0  0  0  0
  -10.9528   -9.2722   11.5072 C   0  0  1  0  0  0  0  0  0  0  0  0
  -10.4628  -10.6008   11.7283 O   0  0  0  0  0  0  0  0  0  0  0  0
   -9.8070   -8.3456   11.8762 C   0  0  1  0  0  0  0  0  0  0  0  0
  -10.3440   -7.1540   12.4579 O   0  0  0  0  0  0  0  0  0  0  0  0
   -9.0160   -9.1539   12.8917 C   0  0  1  0  0  0  0  0  0  0  0  0
   -9.6060   -9.0396   14.1944 O   0  0  0  0  0  0  0  0  0  0  0  0
   -9.2317  -10.5914   12.4618 C   0  0  2  0  0  0  0  0  0  0  0  0
   -5.6739  -14.1864   11.7729 N   0  0  0  0  0  0  0  0  0  0  0  0
   -6.4948  -13.9809   12.8280 C   0  0  1  0  0  0  0  0  0  0  0  0
   -6.4242  -14.8140   13.8908 N   0  0  0  0  0  0  0  0  0  0  0  0
   -7.3803  -12.9572   12.8324 N   0  0  0  0  0  0  0  0  0  0  0  0
   -7.4458  -12.1257   11.7650 C   0  0  1  0  0  0  0  0  0  0  0  0
   -6.6185  -12.3110   10.6749 C   0  0  2  0  0  0  0  0  0  0  0  0
   -5.7186  -13.3702   10.6948 C   0  0  0  0  0  0  0  0  0  0  0  0
   -4.9534  -13.5732    9.7315 O   0  0  0  0  0  0  0  0  0  0  0  0
   -6.9058  -11.3387    9.7855 N   0  0  0  0  0  0  0  0  0  0  0  0
   -7.8926  -10.5765   10.3120 C   0  0  0  0  0  0  0  0  0  0  0  0
   -8.2087  -11.0701   11.5135 N   0  0  1  0  0  0  0  0  0  0  0  0
  1  2  1  6  0  0  0
  1  3  1  0  0  0  0
  1  4  2  0  0  0  0
  1  6  1  0  0  0  0
  5  6  1  0  0  0  0
  7  5  1  6  0  0  0
  7  8  1  0  0  0  0
  7  9  1  0  0  0  0
  9 10  1  1  0  0  0
  9 11  1  0  0  0  0
 11 12  1  1  0  0  0
 11 13  1  0  0  0  0
 13  8  1  6  0  0  0
 13 24  1  0  0  0  0
 14 15  1  0  0  0  0
 14 20  1  0  0  0  0
 15 16  1  1  0  0  0
 15 17  1  0  0  0  0
 18 17  1  6  0  0  0
 18 19  1  0  0  0  0
 18 24  1  0  0  0  0
 19 20  1  1  0  0  0
 19 22  1  0  0  0  0
 20 21  2  0  0  0  0
 22 23  1  0  0  0  0
 24 23  1  6  0  0  0
M  CHG  1   3  -1
M  END
>  <CHROM.1>
-59.89299451,65.41650308,174.52701206,-123.05333569,-9.61377755,-10.84367139
10.92157338,3.09825265,-0.58677035,0.88124322

>  <Name>
ligand

>  <RI>
0

>  <Rbt.Current_Directory>
/home/itssahil/PROJECTS/Mol_Feturizer/New_Systems/rnas/3SLQ

>  <Rbt.Executable>
rbdock ($Id: //depot/dev/client3/rdock/2013.1/src/exe/rbdock.cxx#4 $)

>  <Rbt.Library>
libRbt.so (2013.1, Build901 2013/11/27)

>  <Rbt.Parameter_File>
/export/apps/rDock/src/rDock_2013.1_src/data/scripts/dock_solv.prm

>  <Rbt.Receptor>
prm/pocket_docking_8.prm

>  <SCORE>
-17.7309

>  <SCORE.INTER>
-11.3015

>  <SCORE.INTER.CONST>
1

>  <SCORE.INTER.POLAR>
0

>  <SCORE.INTER.ROT>
4

>  <SCORE.INTER.SOLV>
13.8608

>  <SCORE.INTER.VDW>
-18.4213

>  <SCORE.INTER.norm>
-0.470898

>  <SCORE.INTRA>
-6.42937

>  <SCORE.INTRA.DIHEDRAL>
-11.796

>  <SCORE.INTRA.DIHEDRAL.0>
13.2525

>  <SCORE.INTRA.POLAR>
0

>  <SCORE.INTRA.POLAR.0>
0

>  <SCORE.INTRA.REPUL>
0

>  <SCORE.INTRA.REPUL.0>
0

>  <SCORE.INTRA.SOLV>
-0.197013

>  <SCORE.INTRA.SOLV.lig_0>
-70.7221

>  <SCORE.INTRA.VDW>
-0.432888

>  <SCORE.INTRA.VDW.0>
-1.46337

>  <SCORE.INTRA.norm>
-0.267891

>  <SCORE.RESTR>
0

>  <SCORE.RESTR.CAVITY>
0

>  <SCORE.RESTR.norm>
0

>  <SCORE.SYSTEM>
0

>  <SCORE.SYSTEM.CONST>
0

>  <SCORE.SYSTEM.DIHEDRAL>
0

>  <SCORE.SYSTEM.SOLV>
0

>  <SCORE.SYSTEM.norm>
0

>  <SCORE.heavy>
24

>  <SCORE.norm>
-0.738788

>  <RMSD>
9.514

$$$$
ligand
 OpenBabel11021811483D
libRbt.so/2013.1/901 2013/11/27
 24 26  0  0  0  0  0  0  0  0999 V2000
   -9.3162   -9.8062   11.7645 P   0  0  1  0  0  0  0  0  0  0  0  0
   -8.2444   -8.8572   11.2725 O   0  0  0  0  0  0  0  0  0  0  0  0
  -10.7468   -9.3749   11.5427 O   0  5  0  0  0  0  0  0  0  0  0  0
   -9.0755  -11.2605   11.3880 O   0  0  0  0  0  0  0  0  0  0  0  0
   -8.0463  -10.0712   14.1374 C   0  0  0  0  0  0  0  0  0  0  0  0
   -9.2129   -9.7020   13.3818 O   0  0  0  0  0  0  0  0  0  0  0  0
   -8.2989   -9.8422   15.6306 C   0  0  1  0  0  0  0  0  0  0  0  0
   -8.5970   -8.4701   15.9178 O   0  0  0  0  0  0  0  0  0  0  0  0
   -9.4512  -10.6429   16.2128 C   0  0  1  0  0  0  0  0  0  0  0  0
   -8.9477  -11.8883   16.7049 O   0  0  0  0  0  0  0  0  0  0  0  0
   -9.9554   -9.7601   17.3427 C   0  0  1  0  0  0  0  0  0  0  0  0
   -9.1555   -9.9440   18.5194 O   0  0  0  0  0  0  0  0  0  0  0  0
   -9.6694   -8.3516   16.8609 C   0  0  2  0  0  0  0  0  0  0  0  0
  -14.7620   -8.0458   16.6939 N   0  0  0  0  0  0  0  0  0  0  0  0
  -13.9699   -8.7279   17.5522 C   0  0  1  0  0  0  0  0  0  0  0  0
  -14.5395   -9.4529   18.5413 N   0  0  0  0  0  0  0  0  0  0  0  0
  -12.6220   -8.6936   17.4327 N   0  0  0  0  0  0  0  0  0  0  0  0
  -12.0575   -7.9660   16.4394 C   0  0  1  0  0  0  0  0  0  0  0  0
  -12.8421   -7.2612   15.5479 C   0  0  2  0  0  0  0  0  0  0  0  0
  -14.2236   -7.3121   15.6928 C   0  0  0  0  0  0  0  0  0  0  0  0
  -14.9687   -6.6908   14.9096 O   0  0  0  0  0  0  0  0  0  0  0  0
  -12.0101   -6.6478   14.6816 N   0  0  0  0  0  0  0  0  0  0  0  0
  -10.7418   -6.9612   15.0356 C   0  0  0  0  0  0  0  0  0  0  0  0
  -10.7900   -7.7610   16.1057 N   0  0  1  0  0  0  0  0  0  0  0  0
  1  2  1  6  0  0  0
  1  3  1  0  0  0  0
  1  4  2  0  0  0  0
  1  6  1  0  0  0  0
  5  6  1  0  0  0  0
  7  5  1  6  0  0  0
  7  8  1  0  0  0  0
  7  9  1  0  0  0  0
  9 10  1  1  0  0  0
  9 11  1  0  0  0  0
 11 12  1  1  0  0  0
 11 13  1  0  0  0  0
 13  8  1  6  0  0  0
 13 24  1  0  0  0  0
 14 15  1  0  0  0  0
 14 20  1  0  0  0  0
 15 16  1  6  0  0  0
 15 17  1  0  0  0  0
 18 17  1  1  0  0  0
 18 19  1  0  0  0  0
 18 24  1  0  0  0  0
 19 20  1  6  0  0  0
 19 22  1  0  0  0  0
 20 21  2  0  0  0  0
 22 23  1  0  0  0  0
 24 23  1  1  0  0  0
M  CHG  1   3  -1
M  END
>  <CHROM.1>
-62.20612954,-60.01933310,179.89962863,153.05121370,-10.76814822,-8.99397983
15.13035939,0.63435101,0.49036528,-1.42428661

>  <Name>
ligand

>  <RI>
0

>  <Rbt.Current_Directory>
/home/itssahil/PROJECTS/Mol_Feturizer/New_Systems/rnas/3SLQ

>  <Rbt.Executable>
rbdock ($Id: //depot/dev/client3/rdock/2013.1/src/exe/rbdock.cxx#4 $)

>  <Rbt.Library>
libRbt.so (2013.1, Build901 2013/11/27)

>  <Rbt.Parameter_File>
/export/apps/rDock/src/rDock_2013.1_src/data/scripts/dock_solv.prm

>  <Rbt.Receptor>
prm/pocket_docking_8.prm

>  <SCORE>
-14.6901

>  <SCORE.INTER>
-8.25776

>  <SCORE.INTER.CONST>
1

>  <SCORE.INTER.POLAR>
0

>  <SCORE.INTER.ROT>
4

>  <SCORE.INTER.SOLV>
12.0653

>  <SCORE.INTER.VDW>
-15.7936

>  <SCORE.INTER.norm>
-0.344073

>  <SCORE.INTRA>
-6.43232

>  <SCORE.INTRA.DIHEDRAL>
-12.0638

>  <SCORE.INTRA.DIHEDRAL.0>
13.2525

>  <SCORE.INTRA.POLAR>
0

>  <SCORE.INTRA.POLAR.0>
0

>  <SCORE.INTRA.REPUL>
0

>  <SCORE.INTRA.REPUL.0>
0

>  <SCORE.INTRA.SOLV>
-0.00806338

>  <SCORE.INTRA.SOLV.lig_0>
-70.7221

>  <SCORE.INTRA.VDW>
-0.396405

>  <SCORE.INTRA.VDW.0>
-1.46337

>  <SCORE.INTRA.norm>
-0.268013

>  <SCORE.RESTR>
0

>  <SCORE.RESTR.CAVITY>
0

>  <SCORE.RESTR.norm>
0

>  <SCORE.SYSTEM>
0

>  <SCORE.SYSTEM.CONST>
0

>  <SCORE.SYSTEM.DIHEDRAL>
0

>  <SCORE.SYSTEM.SOLV>
0

>  <SCORE.SYSTEM.norm>
0

>  <SCORE.heavy>
24

>  <SCORE.norm>
-0.612087

>  <RMSD>
9.581

$$$$
ligand
 OpenBabel11021811483D
libRbt.so/2013.1/901 2013/11/27
 24 26  0  0  0  0  0  0  0  0999 V2000
  -10.5652   -9.4958   11.0181 P   0  0  1  0  0  0  0  0  0  0  0  0
  -12.0213   -9.6502   11.4020 O   0  0  0  0  0  0  0  0  0  0  0  0
   -9.7580  -10.7691   10.9244 O   0  5  0  0  0  0  0  0  0  0  0  0
  -10.3315   -8.5634    9.8389 O   0  0  0  0  0  0  0  0  0  0  0  0
  -10.0571   -7.4172   12.6719 C   0  0  0  0  0  0  0  0  0  0  0  0
   -9.8921   -8.8027   12.3234 O   0  0  0  0  0  0  0  0  0  0  0  0
   -9.2425   -7.0957   13.9284 C   0  0  1  0  0  0  0  0  0  0  0  0
   -9.7296   -7.8022   15.0763 O   0  0  0  0  0  0  0  0  0  0  0  0
   -7.7647   -7.4346   13.8347 C   0  0  1  0  0  0  0  0  0  0  0  0
   -7.0581   -6.2928   13.3410 O   0  0  0  0  0  0  0  0  0  0  0  0
   -7.3849   -7.7460   15.2731 C   0  0  1  0  0  0  0  0  0  0  0  0
   -7.1218   -6.5354   15.9967 O   0  0  0  0  0  0  0  0  0  0  0  0
   -8.6546   -8.3199   15.8699 C   0  0  2  0  0  0  0  0  0  0  0  0
  -10.1690  -12.5485   18.2951 N   0  0  0  0  0  0  0  0  0  0  0  0
  -10.2006  -11.2617   18.7106 C   0  0  1  0  0  0  0  0  0  0  0  0
  -10.6987  -10.9757   19.9347 N   0  0  0  0  0  0  0  0  0  0  0  0
   -9.7417  -10.2634   17.9200 N   0  0  0  0  0  0  0  0  0  0  0  0
   -9.2433  -10.5564   16.6951 C   0  0  1  0  0  0  0  0  0  0  0  0
   -9.1974  -11.8616   16.2460 C   0  0  2  0  0  0  0  0  0  0  0  0
   -9.6756  -12.8682   17.0766 C   0  0  0  0  0  0  0  0  0  0  0  0
   -9.6526  -14.0599   16.7103 O   0  0  0  0  0  0  0  0  0  0  0  0
   -8.6527  -11.8407   15.0124 N   0  0  0  0  0  0  0  0  0  0  0  0
   -8.3764  -10.5518   14.7052 C   0  0  0  0  0  0  0  0  0  0  0  0
   -8.7430   -9.7862   15.7379 N   0  0  1  0  0  0  0  0  0  0  0  0
  1  2  1  1  0  0  0
  1  3  1  0  0  0  0
  1  4  2  0  0  0  0
  1  6  1  0  0  0  0
  5  6  1  0  0  0  0
  7  5  1  6  0  0  0
  7  8  1  0  0  0  0
  7  9  1  0  0  0  0
  9 10  1  1  0  0  0
  9 11  1  0  0  0  0
 11 12  1  1  0  0  0
 11 13  1  0  0  0  0
 13  8  1  6  0  0  0
 13 24  1  0  0  0  0
 14 15  1  0  0  0  0
 14 20  1  0  0  0  0
 15 16  1  1  0  0  0
 15 17  1  0  0  0  0
 18 17  1  6  0  0  0
 18 19  1  0  0  0  0
 18 24  1  0  0  0  0
 19 20  1  1  0  0  0
 19 22  1  0  0  0  0
 20 21  2  0  0  0  0
 22 23  1  0  0  0  0
 24 23  1  6  0  0  0
M  CHG  1   3  -1
M  END
>  <CHROM.1>
-75.13978857,-65.00771252,-177.83182619,-103.11020307,-9.40636316,-9.62398907
14.62708904,1.59220489,-1.07373016,-1.06648119

>  <Name>
ligand

>  <RI>
0

>  <Rbt.Current_Directory>
/home/itssahil/PROJECTS/Mol_Feturizer/New_Systems/rnas/3SLQ

>  <Rbt.Executable>
rbdock ($Id: //depot/dev/client3/rdock/2013.1/src/exe/rbdock.cxx#4 $)

>  <Rbt.Library>
libRbt.so (2013.1, Build901 2013/11/27)

>  <Rbt.Parameter_File>
/export/apps/rDock/src/rDock_2013.1_src/data/scripts/dock_solv.prm

>  <Rbt.Receptor>
prm/pocket_docking_7.prm

>  <SCORE>
-14.566

>  <SCORE.INTER>
-7.97487

>  <SCORE.INTER.CONST>
1

>  <SCORE.INTER.POLAR>
0

>  <SCORE.INTER.ROT>
4

>  <SCORE.INTER.SOLV>
9.72706

>  <SCORE.INTER.VDW>
-14.8256

>  <SCORE.INTER.norm>
-0.332286

>  <SCORE.INTRA>
-6.59118

>  <SCORE.INTRA.DIHEDRAL>
-11.5982

>  <SCORE.INTRA.DIHEDRAL.0>
13.2525

>  <SCORE.INTRA.POLAR>
0

>  <SCORE.INTRA.POLAR.0>
0

>  <SCORE.INTRA.REPUL>
0

>  <SCORE.INTRA.REPUL.0>
0

>  <SCORE.INTRA.SOLV>
0.0922676

>  <SCORE.INTRA.SOLV.lig_0>
-70.7221

>  <SCORE.INTRA.VDW>
-0.838202

>  <SCORE.INTRA.VDW.0>
-1.46337

>  <SCORE.INTRA.norm>
-0.274632

>  <SCORE.RESTR>
0

>  <SCORE.RESTR.CAVITY>
0

>  <SCORE.RESTR.norm>
0

>  <SCORE.SYSTEM>
0

>  <SCORE.SYSTEM.CONST>
0

>  <SCORE.SYSTEM.DIHEDRAL>
0

>  <SCORE.SYSTEM.SOLV>
0

>  <SCORE.SYSTEM.norm>
0

>  <SCORE.heavy>
24

>  <SCORE.norm>
-0.606919

>  <RMSD>
9.800

$$$$
ligand
 OpenBabel11021811483D
libRbt.so/2013.1/901 2013/11/27
 24 26  0  0  0  0  0  0  0  0999 V2000
  -12.8536   -6.4182   16.0696 P   0  0  1  0  0  0  0  0  0  0  0  0
  -13.5070   -7.1655   14.9267 O   0  0  0  0  0  0  0  0  0  0  0  0
  -11.6367   -5.5933   15.7225 O   0  5  0  0  0  0  0  0  0  0  0  0
  -13.8342   -5.6725   16.9624 O   0  0  0  0  0  0  0  0  0  0  0  0
  -12.9203   -8.6759   17.5569 C   0  0  0  0  0  0  0  0  0  0  0  0
  -12.1807   -7.5933   16.9660 O   0  0  0  0  0  0  0  0  0  0  0  0
  -11.9843   -9.5473   18.3996 C   0  0  1  0  0  0  0  0  0  0  0  0
  -10.9290  -10.1140   17.6127 O   0  0  0  0  0  0  0  0  0  0  0  0
  -11.2982   -8.8233   19.5454 C   0  0  1  0  0  0  0  0  0  0  0  0
  -12.1119   -8.9344   20.7169 O   0  0  0  0  0  0  0  0  0  0  0  0
   -9.9886   -9.5786   19.7029 C   0  0  1  0  0  0  0  0  0  0  0  0
  -10.1829  -10.7627   20.4894 O   0  0  0  0  0  0  0  0  0  0  0  0
   -9.6728  -10.0580   18.3000 C   0  0  2  0  0  0  0  0  0  0  0  0
   -5.0327   -9.3655   16.2884 N   0  0  0  0  0  0  0  0  0  0  0  0
   -5.5131  -10.4098   17.0012 C   0  0  1  0  0  0  0  0  0  0  0  0
   -4.7051  -11.4647   17.2522 N   0  0  0  0  0  0  0  0  0  0  0  0
   -6.7852  -10.4108   17.4637 N   0  0  0  0  0  0  0  0  0  0  0  0
   -7.5895   -9.3509   17.2096 C   0  0  1  0  0  0  0  0  0  0  0  0
   -7.1248   -8.2705   16.4858 C   0  0  2  0  0  0  0  0  0  0  0  0
   -5.8149   -8.2944   16.0214 C   0  0  0  0  0  0  0  0  0  0  0  0
   -5.3553   -7.3397   15.3642 O   0  0  0  0  0  0  0  0  0  0  0  0
   -8.1356   -7.3816   16.4014 N   0  0  0  0  0  0  0  0  0  0  0  0
   -9.2009   -7.9054   17.0516 C   0  0  0  0  0  0  0  0  0  0  0  0
   -8.8513   -9.1019   17.5345 N   0  0  1  0  0  0  0  0  0  0  0  0
  1  2  1  6  0  0  0
  1  3  1  0  0  0  0
  1  4  2  0  0  0  0
  1  6  1  0  0  0  0
  5  6  1  0  0  0  0
  7  5  1  6  0  0  0
  7  8  1  0  0  0  0
  7  9  1  0  0  0  0
  9 10  1  1  0  0  0
  9 11  1  0  0  0  0
 11 12  1  1  0  0  0
 11 13  1  0  0  0  0
 13  8  1  6  0  0  0
 13 24  1  0  0  0  0
 14 15  1  0  0  0  0
 14 20  1  0  0  0  0
 15 16  1  1  0  0  0
 15 17  1  0  0  0  0
 18 17  1  6  0  0  0
 18 19  1  0  0  0  0
 18 24  1  0  0  0  0
 19 20  1  1  0  0  0
 19 22  1  0  0  0  0
 20 21  2  0  0  0  0
 22 23  1  0  0  0  0
 24 23  1  6  0  0  0
M  CHG  1   3  -1
M  END
>  <CHROM.1>
-58.87024732,-60.21893670,-176.63514574,-134.14995345,-9.76140126,-8.51952675
17.31259269,-2.94139088,-0.26660607,2.30017633

>  <Name>
ligand

>  <RI>
0

>  <Rbt.Current_Directory>
/home/itssahil/PROJECTS/Mol_Feturizer/New_Systems/rnas/3SLQ

>  <Rbt.Executable>
rbdock ($Id: //depot/dev/client3/rdock/2013.1/src/exe/rbdock.cxx#4 $)

>  <Rbt.Library>
libRbt.so (2013.1, Build901 2013/11/27)

>  <Rbt.Parameter_File>
/export/apps/rDock/src/rDock_2013.1_src/data/scripts/dock_solv.prm

>  <Rbt.Receptor>
prm/pocket_docking_8.prm

>  <SCORE>
-15.0221

>  <SCORE.INTER>
-8.12549

>  <SCORE.INTER.CONST>
1

>  <SCORE.INTER.POLAR>
0

>  <SCORE.INTER.ROT>
4

>  <SCORE.INTER.SOLV>
10.2097

>  <SCORE.INTER.VDW>
-15.0869

>  <SCORE.INTER.norm>
-0.338562

>  <SCORE.INTRA>
-6.89658

>  <SCORE.INTRA.DIHEDRAL>
-11.9787

>  <SCORE.INTRA.DIHEDRAL.0>
13.2525

>  <SCORE.INTRA.POLAR>
0

>  <SCORE.INTRA.POLAR.0>
0

>  <SCORE.INTRA.REPUL>
0

>  <SCORE.INTRA.REPUL.0>
0

>  <SCORE.INTRA.SOLV>
0.215161

>  <SCORE.INTRA.SOLV.lig_0>
-70.7221

>  <SCORE.INTRA.VDW>
-1.01479

>  <SCORE.INTRA.VDW.0>
-1.46337

>  <SCORE.INTRA.norm>
-0.287357

>  <SCORE.RESTR>
0

>  <SCORE.RESTR.CAVITY>
0

>  <SCORE.RESTR.norm>
0

>  <SCORE.SYSTEM>
0

>  <SCORE.SYSTEM.CONST>
0

>  <SCORE.SYSTEM.DIHEDRAL>
0

>  <SCORE.SYSTEM.SOLV>
0

>  <SCORE.SYSTEM.norm>
0

>  <SCORE.heavy>
24

>  <SCORE.norm>
-0.625919

>  <RMSD>
9.831

$$$$
ligand
 OpenBabel11021811483D
libRbt.so/2013.1/901 2013/11/27
 24 26  0  0  0  0  0  0  0  0999 V2000
  -14.4564   -0.5338    7.3380 P   0  0  1  0  0  0  0  0  0  0  0  0
  -14.0536    0.4530    8.4129 O   0  0  0  0  0  0  0  0  0  0  0  0
  -13.6196   -1.7868    7.2307 O   0  5  0  0  0  0  0  0  0  0  0  0
  -15.9501   -0.8183    7.2873 O   0  0  0  0  0  0  0  0  0  0  0  0
  -14.9088    1.1653    5.2833 C   0  0  0  0  0  0  0  0  0  0  0  0
  -14.0600    0.2179    5.9541 O   0  0  0  0  0  0  0  0  0  0  0  0
  -14.1733    1.7628    4.0800 C   0  0  1  0  0  0  0  0  0  0  0  0
  -13.5480    0.7514    3.2799 O   0  0  0  0  0  0  0  0  0  0  0  0
  -15.0498    2.5566    3.1264 C   0  0  1  0  0  0  0  0  0  0  0  0
  -15.0559    3.9275    3.5355 O   0  0  0  0  0  0  0  0  0  0  0  0
  -14.3583    2.3785    1.7846 C   0  0  1  0  0  0  0  0  0  0  0  0
  -13.2720    3.3062    1.6521 O   0  0  0  0  0  0  0  0  0  0  0  0
  -13.7236    1.0053    1.8805 C   0  0  2  0  0  0  0  0  0  0  0  0
  -14.5715   -2.0955   -2.0846 N   0  0  0  0  0  0  0  0  0  0  0  0
  -13.6357   -1.1308   -1.9330 C   0  0  1  0  0  0  0  0  0  0  0  0
  -12.7568   -0.9011   -2.9346 N   0  0  0  0  0  0  0  0  0  0  0  0
  -13.5697   -0.3971   -0.7975 N   0  0  0  0  0  0  0  0  0  0  0  0
  -14.4533   -0.6316    0.2020 C   0  0  1  0  0  0  0  0  0  0  0  0
  -15.4203   -1.6092    0.0736 C   0  0  2  0  0  0  0  0  0  0  0  0
  -15.4663   -2.3492   -1.1021 C   0  0  0  0  0  0  0  0  0  0  0  0
  -16.3233   -3.2411   -1.2593 O   0  0  0  0  0  0  0  0  0  0  0  0
  -16.1455   -1.6056    1.2107 N   0  0  0  0  0  0  0  0  0  0  0  0
  -15.6325   -0.6531    2.0241 C   0  0  0  0  0  0  0  0  0  0  0  0
  -14.6050   -0.0732    1.3957 N   0  0  1  0  0  0  0  0  0  0  0  0
  1  2  1  1  0  0  0
  1  3  1  0  0  0  0
  1  4  2  0  0  0  0
  1  6  1  0  0  0  0
  5  6  1  0  0  0  0
  7  5  1  1  0  0  0
  7  8  1  0  0  0  0
  7  9  1  0  0  0  0
  9 10  1  1  0  0  0
  9 11  1  0  0  0  0
 11 12  1  1  0  0  0
 11 13  1  0  0  0  0
 13  8  1  1  0  0  0
 13 24  1  0  0  0  0
 14 15  1  0  0  0  0
 14 20  1  0  0  0  0
 15 16  1  6  0  0  0
 15 17  1  0  0  0  0
 18 17  1  1  0  0  0
 18 19  1  0  0  0  0
 18 24  1  0  0  0  0
 19 20  1  6  0  0  0
 19 22  1  0  0  0  0
 20 21  2  0  0  0  0
 22 23  1  0  0  0  0
 24 23  1  1  0  0  0
M  CHG  1   3  -1
M  END
>  <CHROM.1>
-84.70945099,47.56671883,175.18089507,-142.76215289,-14.51929226,-0.00718308
2.72160906,1.54074800,1.33895646,1.41631513

>  <Name>
ligand

>  <RI>
0

>  <Rbt.Current_Directory>
/home/itssahil/PROJECTS/Mol_Feturizer/New_Systems/rnas/3SLQ

>  <Rbt.Executable>
rbdock ($Id: //depot/dev/client3/rdock/2013.1/src/exe/rbdock.cxx#4 $)

>  <Rbt.Library>
libRbt.so (2013.1, Build901 2013/11/27)

>  <Rbt.Parameter_File>
/export/apps/rDock/src/rDock_2013.1_src/data/scripts/dock_solv.prm

>  <Rbt.Receptor>
prm/blind_docking_80.prm

>  <SCORE>
-19.0373

>  <SCORE.INTER>
-13.7287

>  <SCORE.INTER.CONST>
1

>  <SCORE.INTER.POLAR>
0

>  <SCORE.INTER.ROT>
4

>  <SCORE.INTER.SOLV>
18.7413

>  <SCORE.INTER.VDW>
-21.6662

>  <SCORE.INTER.norm>
-0.572028

>  <SCORE.INTRA>
-5.57003

>  <SCORE.INTRA.DIHEDRAL>
-10.5095

>  <SCORE.INTRA.DIHEDRAL.0>
13.2525

>  <SCORE.INTRA.POLAR>
0

>  <SCORE.INTRA.POLAR.0>
0

>  <SCORE.INTRA.REPUL>
0

>  <SCORE.INTRA.REPUL.0>
0

>  <SCORE.INTRA.SOLV>
0.0687216

>  <SCORE.INTRA.SOLV.lig_0>
-70.7221

>  <SCORE.INTRA.VDW>
-0.349659

>  <SCORE.INTRA.VDW.0>
-1.46337

>  <SCORE.INTRA.norm>
-0.232084

>  <SCORE.RESTR>
0.26142

>  <SCORE.RESTR.CAVITY>
0.26142

>  <SCORE.RESTR.norm>
0.0108925

>  <SCORE.SYSTEM>
0

>  <SCORE.SYSTEM.CONST>
0

>  <SCORE.SYSTEM.DIHEDRAL>
0

>  <SCORE.SYSTEM.SOLV>
0

>  <SCORE.SYSTEM.norm>
0

>  <SCORE.heavy>
24

>  <SCORE.norm>
-0.79322

>  <RMSD>
13.821

$$$$
ligand
 OpenBabel11021811483D
libRbt.so/2013.1/901 2013/11/27
 24 26  0  0  0  0  0  0  0  0999 V2000
  -16.2983    1.8735    1.4992 P   0  0  1  0  0  0  0  0  0  0  0  0
  -16.7953    0.4919    1.1309 O   0  0  0  0  0  0  0  0  0  0  0  0
  -16.8126    3.0174    0.6572 O   0  5  0  0  0  0  0  0  0  0  0  0
  -16.3482    2.1721    2.9901 O   0  0  0  0  0  0  0  0  0  0  0  0
  -13.9242    0.6637    1.0375 C   0  0  0  0  0  0  0  0  0  0  0  0
  -14.7344    1.8516    1.0624 O   0  0  0  0  0  0  0  0  0  0  0  0
  -14.2764   -0.1814   -0.1904 C   0  0  1  0  0  0  0  0  0  0  0  0
  -14.1312    0.5596   -1.4085 O   0  0  0  0  0  0  0  0  0  0  0  0
  -13.4321   -1.4318   -0.3677 C   0  0  1  0  0  0  0  0  0  0  0  0
  -14.0719   -2.5215    0.3033 O   0  0  0  0  0  0  0  0  0  0  0  0
  -13.4194   -1.6351   -1.8739 C   0  0  1  0  0  0  0  0  0  0  0  0
  -14.6123   -2.3085   -2.3003 O   0  0  0  0  0  0  0  0  0  0  0  0
  -13.5128   -0.2291   -2.4328 C   0  0  2  0  0  0  0  0  0  0  0  0
   -8.7871   -1.1943   -4.1039 N   0  0  0  0  0  0  0  0  0  0  0  0
   -9.8448   -2.0294   -3.9879 C   0  0  1  0  0  0  0  0  0  0  0  0
   -9.7070   -3.3234   -4.3552 N   0  0  0  0  0  0  0  0  0  0  0  0
  -11.0319   -1.5873   -3.5110 N   0  0  0  0  0  0  0  0  0  0  0  0
  -11.1635   -0.2900   -3.1441 C   0  0  1  0  0  0  0  0  0  0  0  0
  -10.0997    0.5843   -3.2503 C   0  0  2  0  0  0  0  0  0  0  0  0
   -8.8917    0.1056   -3.7439 C   0  0  0  0  0  0  0  0  0  0  0  0
   -7.9061    0.8611   -3.8559 O   0  0  0  0  0  0  0  0  0  0  0  0
  -10.5252    1.7863   -2.8108 N   0  0  0  0  0  0  0  0  0  0  0  0
  -11.8231    1.6576   -2.4493 C   0  0  0  0  0  0  0  0  0  0  0  0
  -12.1940    0.3906   -2.6600 N   0  0  1  0  0  0  0  0  0  0  0  0
  1  2  1  6  0  0  0
  1  3  1  0  0  0  0
  1  4  2  0  0  0  0
  1  6  1  0  0  0  0
  5  6  1  0  0  0  0
  7  5  1  1  0  0  0
  7  8  1  0  0  0  0
  7  9  1  0  0  0  0
  9 10  1  1  0  0  0
  9 11  1  0  0  0  0
 11 12  1  1  0  0  0
 11 13  1  0  0  0  0
 13  8  1  1  0  0  0
 13 24  1  0  0  0  0
 14 15  1  0  0  0  0
 14 20  1  0  0  0  0
 15 16  1  1  0  0  0
 15 17  1  0  0  0  0
 18 17  1  6  0  0  0
 18 19  1  0  0  0  0
 18 24  1  0  0  0  0
 19 20  1  1  0  0  0
 19 22  1  0  0  0  0
 20 21  2  0  0  0  0
 22 23  1  0  0  0  0
 24 23  1  6  0  0  0
M  CHG  1   3  -1
M  END
>  <CHROM.1>
-28.76241888,56.46663141,76.03629307,154.76690516,-12.98640352,0.09392438
-1.31899146,-2.71215585,-0.59841943,-2.87266663

>  <Name>
ligand

>  <RI>
0

>  <Rbt.Current_Directory>
/home/itssahil/PROJECTS/Mol_Feturizer/New_Systems/rnas/3SLQ

>  <Rbt.Executable>
rbdock ($Id: //depot/dev/client3/rdock/2013.1/src/exe/rbdock.cxx#4 $)

>  <Rbt.Library>
libRbt.so (2013.1, Build901 2013/11/27)

>  <Rbt.Parameter_File>
/export/apps/rDock/src/rDock_2013.1_src/data/scripts/dock_solv.prm

>  <Rbt.Receptor>
prm/blind_docking_80.prm

>  <SCORE>
-15.1711

>  <SCORE.INTER>
-10.7734

>  <SCORE.INTER.CONST>
1

>  <SCORE.INTER.POLAR>
0

>  <SCORE.INTER.ROT>
4

>  <SCORE.INTER.SOLV>
17.3927

>  <SCORE.INTER.VDW>
-19.2465

>  <SCORE.INTER.norm>
-0.448893

>  <SCORE.INTRA>
-4.39767

>  <SCORE.INTRA.DIHEDRAL>
-9.54821

>  <SCORE.INTRA.DIHEDRAL.0>
13.2525

>  <SCORE.INTRA.POLAR>
0

>  <SCORE.INTRA.POLAR.0>
0

>  <SCORE.INTRA.REPUL>
0

>  <SCORE.INTRA.REPUL.0>
0

>  <SCORE.INTRA.SOLV>
0.657849

>  <SCORE.INTRA.SOLV.lig_0>
-70.7221

>  <SCORE.INTRA.VDW>
0.0475124

>  <SCORE.INTRA.VDW.0>
-1.46337

>  <SCORE.INTRA.norm>
-0.183236

>  <SCORE.RESTR>
0

>  <SCORE.RESTR.CAVITY>
0

>  <SCORE.RESTR.norm>
0

>  <SCORE.SYSTEM>
0

>  <SCORE.SYSTEM.CONST>
0

>  <SCORE.SYSTEM.DIHEDRAL>
0

>  <SCORE.SYSTEM.SOLV>
0

>  <SCORE.SYSTEM.norm>
0

>  <SCORE.heavy>
24

>  <SCORE.norm>
-0.632129

>  <RMSD>
15.536

$$$$
ligand
 OpenBabel11021811483D
libRbt.so/2013.1/901 2013/11/27
 24 26  0  0  0  0  0  0  0  0999 V2000
    1.5212    0.4442   -2.7108 P   0  0  1  0  0  0  0  0  0  0  0  0
    1.3005   -0.9791   -3.1768 O   0  0  0  0  0  0  0  0  0  0  0  0
    2.1129    1.3968   -3.7229 O   0  5  0  0  0  0  0  0  0  0  0  0
    0.3383    1.0411   -1.9631 O   0  0  0  0  0  0  0  0  0  0  0  0
    2.6818   -0.4343   -0.4316 C   0  0  0  0  0  0  0  0  0  0  0  0
    2.7482    0.3198   -1.6544 O   0  0  0  0  0  0  0  0  0  0  0  0
    4.0931   -0.6568    0.1203 C   0  0  1  0  0  0  0  0  0  0  0  0
    4.5448    0.4591    0.8980 O   0  0  0  0  0  0  0  0  0  0  0  0
    4.2418   -1.8713    1.0206 C   0  0  1  0  0  0  0  0  0  0  0  0
    4.6054   -2.9996    0.2198 O   0  0  0  0  0  0  0  0  0  0  0  0
    5.3647   -1.4724    1.9641 C   0  0  1  0  0  0  0  0  0  0  0  0
    6.6413   -1.6980    1.3497 O   0  0  0  0  0  0  0  0  0  0  0  0
    5.2217    0.0317    2.0865 C   0  0  2  0  0  0  0  0  0  0  0  0
    4.9303    0.2258    7.1790 N   0  0  0  0  0  0  0  0  0  0  0  0
    5.9201   -0.2553    6.3927 C   0  0  1  0  0  0  0  0  0  0  0  0
    7.0293   -0.7705    6.9695 N   0  0  0  0  0  0  0  0  0  0  0  0
    5.8135   -0.2273    5.0437 N   0  0  0  0  0  0  0  0  0  0  0  0
    4.6996    0.2896    4.4719 C   0  0  1  0  0  0  0  0  0  0  0  0
    3.6727    0.7862    5.2504 C   0  0  2  0  0  0  0  0  0  0  0  0
    3.8072    0.7466    6.6333 C   0  0  0  0  0  0  0  0  0  0  0  0
    2.9039    1.1842    7.3731 O   0  0  0  0  0  0  0  0  0  0  0  0
    2.7100    1.2209    4.4120 N   0  0  0  0  0  0  0  0  0  0  0  0
    3.1369    1.0043    3.1460 C   0  0  0  0  0  0  0  0  0  0  0  0
    4.3472    0.4396    3.2018 N   0  0  1  0  0  0  0  0  0  0  0  0
  1  2  1  6  0  0  0
  1  3  1  0  0  0  0
  1  4  2  0  0  0  0
  1  6  1  0  0  0  0
  5  6  1  0  0  0  0
  7  5  1  1  0  0  0
  7  8  1  0  0  0  0
  7  9  1  0  0  0  0
  9 10  1  6  0  0  0
  9 11  1  0  0  0  0
 11 12  1  6  0  0  0
 11 13  1  0  0  0  0
 13  8  1  6  0  0  0
 13 24  1  0  0  0  0
 14 15  1  0  0  0  0
 14 20  1  0  0  0  0
 15 16  1  1  0  0  0
 15 17  1  0  0  0  0
 18 17  1  6  0  0  0
 18 19  1  0  0  0  0
 18 24  1  0  0  0  0
 19 20  1  1  0  0  0
 19 22  1  0  0  0  0
 20 21  2  0  0  0  0
 22 23  1  0  0  0  0
 24 23  1  6  0  0  0
M  CHG  1   3  -1
M  END
>  <CHROM.1>
-62.56999439,84.19488336,164.53929303,-175.13598334,3.76460500,-0.05936244
1.83922416,1.99022873,0.62405761,-1.83071950

>  <Name>
ligand

>  <RI>
0

>  <Rbt.Current_Directory>
/home/itssahil/PROJECTS/Mol_Feturizer/New_Systems/rnas/3SLQ

>  <Rbt.Executable>
rbdock ($Id: //depot/dev/client3/rdock/2013.1/src/exe/rbdock.cxx#4 $)

>  <Rbt.Library>
libRbt.so (2013.1, Build901 2013/11/27)

>  <Rbt.Parameter_File>
/export/apps/rDock/src/rDock_2013.1_src/data/scripts/dock_solv.prm

>  <Rbt.Receptor>
prm/blind_docking_40.prm

>  <SCORE>
-16.957

>  <SCORE.INTER>
-12.0896

>  <SCORE.INTER.CONST>
1

>  <SCORE.INTER.POLAR>
0

>  <SCORE.INTER.ROT>
4

>  <SCORE.INTER.SOLV>
13.9044

>  <SCORE.INTER.VDW>
-18.9612

>  <SCORE.INTER.norm>
-0.503732

>  <SCORE.INTRA>
-4.86739

>  <SCORE.INTRA.DIHEDRAL>
-9.07256

>  <SCORE.INTRA.DIHEDRAL.0>
13.2525

>  <SCORE.INTRA.POLAR>
0

>  <SCORE.INTRA.POLAR.0>
0

>  <SCORE.INTRA.REPUL>
0

>  <SCORE.INTRA.REPUL.0>
0

>  <SCORE.INTRA.SOLV>
-0.199245

>  <SCORE.INTRA.SOLV.lig_0>
-70.7221

>  <SCORE.INTRA.VDW>
-0.231487

>  <SCORE.INTRA.VDW.0>
-1.46337

>  <SCORE.INTRA.norm>
-0.202808

>  <SCORE.RESTR>
0

>  <SCORE.RESTR.CAVITY>
0

>  <SCORE.RESTR.norm>
0

>  <SCORE.SYSTEM>
0

>  <SCORE.SYSTEM.CONST>
0

>  <SCORE.SYSTEM.DIHEDRAL>
0

>  <SCORE.SYSTEM.SOLV>
0

>  <SCORE.SYSTEM.norm>
0

>  <SCORE.heavy>
24

>  <SCORE.norm>
-0.70654

>  <RMSD>
15.619

$$$$
ligand
 OpenBabel11021811483D
libRbt.so/2013.1/901 2013/11/27
 24 26  0  0  0  0  0  0  0  0999 V2000
  -14.4661    3.7980    1.3726 P   0  0  1  0  0  0  0  0  0  0  0  0
  -13.0238    4.1464    1.0730 O   0  0  0  0  0  0  0  0  0  0  0  0
  -14.7628    3.3190    2.7742 O   0  5  0  0  0  0  0  0  0  0  0  0
  -15.4678    4.8320    0.8804 O   0  0  0  0  0  0  0  0  0  0  0  0
  -14.0323    1.1977    0.7697 C   0  0  0  0  0  0  0  0  0  0  0  0
  -14.7199    2.4367    0.5243 O   0  0  0  0  0  0  0  0  0  0  0  0
  -14.3187    0.2096   -0.3649 C   0  0  1  0  0  0  0  0  0  0  0  0
  -14.0863    0.7932   -1.6531 O   0  0  0  0  0  0  0  0  0  0  0  0
  -13.4832   -1.0587   -0.3324 C   0  0  1  0  0  0  0  0  0  0  0  0
  -14.1798   -2.0528    0.4250 O   0  0  0  0  0  0  0  0  0  0  0  0
  -13.3786   -1.4469   -1.7982 C   0  0  1  0  0  0  0  0  0  0  0  0
  -14.5519   -2.1600   -2.2143 O   0  0  0  0  0  0  0  0  0  0  0  0
  -13.4162   -0.1203   -2.5306 C   0  0  2  0  0  0  0  0  0  0  0  0
   -8.7036   -1.2391   -4.1420 N   0  0  0  0  0  0  0  0  0  0  0  0
   -9.7872   -2.0411   -4.0323 C   0  0  1  0  0  0  0  0  0  0  0  0
   -9.6846   -3.3412   -4.3894 N   0  0  0  0  0  0  0  0  0  0  0  0
  -10.9657   -1.5601   -3.5718 N   0  0  0  0  0  0  0  0  0  0  0  0
  -11.0620   -0.2569   -3.2150 C   0  0  1  0  0  0  0  0  0  0  0  0
   -9.9713    0.5842   -3.3151 C   0  0  2  0  0  0  0  0  0  0  0  0
   -8.7729    0.0659   -3.7918 C   0  0  0  0  0  0  0  0  0  0  0  0
   -7.7637    0.7905   -3.8977 O   0  0  0  0  0  0  0  0  0  0  0  0
  -10.3650    1.8015   -2.8884 N   0  0  0  0  0  0  0  0  0  0  0  0
  -11.6702    1.7145   -2.5407 C   0  0  0  0  0  0  0  0  0  0  0  0
  -12.0768    0.4578   -2.7471 N   0  0  1  0  0  0  0  0  0  0  0  0
  1  2  1  6  0  0  0
  1  3  1  0  0  0  0
  1  4  2  0  0  0  0
  1  6  1  0  0  0  0
  5  6  1  0  0  0  0
  7  5  1  1  0  0  0
  7  8  1  0  0  0  0
  7  9  1  0  0  0  0
  9 10  1  1  0  0  0
  9 11  1  0  0  0  0
 11 12  1  6  0  0  0
 11 13  1  0  0  0  0
 13  8  1  1  0  0  0
 13 24  1  0  0  0  0
 14 15  1  0  0  0  0
 14 20  1  0  0  0  0
 15 16  1  1  0  0  0
 15 17  1  0  0  0  0
 18 17  1  6  0  0  0
 18 19  1  0  0  0  0
 18 24  1  0  0  0  0
 19 20  1  1  0  0  0
 19 22  1  0  0  0  0
 20 21  2  0  0  0  0
 22 23  1  0  0  0  0
 24 23  1  6  0  0  0
M  CHG  1   3  -1
M  END
>  <CHROM.1>
63.72819310,50.63707217,-169.52535776,162.20236166,-12.48377553,0.68446100
-1.39912577,-2.35328195,-0.57721363,-2.76759508

>  <Name>
ligand

>  <RI>
0

>  <Rbt.Current_Directory>
/home/itssahil/PROJECTS/Mol_Feturizer/New_Systems/rnas/3SLQ

>  <Rbt.Executable>
rbdock ($Id: //depot/dev/client3/rdock/2013.1/src/exe/rbdock.cxx#4 $)

>  <Rbt.Library>
libRbt.so (2013.1, Build901 2013/11/27)

>  <Rbt.Parameter_File>
/export/apps/rDock/src/rDock_2013.1_src/data/scripts/dock_solv.prm

>  <Rbt.Receptor>
prm/blind_docking_20.prm

>  <SCORE>
-17.0048

>  <SCORE.INTER>
-11.3977

>  <SCORE.INTER.CONST>
1

>  <SCORE.INTER.POLAR>
0

>  <SCORE.INTER.ROT>
4

>  <SCORE.INTER.SOLV>
14.6761

>  <SCORE.INTER.VDW>
-18.7572

>  <SCORE.INTER.norm>
-0.474905

>  <SCORE.INTRA>
-5.60712

>  <SCORE.INTRA.DIHEDRAL>
-11.2039

>  <SCORE.INTRA.DIHEDRAL.0>
13.2525

>  <SCORE.INTRA.POLAR>
0

>  <SCORE.INTRA.POLAR.0>
0

>  <SCORE.INTRA.REPUL>
0

>  <SCORE.INTRA.REPUL.0>
0

>  <SCORE.INTRA.SOLV>
0.0397927

>  <SCORE.INTRA.SOLV.lig_0>
-70.7221

>  <SCORE.INTRA.VDW>
-0.0250532

>  <SCORE.INTRA.VDW.0>
-1.46337

>  <SCORE.INTRA.norm>
-0.23363

>  <SCORE.RESTR>
0

>  <SCORE.RESTR.CAVITY>
0

>  <SCORE.RESTR.norm>
0

>  <SCORE.SYSTEM>
0

>  <SCORE.SYSTEM.CONST>
0

>  <SCORE.SYSTEM.DIHEDRAL>
0

>  <SCORE.SYSTEM.SOLV>
0

>  <SCORE.SYSTEM.norm>
0

>  <SCORE.heavy>
24

>  <SCORE.norm>
-0.708535

>  <RMSD>
15.690

$$$$
ligand
 OpenBabel11021811483D
libRbt.so/2013.1/901 2013/11/27
 24 26  0  0  0  0  0  0  0  0999 V2000
    3.3070   -4.4212   -1.1991 P   0  0  1  0  0  0  0  0  0  0  0  0
    1.9369   -4.7389   -1.7587 O   0  0  0  0  0  0  0  0  0  0  0  0
    3.7630   -5.2579   -0.0270 O   0  5  0  0  0  0  0  0  0  0  0  0
    4.3858   -4.2571   -2.2593 O   0  0  0  0  0  0  0  0  0  0  0  0
    3.6527   -1.7469   -0.9933 C   0  0  0  0  0  0  0  0  0  0  0  0
    3.1078   -2.9767   -0.4843 O   0  0  0  0  0  0  0  0  0  0  0  0
    3.2090   -0.5762   -0.1111 C   0  0  1  0  0  0  0  0  0  0  0  0
    3.4868   -0.8158    1.2744 O   0  0  0  0  0  0  0  0  0  0  0  0
    3.8669    0.7536   -0.4374 C   0  0  1  0  0  0  0  0  0  0  0  0
    3.0614    1.4459   -1.3959 O   0  0  0  0  0  0  0  0  0  0  0  0
    3.8833    1.4740    0.9009 C   0  0  1  0  0  0  0  0  0  0  0  0
    2.6151    2.0959    1.1524 O   0  0  0  0  0  0  0  0  0  0  0  0
    4.0068    0.3552    1.9161 C   0  0  2  0  0  0  0  0  0  0  0  0
    7.2489   -0.1942    5.8205 N   0  0  0  0  0  0  0  0  0  0  0  0
    5.9422    0.1550    5.8312 C   0  0  1  0  0  0  0  0  0  0  0  0
    5.3357    0.4044    7.0138 N   0  0  0  0  0  0  0  0  0  0  0  0
    5.2393    0.2573    4.6790 N   0  0  0  0  0  0  0  0  0  0  0  0
    5.8526    0.0068    3.4975 C   0  0  1  0  0  0  0  0  0  0  0  0
    7.1862   -0.3500    3.4568 C   0  0  2  0  0  0  0  0  0  0  0  0
    7.8853   -0.4490    4.6541 C   0  0  0  0  0  0  0  0  0  0  0  0
    9.0907   -0.7680    4.6624 O   0  0  0  0  0  0  0  0  0  0  0  0
    7.5130   -0.5268    2.1604 N   0  0  0  0  0  0  0  0  0  0  0  0
    6.4047   -0.2919    1.4198 C   0  0  0  0  0  0  0  0  0  0  0  0
    5.4062    0.0292    2.2486 N   0  0  1  0  0  0  0  0  0  0  0  0
  1  2  1  6  0  0  0
  1  3  1  0  0  0  0
  1  4  2  0  0  0  0
  1  6  1  0  0  0  0
  5  6  1  0  0  0  0
  7  5  1  6  0  0  0
  7  8  1  0  0  0  0
  7  9  1  0  0  0  0
  9 10  1  6  0  0  0
  9 11  1  0  0  0  0
 11 12  1  1  0  0  0
 11 13  1  0  0  0  0
 13  8  1  6  0  0  0
 13 24  1  0  0  0  0
 14 15  1  0  0  0  0
 14 20  1  0  0  0  0
 15 16  1  6  0  0  0
 15 17  1  0  0  0  0
 18 17  1  1  0  0  0
 18 19  1  0  0  0  0
 18 24  1  0  0  0  0
 19 20  1  6  0  0  0
 19 22  1  0  0  0  0
 20 21  2  0  0  0  0
 22 23  1  0  0  0  0
 24 23  1  1  0  0  0
M  CHG  1   3  -1
M  END
>  <CHROM.1>
-108.71280792,51.90335344,177.06054546,-118.46770597,4.73554570,-1.10163359
1.49413456,-2.36222976,-0.88087437,0.38496399

>  <Name>
ligand

>  <RI>
0

>  <Rbt.Current_Directory>
/home/itssahil/PROJECTS/Mol_Feturizer/New_Systems/rnas/3SLQ

>  <Rbt.Executable>
rbdock ($Id: //depot/dev/client3/rdock/2013.1/src/exe/rbdock.cxx#4 $)

>  <Rbt.Library>
libRbt.so (2013.1, Build901 2013/11/27)

>  <Rbt.Parameter_File>
/export/apps/rDock/src/rDock_2013.1_src/data/scripts/dock_solv.prm

>  <Rbt.Receptor>
prm/blind_docking_100.prm

>  <SCORE>
-18.4386

>  <SCORE.INTER>
-13.5355

>  <SCORE.INTER.CONST>
1

>  <SCORE.INTER.POLAR>
0

>  <SCORE.INTER.ROT>
4

>  <SCORE.INTER.SOLV>
18.5507

>  <SCORE.INTER.VDW>
-21.4739

>  <SCORE.INTER.norm>
-0.563979

>  <SCORE.INTRA>
-4.90313

>  <SCORE.INTRA.DIHEDRAL>
-9.58268

>  <SCORE.INTRA.DIHEDRAL.0>
13.2525

>  <SCORE.INTRA.POLAR>
0

>  <SCORE.INTRA.POLAR.0>
0

>  <SCORE.INTRA.REPUL>
0

>  <SCORE.INTRA.REPUL.0>
0

>  <SCORE.INTRA.SOLV>
0.204656

>  <SCORE.INTRA.SOLV.lig_0>
-70.7221

>  <SCORE.INTRA.VDW>
-0.214118

>  <SCORE.INTRA.VDW.0>
-1.46337

>  <SCORE.INTRA.norm>
-0.204297

>  <SCORE.RESTR>
0

>  <SCORE.RESTR.CAVITY>
0

>  <SCORE.RESTR.norm>
0

>  <SCORE.SYSTEM>
0

>  <SCORE.SYSTEM.CONST>
0

>  <SCORE.SYSTEM.DIHEDRAL>
0

>  <SCORE.SYSTEM.SOLV>
0

>  <SCORE.SYSTEM.norm>
0

>  <SCORE.heavy>
24

>  <SCORE.norm>
-0.768276

>  <RMSD>
15.902

$$$$
ligand
 OpenBabel11021811483D
libRbt.so/2013.1/901 2013/11/27
 24 26  0  0  0  0  0  0  0  0999 V2000
   -8.7143   -2.0323   -4.5674 P   0  0  1  0  0  0  0  0  0  0  0  0
   -8.2156   -2.5806   -3.2475 O   0  0  0  0  0  0  0  0  0  0  0  0
   -8.0196   -0.7947   -5.0846 O   0  5  0  0  0  0  0  0  0  0  0  0
   -8.9087   -3.0903   -5.6433 O   0  0  0  0  0  0  0  0  0  0  0  0
  -11.2055   -2.1736   -3.5246 C   0  0  0  0  0  0  0  0  0  0  0  0
  -10.1801   -1.4325   -4.2085 O   0  0  0  0  0  0  0  0  0  0  0  0
  -12.4953   -1.3494   -3.4703 C   0  0  1  0  0  0  0  0  0  0  0  0
  -13.5847   -2.0977   -2.9159 O   0  0  0  0  0  0  0  0  0  0  0  0
  -12.4063   -0.0793   -2.6416 C   0  0  1  0  0  0  0  0  0  0  0  0
  -12.0025    0.9997   -3.4898 O   0  0  0  0  0  0  0  0  0  0  0  0
  -13.8276    0.1102   -2.1374 C   0  0  1  0  0  0  0  0  0  0  0  0
  -14.6346    0.7486   -3.1371 O   0  0  0  0  0  0  0  0  0  0  0  0
  -14.3617   -1.3028   -2.0115 C   0  0  2  0  0  0  0  0  0  0  0  0
  -16.6255   -2.2944    2.4549 N   0  0  0  0  0  0  0  0  0  0  0  0
  -17.1243   -1.6846    1.3554 C   0  0  1  0  0  0  0  0  0  0  0  0
  -18.4057   -1.2528    1.3646 N   0  0  0  0  0  0  0  0  0  0  0  0
  -16.3601   -1.5025    0.2531 N   0  0  0  0  0  0  0  0  0  0  0  0
  -15.0770   -1.9367    0.2503 C   0  0  1  0  0  0  0  0  0  0  0  0
  -14.5413   -2.5611    1.3596 C   0  0  2  0  0  0  0  0  0  0  0  0
  -15.3472   -2.7367    2.4784 C   0  0  0  0  0  0  0  0  0  0  0  0
  -14.9031   -3.2952    3.5009 O   0  0  0  0  0  0  0  0  0  0  0  0
  -13.2621   -2.8707    1.0649 N   0  0  0  0  0  0  0  0  0  0  0  0
  -13.0175   -2.4537   -0.1993 C   0  0  0  0  0  0  0  0  0  0  0  0
  -14.1311   -1.8905   -0.6786 N   0  0  1  0  0  0  0  0  0  0  0  0
  1  2  1  1  0  0  0
  1  3  1  0  0  0  0
  1  4  2  0  0  0  0
  1  6  1  0  0  0  0
  5  6  1  0  0  0  0
  7  5  1  1  0  0  0
  7  8  1  0  0  0  0
  7  9  1  0  0  0  0
  9 10  1  6  0  0  0
  9 11  1  0  0  0  0
 11 12  1  6  0  0  0
 11 13  1  0  0  0  0
 13  8  1  6  0  0  0
 13 24  1  0  0  0  0
 14 15  1  0  0  0  0
 14 20  1  0  0  0  0
 15 16  1  1  0  0  0
 15 17  1  0  0  0  0
 18 17  1  6  0  0  0
 18 19  1  0  0  0  0
 18 24  1  0  0  0  0
 19 20  1  1  0  0  0
 19 22  1  0  0  0  0
 20 21  2  0  0  0  0
 22 23  1  0  0  0  0
 24 23  1  6  0  0  0
M  CHG  1   3  -1
M  END
>  <CHROM.1>
-51.68700948,174.21146563,-174.71725226,-145.03968781,-12.87033594,-1.65067872
-1.65180454,-0.60271680,-0.44351684,2.19150134

>  <Name>
ligand

>  <RI>
0

>  <Rbt.Current_Directory>
/home/itssahil/PROJECTS/Mol_Feturizer/New_Systems/rnas/3SLQ

>  <Rbt.Executable>
rbdock ($Id: //depot/dev/client3/rdock/2013.1/src/exe/rbdock.cxx#4 $)

>  <Rbt.Library>
libRbt.so (2013.1, Build901 2013/11/27)

>  <Rbt.Parameter_File>
/export/apps/rDock/src/rDock_2013.1_src/data/scripts/dock_solv.prm

>  <Rbt.Receptor>
prm/blind_docking_80.prm

>  <SCORE>
-18.5789

>  <SCORE.INTER>
-12.3123

>  <SCORE.INTER.CONST>
1

>  <SCORE.INTER.POLAR>
0

>  <SCORE.INTER.ROT>
4

>  <SCORE.INTER.SOLV>
20.8322

>  <SCORE.INTER.VDW>
-21.4189

>  <SCORE.INTER.norm>
-0.513013

>  <SCORE.INTRA>
-6.26663

>  <SCORE.INTRA.DIHEDRAL>
-11.6596

>  <SCORE.INTRA.DIHEDRAL.0>
13.2525

>  <SCORE.INTRA.POLAR>
0

>  <SCORE.INTRA.POLAR.0>
0

>  <SCORE.INTRA.REPUL>
0

>  <SCORE.INTRA.REPUL.0>
0

>  <SCORE.INTRA.SOLV>
-0.0632014

>  <SCORE.INTRA.SOLV.lig_0>
-70.7221

>  <SCORE.INTRA.VDW>
-0.405206

>  <SCORE.INTRA.VDW.0>
-1.46337

>  <SCORE.INTRA.norm>
-0.26111

>  <SCORE.RESTR>
0

>  <SCORE.RESTR.CAVITY>
0

>  <SCORE.RESTR.norm>
0

>  <SCORE.SYSTEM>
0

>  <SCORE.SYSTEM.CONST>
0

>  <SCORE.SYSTEM.DIHEDRAL>
0

>  <SCORE.SYSTEM.SOLV>
0

>  <SCORE.SYSTEM.norm>
0

>  <SCORE.heavy>
24

>  <SCORE.norm>
-0.774122

>  <RMSD>
15.976

$$$$
ligand
 OpenBabel11021811483D
libRbt.so/2013.1/901 2013/11/27
 24 26  0  0  0  0  0  0  0  0999 V2000
    3.8337   -2.0739   -2.2004 P   0  0  1  0  0  0  0  0  0  0  0  0
    3.2679   -1.6234   -3.5303 O   0  0  0  0  0  0  0  0  0  0  0  0
    3.2535   -3.3422   -1.6202 O   0  5  0  0  0  0  0  0  0  0  0  0
    5.3529   -2.0362   -2.1295 O   0  0  0  0  0  0  0  0  0  0  0  0
    3.6918    0.4038   -1.1259 C   0  0  0  0  0  0  0  0  0  0  0  0
    3.2728   -0.9718   -1.1478 O   0  0  0  0  0  0  0  0  0  0  0  0
    2.9929    1.1429    0.0190 C   0  0  1  0  0  0  0  0  0  0  0  0
    3.0611    0.4099    1.2487 O   0  0  0  0  0  0  0  0  0  0  0  0
    3.5581    2.5184    0.3294 C   0  0  1  0  0  0  0  0  0  0  0  0
    2.8561    3.4935   -0.4471 O   0  0  0  0  0  0  0  0  0  0  0  0
    3.2807    2.6840    1.8147 C   0  0  1  0  0  0  0  0  0  0  0  0
    1.9323    3.1249    2.0280 O   0  0  0  0  0  0  0  0  0  0  0  0
    3.3473    1.2705    2.3582 C   0  0  2  0  0  0  0  0  0  0  0  0
    6.0657    0.0376    6.4991 N   0  0  0  0  0  0  0  0  0  0  0  0
    4.7615    0.3817    6.3985 C   0  0  1  0  0  0  0  0  0  0  0  0
    4.0013    0.4203    7.5161 N   0  0  0  0  0  0  0  0  0  0  0  0
    4.2122    0.6862    5.1995 N   0  0  0  0  0  0  0  0  0  0  0  0
    4.9790    0.6463    4.0836 C   0  0  1  0  0  0  0  0  0  0  0  0
    6.3139    0.2999    4.1572 C   0  0  2  0  0  0  0  0  0  0  0  0
    6.8536   -0.0093    5.4003 C   0  0  0  0  0  0  0  0  0  0  0  0
    8.0542   -0.3269    5.5114 O   0  0  0  0  0  0  0  0  0  0  0  0
    6.8101    0.3532    2.9043 N   0  0  0  0  0  0  0  0  0  0  0  0
    5.8027    0.7166    2.0767 C   0  0  0  0  0  0  0  0  0  0  0  0
    4.6983    0.8887    2.8100 N   0  0  1  0  0  0  0  0  0  0  0  0
  1  2  1  6  0  0  0
  1  3  1  0  0  0  0
  1  4  2  0  0  0  0
  1  6  1  0  0  0  0
  5  6  1  0  0  0  0
  7  5  1  6  0  0  0
  7  8  1  0  0  0  0
  7  9  1  0  0  0  0
  9 10  1  6  0  0  0
  9 11  1  0  0  0  0
 11 12  1  6  0  0  0
 11 13  1  0  0  0  0
 13  8  1  6  0  0  0
 13 24  1  0  0  0  0
 14 15  1  0  0  0  0
 14 20  1  0  0  0  0
 15 16  1  1  0  0  0
 15 17  1  0  0  0  0
 18 17  1  6  0  0  0
 18 19  1  0  0  0  0
 18 24  1  0  0  0  0
 19 20  1  1  0  0  0
 19 22  1  0  0  0  0
 20 21  2  0  0  0  0
 22 23  1  0  0  0  0
 24 23  1  6  0  0  0
M  CHG  1   3  -1
M  END
>  <CHROM.1>
-68.48344307,47.54414026,-178.32413405,-130.97884793,4.34997624,0.21986149
1.65652553,-1.99594318,-0.90546074,1.01324342

>  <Name>
ligand

>  <RI>
0

>  <Rbt.Current_Directory>
/home/itssahil/PROJECTS/Mol_Feturizer/New_Systems/rnas/3SLQ

>  <Rbt.Executable>
rbdock ($Id: //depot/dev/client3/rdock/2013.1/src/exe/rbdock.cxx#4 $)

>  <Rbt.Library>
libRbt.so (2013.1, Build901 2013/11/27)

>  <Rbt.Parameter_File>
/export/apps/rDock/src/rDock_2013.1_src/data/scripts/dock_solv.prm

>  <Rbt.Receptor>
prm/blind_docking_20.prm

>  <SCORE>
-17.4071

>  <SCORE.INTER>
-11.2623

>  <SCORE.INTER.CONST>
1

>  <SCORE.INTER.POLAR>
0

>  <SCORE.INTER.ROT>
4

>  <SCORE.INTER.SOLV>
22.1951

>  <SCORE.INTER.VDW>
-21.1732

>  <SCORE.INTER.norm>
-0.469262

>  <SCORE.INTRA>
-6.14484

>  <SCORE.INTRA.DIHEDRAL>
-11.3679

>  <SCORE.INTRA.DIHEDRAL.0>
13.2525

>  <SCORE.INTRA.POLAR>
0

>  <SCORE.INTRA.POLAR.0>
0

>  <SCORE.INTRA.REPUL>
0

>  <SCORE.INTRA.REPUL.0>
0

>  <SCORE.INTRA.SOLV>
-0.0145497

>  <SCORE.INTRA.SOLV.lig_0>
-70.7221

>  <SCORE.INTRA.VDW>
-0.453613

>  <SCORE.INTRA.VDW.0>
-1.46337

>  <SCORE.INTRA.norm>
-0.256035

>  <SCORE.RESTR>
0

>  <SCORE.RESTR.CAVITY>
0

>  <SCORE.RESTR.norm>
0

>  <SCORE.SYSTEM>
0

>  <SCORE.SYSTEM.CONST>
0

>  <SCORE.SYSTEM.DIHEDRAL>
0

>  <SCORE.SYSTEM.SOLV>
0

>  <SCORE.SYSTEM.norm>
0

>  <SCORE.heavy>
24

>  <SCORE.norm>
-0.725297

>  <RMSD>
16.019

$$$$
ligand
 OpenBabel11021811483D
libRbt.so/2013.1/901 2013/11/27
 24 26  0  0  0  0  0  0  0  0999 V2000
  -14.1977   -1.9066   -1.0563 P   0  0  1  0  0  0  0  0  0  0  0  0
  -15.4085   -2.3623   -1.8423 O   0  0  0  0  0  0  0  0  0  0  0  0
  -14.1778   -0.4555   -0.6370 O   0  5  0  0  0  0  0  0  0  0  0  0
  -13.8001   -2.8494    0.0697 O   0  0  0  0  0  0  0  0  0  0  0  0
  -12.8984   -1.0048   -3.2499 C   0  0  0  0  0  0  0  0  0  0  0  0
  -12.9969   -1.9254   -2.1494 O   0  0  0  0  0  0  0  0  0  0  0  0
  -11.5586   -1.1928   -3.9678 C   0  0  1  0  0  0  0  0  0  0  0  0
  -11.2254   -0.0616   -4.7823 O   0  0  0  0  0  0  0  0  0  0  0  0
  -10.3667   -1.4024   -3.0495 C   0  0  1  0  0  0  0  0  0  0  0  0
  -10.1999   -2.8046   -2.8199 O   0  0  0  0  0  0  0  0  0  0  0  0
   -9.2065   -0.8259   -3.8443 C   0  0  1  0  0  0  0  0  0  0  0  0
   -8.7201   -1.7868   -4.7922 O   0  0  0  0  0  0  0  0  0  0  0  0
   -9.8394    0.2821   -4.6625 C   0  0  2  0  0  0  0  0  0  0  0  0
   -6.9497    4.4084   -3.8374 N   0  0  0  0  0  0  0  0  0  0  0  0
   -6.6662    3.2871   -4.5387 C   0  0  1  0  0  0  0  0  0  0  0  0
   -5.4619    3.1738   -5.1431 N   0  0  0  0  0  0  0  0  0  0  0  0
   -7.5684    2.2833   -4.6413 N   0  0  0  0  0  0  0  0  0  0  0  0
   -8.7729    2.4024   -4.0331 C   0  0  1  0  0  0  0  0  0  0  0  0
   -9.0884    3.5355   -3.3092 C   0  0  2  0  0  0  0  0  0  0  0  0
   -8.1449    4.5522   -3.2199 C   0  0  0  0  0  0  0  0  0  0  0  0
   -8.3889    5.5919   -2.5763 O   0  0  0  0  0  0  0  0  0  0  0  0
  -10.3348    3.3647   -2.8231 N   0  0  0  0  0  0  0  0  0  0  0  0
  -10.7800    2.1578   -3.2439 C   0  0  0  0  0  0  0  0  0  0  0  0
   -9.8190    1.5886   -3.9784 N   0  0  1  0  0  0  0  0  0  0  0  0
  1  2  1  6  0  0  0
  1  3  1  0  0  0  0
  1  4  2  0  0  0  0
  1  6  1  0  0  0  0
  5  6  1  0  0  0  0
  7  5  1  1  0  0  0
  7  8  1  0  0  0  0
  7  9  1  0  0  0  0
  9 10  1  6  0  0  0
  9 11  1  0  0  0  0
 11 12  1  6  0  0  0
 11 13  1  0  0  0  0
 13  8  1  1  0  0  0
 13 24  1  0  0  0  0
 14 15  1  0  0  0  0
 14 20  1  0  0  0  0
 15 16  1  1  0  0  0
 15 17  1  0  0  0  0
 18 17  1  6  0  0  0
 18 19  1  0  0  0  0
 18 24  1  0  0  0  0
 19 20  1  1  0  0  0
 19 22  1  0  0  0  0
 20 21  2  0  0  0  0
 22 23  1  0  0  0  0
 24 23  1  6  0  0  0
M  CHG  1   3  -1
M  END
>  <CHROM.1>
69.43237584,-161.86330034,172.73584660,-159.86737136,-10.57764358,0.50253488
-3.09515067,2.56534174,-0.56894838,-2.86448048

>  <Name>
ligand

>  <RI>
0

>  <Rbt.Current_Directory>
/home/itssahil/PROJECTS/Mol_Feturizer/New_Systems/rnas/3SLQ

>  <Rbt.Executable>
rbdock ($Id: //depot/dev/client3/rdock/2013.1/src/exe/rbdock.cxx#4 $)

>  <Rbt.Library>
libRbt.so (2013.1, Build901 2013/11/27)

>  <Rbt.Parameter_File>
/export/apps/rDock/src/rDock_2013.1_src/data/scripts/dock_solv.prm

>  <Rbt.Receptor>
prm/blind_docking_100.prm

>  <SCORE>
-25.8561

>  <SCORE.INTER>
-20.6805

>  <SCORE.INTER.CONST>
1

>  <SCORE.INTER.POLAR>
0

>  <SCORE.INTER.ROT>
4

>  <SCORE.INTER.SOLV>
19.1199

>  <SCORE.INTER.VDW>
-26.4269

>  <SCORE.INTER.norm>
-0.861686

>  <SCORE.INTRA>
-5.17562

>  <SCORE.INTRA.DIHEDRAL>
-10.5297

>  <SCORE.INTRA.DIHEDRAL.0>
13.2525

>  <SCORE.INTRA.POLAR>
0

>  <SCORE.INTRA.POLAR.0>
0

>  <SCORE.INTRA.REPUL>
0

>  <SCORE.INTRA.REPUL.0>
0

>  <SCORE.INTRA.SOLV>
0.365768

>  <SCORE.INTRA.SOLV.lig_0>
-70.7221

>  <SCORE.INTRA.VDW>
-0.0936327

>  <SCORE.INTRA.VDW.0>
-1.46337

>  <SCORE.INTRA.norm>
-0.215651

>  <SCORE.RESTR>
0

>  <SCORE.RESTR.CAVITY>
0

>  <SCORE.RESTR.norm>
0

>  <SCORE.SYSTEM>
0

>  <SCORE.SYSTEM.CONST>
0

>  <SCORE.SYSTEM.DIHEDRAL>
0

>  <SCORE.SYSTEM.SOLV>
0

>  <SCORE.SYSTEM.norm>
0

>  <SCORE.heavy>
24

>  <SCORE.norm>
-1.07734

>  <RMSD>
16.131

$$$$
ligand
 OpenBabel11021811483D
libRbt.so/2013.1/901 2013/11/27
 24 26  0  0  0  0  0  0  0  0999 V2000
  -14.0305   -1.8652   -0.9271 P   0  0  1  0  0  0  0  0  0  0  0  0
  -14.0420   -0.4448   -0.4040 O   0  0  0  0  0  0  0  0  0  0  0  0
  -13.4966   -2.9211    0.0119 O   0  5  0  0  0  0  0  0  0  0  0  0
  -15.3246   -2.2844   -1.6085 O   0  0  0  0  0  0  0  0  0  0  0  0
  -12.7895   -0.8759   -3.1169 C   0  0  0  0  0  0  0  0  0  0  0  0
  -12.8691   -1.8503   -2.0622 O   0  0  0  0  0  0  0  0  0  0  0  0
  -11.5095   -1.0917   -3.9297 C   0  0  1  0  0  0  0  0  0  0  0  0
  -11.2230    0.0246   -4.7818 O   0  0  0  0  0  0  0  0  0  0  0  0
  -10.2554   -1.3066   -3.0997 C   0  0  1  0  0  0  0  0  0  0  0  0
  -10.0904   -2.7081   -2.8644 O   0  0  0  0  0  0  0  0  0  0  0  0
   -9.1501   -0.7565   -3.9862 C   0  0  1  0  0  0  0  0  0  0  0  0
   -8.7483   -1.7358   -4.9546 O   0  0  0  0  0  0  0  0  0  0  0  0
   -9.8276    0.3502   -4.7699 C   0  0  2  0  0  0  0  0  0  0  0  0
   -6.7217    4.3267   -3.9969 N   0  0  0  0  0  0  0  0  0  0  0  0
   -6.4966    3.1804   -4.6786 C   0  0  1  0  0  0  0  0  0  0  0  0
   -5.2978    2.9922   -5.2751 N   0  0  0  0  0  0  0  0  0  0  0  0
   -7.4515    2.2254   -4.7696 N   0  0  0  0  0  0  0  0  0  0  0  0
   -8.6502    2.4196   -4.1693 C   0  0  1  0  0  0  0  0  0  0  0  0
   -8.9068    3.5797   -3.4654 C   0  0  2  0  0  0  0  0  0  0  0  0
   -7.9098    4.5452   -3.3877 C   0  0  0  0  0  0  0  0  0  0  0  0
   -8.0998    5.6069   -2.7621 O   0  0  0  0  0  0  0  0  0  0  0  0
  -10.1626    3.4847   -2.9828 N   0  0  0  0  0  0  0  0  0  0  0  0
  -10.6708    2.2970   -3.3864 C   0  0  0  0  0  0  0  0  0  0  0  0
   -9.7391    1.6646   -4.1068 N   0  0  1  0  0  0  0  0  0  0  0  0
  1  2  1  1  0  0  0
  1  3  1  0  0  0  0
  1  4  2  0  0  0  0
  1  6  1  0  0  0  0
  5  6  1  0  0  0  0
  7  5  1  1  0  0  0
  7  8  1  0  0  0  0
  7  9  1  0  0  0  0
  9 10  1  6  0  0  0
  9 11  1  0  0  0  0
 11 12  1  6  0  0  0
 11 13  1  0  0  0  0
 13  8  1  1  0  0  0
 13 24  1  0  0  0  0
 14 15  1  0  0  0  0
 14 20  1  0  0  0  0
 15 16  1  1  0  0  0
 15 17  1  0  0  0  0
 18 17  1  6  0  0  0
 18 19  1  0  0  0  0
 18 24  1  0  0  0  0
 19 20  1  1  0  0  0
 19 22  1  0  0  0  0
 20 21  2  0  0  0  0
 22 23  1  0  0  0  0
 24 23  1  6  0  0  0
M  CHG  1   3  -1
M  END
>  <CHROM.1>
-50.26445140,-166.36408280,175.23153210,-164.95891031,-10.44658475,0.53685152
-3.13655463,2.59157829,-0.59410156,-2.86248278

>  <Name>
ligand

>  <RI>
0

>  <Rbt.Current_Directory>
/home/itssahil/PROJECTS/Mol_Feturizer/New_Systems/rnas/3SLQ

>  <Rbt.Executable>
rbdock ($Id: //depot/dev/client3/rdock/2013.1/src/exe/rbdock.cxx#4 $)

>  <Rbt.Library>
libRbt.so (2013.1, Build901 2013/11/27)

>  <Rbt.Parameter_File>
/export/apps/rDock/src/rDock_2013.1_src/data/scripts/dock_solv.prm

>  <Rbt.Receptor>
prm/blind_docking_20.prm

>  <SCORE>
-23.7234

>  <SCORE.INTER>
-17.9417

>  <SCORE.INTER.CONST>
1

>  <SCORE.INTER.POLAR>
0

>  <SCORE.INTER.ROT>
4

>  <SCORE.INTER.SOLV>
22.7603

>  <SCORE.INTER.VDW>
-25.8146

>  <SCORE.INTER.norm>
-0.747572

>  <SCORE.INTRA>
-5.78172

>  <SCORE.INTRA.DIHEDRAL>
-11.1278

>  <SCORE.INTRA.DIHEDRAL.0>
13.2525

>  <SCORE.INTRA.POLAR>
0

>  <SCORE.INTRA.POLAR.0>
0

>  <SCORE.INTRA.REPUL>
0

>  <SCORE.INTRA.REPUL.0>
0

>  <SCORE.INTRA.SOLV>
0.0324319

>  <SCORE.INTRA.SOLV.lig_0>
-70.7221

>  <SCORE.INTRA.VDW>
-0.234035

>  <SCORE.INTRA.VDW.0>
-1.46337

>  <SCORE.INTRA.norm>
-0.240905

>  <SCORE.RESTR>
0

>  <SCORE.RESTR.CAVITY>
0

>  <SCORE.RESTR.norm>
0

>  <SCORE.SYSTEM>
0

>  <SCORE.SYSTEM.CONST>
0

>  <SCORE.SYSTEM.DIHEDRAL>
0

>  <SCORE.SYSTEM.SOLV>
0

>  <SCORE.SYSTEM.norm>
0

>  <SCORE.heavy>
24

>  <SCORE.norm>
-0.988477

>  <RMSD>
16.138

$$$$
ligand
 OpenBabel11021811483D
libRbt.so/2013.1/901 2013/11/27
 24 26  0  0  0  0  0  0  0  0999 V2000
    3.9151   -2.2330   -2.2131 P   0  0  1  0  0  0  0  0  0  0  0  0
    3.2835   -1.7496   -3.5011 O   0  0  0  0  0  0  0  0  0  0  0  0
    3.4282   -3.5619   -1.6852 O   0  5  0  0  0  0  0  0  0  0  0  0
    5.4310   -2.1078   -2.1821 O   0  0  0  0  0  0  0  0  0  0  0  0
    3.5074    0.2041   -1.1139 C   0  0  0  0  0  0  0  0  0  0  0  0
    3.3233   -1.2220   -1.0884 O   0  0  0  0  0  0  0  0  0  0  0  0
    2.9222    0.8275    0.1567 C   0  0  1  0  0  0  0  0  0  0  0  0
    3.1773    0.0214    1.3139 O   0  0  0  0  0  0  0  0  0  0  0  0
    3.4561    2.2093    0.4935 C   0  0  1  0  0  0  0  0  0  0  0  0
    2.6178    3.1922   -0.1212 O   0  0  0  0  0  0  0  0  0  0  0  0
    3.3581    2.2626    2.0094 C   0  0  1  0  0  0  0  0  0  0  0  0
    2.0274    2.6133    2.4149 O   0  0  0  0  0  0  0  0  0  0  0  0
    3.5583    0.8228    2.4390 C   0  0  2  0  0  0  0  0  0  0  0  0
    6.9567    0.0688    6.1725 N   0  0  0  0  0  0  0  0  0  0  0  0
    5.6498    0.4071    6.2557 C   0  0  1  0  0  0  0  0  0  0  0  0
    5.0899    0.5822    7.4740 N   0  0  0  0  0  0  0  0  0  0  0  0
    4.9008    0.5718    5.1403 N   0  0  0  0  0  0  0  0  0  0  0  0
    5.4676    0.3957    3.9227 C   0  0  1  0  0  0  0  0  0  0  0  0
    6.8002    0.0517    3.8082 C   0  0  2  0  0  0  0  0  0  0  0  0
    7.5472   -0.1123    4.9688 C   0  0  0  0  0  0  0  0  0  0  0  0
    8.7535   -0.4224    4.9105 O   0  0  0  0  0  0  0  0  0  0  0  0
    7.0758   -0.0462    2.4916 N   0  0  0  0  0  0  0  0  0  0  0  0
    5.9377    0.2236    1.8107 C   0  0  0  0  0  0  0  0  0  0  0  0
    4.9715    0.4882    2.6959 N   0  0  1  0  0  0  0  0  0  0  0  0
  1  2  1  6  0  0  0
  1  3  1  0  0  0  0
  1  4  2  0  0  0  0
  1  6  1  0  0  0  0
  5  6  1  0  0  0  0
  7  5  1  6  0  0  0
  7  8  1  0  0  0  0
  7  9  1  0  0  0  0
  9 10  1  6  0  0  0
  9 11  1  0  0  0  0
 11 12  1  6  0  0  0
 11 13  1  0  0  0  0
 13  8  1  6  0  0  0
 13 24  1  0  0  0  0
 14 15  1  0  0  0  0
 14 20  1  0  0  0  0
 15 16  1  6  0  0  0
 15 17  1  0  0  0  0
 18 17  1  1  0  0  0
 18 19  1  0  0  0  0
 18 24  1  0  0  0  0
 19 20  1  6  0  0  0
 19 22  1  0  0  0  0
 20 21  2  0  0  0  0
 22 23  1  0  0  0  0
 24 23  1  1  0  0  0
M  CHG  1   3  -1
M  END
>  <CHROM.1>
-59.29173446,39.21238151,-175.15911225,-142.34536522,4.61621645,-0.00976029
1.60041750,-2.04405338,-0.73573569,0.99882635

>  <Name>
ligand

>  <RI>
0

>  <Rbt.Current_Directory>
/home/itssahil/PROJECTS/Mol_Feturizer/New_Systems/rnas/3SLQ

>  <Rbt.Executable>
rbdock ($Id: //depot/dev/client3/rdock/2013.1/src/exe/rbdock.cxx#4 $)

>  <Rbt.Library>
libRbt.so (2013.1, Build901 2013/11/27)

>  <Rbt.Parameter_File>
/export/apps/rDock/src/rDock_2013.1_src/data/scripts/dock_solv.prm

>  <Rbt.Receptor>
prm/blind_docking_40.prm

>  <SCORE>
-18.847

>  <SCORE.INTER>
-13.1716

>  <SCORE.INTER.CONST>
1

>  <SCORE.INTER.POLAR>
0

>  <SCORE.INTER.ROT>
4

>  <SCORE.INTER.SOLV>
21.4733

>  <SCORE.INTER.VDW>
-22.2055

>  <SCORE.INTER.norm>
-0.548816

>  <SCORE.INTRA>
-5.67545

>  <SCORE.INTRA.DIHEDRAL>
-10.4986

>  <SCORE.INTRA.DIHEDRAL.0>
13.2525

>  <SCORE.INTRA.POLAR>
0

>  <SCORE.INTRA.POLAR.0>
0

>  <SCORE.INTRA.REPUL>
0

>  <SCORE.INTRA.REPUL.0>
0

>  <SCORE.INTRA.SOLV>
-0.0276398

>  <SCORE.INTRA.SOLV.lig_0>
-70.7221

>  <SCORE.INTRA.VDW>
-0.412349

>  <SCORE.INTRA.VDW.0>
-1.46337

>  <SCORE.INTRA.norm>
-0.236477

>  <SCORE.RESTR>
0

>  <SCORE.RESTR.CAVITY>
0

>  <SCORE.RESTR.norm>
0

>  <SCORE.SYSTEM>
0

>  <SCORE.SYSTEM.CONST>
0

>  <SCORE.SYSTEM.DIHEDRAL>
0

>  <SCORE.SYSTEM.SOLV>
0

>  <SCORE.SYSTEM.norm>
0

>  <SCORE.heavy>
24

>  <SCORE.norm>
-0.785293

>  <RMSD>
16.139

$$$$
ligand
 OpenBabel11021811483D
libRbt.so/2013.1/901 2013/11/27
 24 26  0  0  0  0  0  0  0  0999 V2000
  -14.2756    4.4109    0.2411 P   0  0  1  0  0  0  0  0  0  0  0  0
  -13.5462    5.2907   -0.7517 O   0  0  0  0  0  0  0  0  0  0  0  0
  -13.4681    3.9160    1.4179 O   0  5  0  0  0  0  0  0  0  0  0  0
  -15.6437    4.9383    0.6469 O   0  0  0  0  0  0  0  0  0  0  0  0
  -13.4506    2.1723   -1.0324 C   0  0  0  0  0  0  0  0  0  0  0  0
  -14.5130    3.0249   -0.5712 O   0  0  0  0  0  0  0  0  0  0  0  0
  -14.0359    0.9014   -1.6552 C   0  0  1  0  0  0  0  0  0  0  0  0
  -13.6470    0.7503   -3.0264 O   0  0  0  0  0  0  0  0  0  0  0  0
  -13.6291   -0.3912   -0.9686 C   0  0  1  0  0  0  0  0  0  0  0  0
  -14.5902   -0.6992    0.0455 O   0  0  0  0  0  0  0  0  0  0  0  0
  -13.6612   -1.4112   -2.0950 C   0  0  1  0  0  0  0  0  0  0  0  0
  -15.0002   -1.8786   -2.3117 O   0  0  0  0  0  0  0  0  0  0  0  0
  -13.2968   -0.6064   -3.3267 C   0  0  2  0  0  0  0  0  0  0  0  0
   -9.1853    2.4184   -3.2780 N   0  0  0  0  0  0  0  0  0  0  0  0
  -10.4715    2.7119   -2.9799 C   0  0  1  0  0  0  0  0  0  0  0  0
  -10.7899    3.9697   -2.5989 N   0  0  0  0  0  0  0  0  0  0  0  0
  -11.4375    1.7671   -3.0585 N   0  0  0  0  0  0  0  0  0  0  0  0
  -11.1124    0.5091   -3.4413 C   0  0  1  0  0  0  0  0  0  0  0  0
   -9.8074    0.1819   -3.7531 C   0  0  2  0  0  0  0  0  0  0  0  0
   -8.8340    1.1701   -3.6636 C   0  0  0  0  0  0  0  0  0  0  0  0
   -7.6439    0.9173   -3.9363 O   0  0  0  0  0  0  0  0  0  0  0  0
   -9.7942   -1.1214   -4.0998 N   0  0  0  0  0  0  0  0  0  0  0  0
  -11.0604   -1.5885   -3.9966 C   0  0  0  0  0  0  0  0  0  0  0  0
  -11.8466   -0.5851   -3.5942 N   0  0  1  0  0  0  0  0  0  0  0  0
  1  2  1  6  0  0  0
  1  3  1  0  0  0  0
  1  4  2  0  0  0  0
  1  6  1  0  0  0  0
  5  6  1  0  0  0  0
  7  5  1  1  0  0  0
  7  8  1  0  0  0  0
  7  9  1  0  0  0  0
  9 10  1  1  0  0  0
  9 11  1  0  0  0  0
 11 12  1  6  0  0  0
 11 13  1  0  0  0  0
 13  8  1  1  0  0  0
 13 24  1  0  0  0  0
 14 15  1  0  0  0  0
 14 20  1  0  0  0  0
 15 16  1  6  0  0  0
 15 17  1  0  0  0  0
 18 17  1  1  0  0  0
 18 19  1  0  0  0  0
 18 24  1  0  0  0  0
 19 20  1  6  0  0  0
 19 22  1  0  0  0  0
 20 21  2  0  0  0  0
 22 23  1  0  0  0  0
 24 23  1  1  0  0  0
M  CHG  1   3  -1
M  END
>  <CHROM.1>
63.86649300,120.50720941,175.39997454,5.00068199,-12.47280963,1.50295696
-1.95594490,-2.33459374,-0.48632141,-2.77882720

>  <Name>
ligand

>  <RI>
0

>  <Rbt.Current_Directory>
/home/itssahil/PROJECTS/Mol_Feturizer/New_Systems/rnas/3SLQ

>  <Rbt.Executable>
rbdock ($Id: //depot/dev/client3/rdock/2013.1/src/exe/rbdock.cxx#4 $)

>  <Rbt.Library>
libRbt.so (2013.1, Build901 2013/11/27)

>  <Rbt.Parameter_File>
/export/apps/rDock/src/rDock_2013.1_src/data/scripts/dock_solv.prm

>  <Rbt.Receptor>
prm/blind_docking_80.prm

>  <SCORE>
-16.396

>  <SCORE.INTER>
-14.9615

>  <SCORE.INTER.CONST>
1

>  <SCORE.INTER.POLAR>
0

>  <SCORE.INTER.ROT>
4

>  <SCORE.INTER.SOLV>
15.7322

>  <SCORE.INTER.VDW>
-21.4851

>  <SCORE.INTER.norm>
-0.623398

>  <SCORE.INTRA>
-1.43441

>  <SCORE.INTRA.DIHEDRAL>
-6.64856

>  <SCORE.INTRA.DIHEDRAL.0>
13.2525

>  <SCORE.INTRA.POLAR>
0

>  <SCORE.INTRA.POLAR.0>
0

>  <SCORE.INTRA.REPUL>
0

>  <SCORE.INTRA.REPUL.0>
0

>  <SCORE.INTRA.SOLV>
2.25126

>  <SCORE.INTRA.SOLV.lig_0>
-70.7221

>  <SCORE.INTRA.VDW>
0.764238

>  <SCORE.INTRA.VDW.0>
-1.46337

>  <SCORE.INTRA.norm>
-0.0597671

>  <SCORE.RESTR>
0

>  <SCORE.RESTR.CAVITY>
0

>  <SCORE.RESTR.norm>
0

>  <SCORE.SYSTEM>
0

>  <SCORE.SYSTEM.CONST>
0

>  <SCORE.SYSTEM.DIHEDRAL>
0

>  <SCORE.SYSTEM.SOLV>
0

>  <SCORE.SYSTEM.norm>
0

>  <SCORE.heavy>
24

>  <SCORE.norm>
-0.683165

>  <RMSD>
16.197

$$$$
ligand
 OpenBabel11021811483D
libRbt.so/2013.1/901 2013/11/27
 24 26  0  0  0  0  0  0  0  0999 V2000
    6.9889    0.1371    4.5156 P   0  0  1  0  0  0  0  0  0  0  0  0
    6.4062    0.0721    5.9112 O   0  0  0  0  0  0  0  0  0  0  0  0
    6.5571    1.3068    3.6628 O   0  5  0  0  0  0  0  0  0  0  0  0
    8.4890   -0.1096    4.4591 O   0  0  0  0  0  0  0  0  0  0  0  0
    6.3904   -1.3302    2.3242 C   0  0  0  0  0  0  0  0  0  0  0  0
    6.2670   -1.0917    3.7370 O   0  0  0  0  0  0  0  0  0  0  0  0
    5.6528   -0.2372    1.5451 C   0  0  1  0  0  0  0  0  0  0  0  0
    5.9274   -0.3046    0.1401 O   0  0  0  0  0  0  0  0  0  0  0  0
    4.1393   -0.2759    1.6696 C   0  0  1  0  0  0  0  0  0  0  0  0
    3.7446    0.5410    2.7758 O   0  0  0  0  0  0  0  0  0  0  0  0
    3.6642    0.3071    0.3488 C   0  0  1  0  0  0  0  0  0  0  0  0
    3.6903    1.7408    0.3939 O   0  0  0  0  0  0  0  0  0  0  0  0
    4.7417   -0.0979   -0.6375 C   0  0  2  0  0  0  0  0  0  0  0  0
    3.7116   -5.0053    0.3181 N   0  0  0  0  0  0  0  0  0  0  0  0
    3.9461   -3.9923    1.1832 C   0  0  1  0  0  0  0  0  0  0  0  0
    3.9134   -4.2388    2.5123 N   0  0  0  0  0  0  0  0  0  0  0  0
    4.2120   -2.7426    0.7363 N   0  0  0  0  0  0  0  0  0  0  0  0
    4.2440   -2.5021   -0.5964 C   0  0  1  0  0  0  0  0  0  0  0  0
    4.0099   -3.5179   -1.5022 C   0  0  2  0  0  0  0  0  0  0  0  0
    3.7384   -4.7921   -1.0176 C   0  0  0  0  0  0  0  0  0  0  0  0
    3.5215   -5.7377   -1.8008 O   0  0  0  0  0  0  0  0  0  0  0  0
    4.1133   -2.9842   -2.7365 N   0  0  0  0  0  0  0  0  0  0  0  0
    4.3969   -1.6684   -2.5945 C   0  0  0  0  0  0  0  0  0  0  0  0
    4.4710   -1.3934   -1.2884 N   0  0  1  0  0  0  0  0  0  0  0  0
  1  2  1  1  0  0  0
  1  3  1  0  0  0  0
  1  4  2  0  0  0  0
  1  6  1  0  0  0  0
  5  6  1  0  0  0  0
  7  5  1  1  0  0  0
  7  8  1  0  0  0  0
  7  9  1  0  0  0  0
  9 10  1  1  0  0  0
  9 11  1  0  0  0  0
 11 12  1  1  0  0  0
 11 13  1  0  0  0  0
 13  8  1  1  0  0  0
 13 24  1  0  0  0  0
 14 15  1  0  0  0  0
 14 20  1  0  0  0  0
 15 16  1  6  0  0  0
 15 17  1  0  0  0  0
 18 17  1  1  0  0  0
 18 19  1  0  0  0  0
 18 24  1  0  0  0  0
 19 20  1  6  0  0  0
 19 22  1  0  0  0  0
 20 21  2  0  0  0  0
 22 23  1  0  0  0  0
 24 23  1  1  0  0  0
M  CHG  1   3  -1
M  END
>  <CHROM.1>
172.35648177,170.46782716,-69.59798047,60.28985328,5.03135202,-1.41556545
1.29018551,-0.37064599,1.15084202,2.91844132

>  <Name>
ligand

>  <RI>
0

>  <Rbt.Current_Directory>
/home/itssahil/PROJECTS/Mol_Feturizer/New_Systems/rnas/3SLQ

>  <Rbt.Executable>
rbdock ($Id: //depot/dev/client3/rdock/2013.1/src/exe/rbdock.cxx#4 $)

>  <Rbt.Library>
libRbt.so (2013.1, Build901 2013/11/27)

>  <Rbt.Parameter_File>
/export/apps/rDock/src/rDock_2013.1_src/data/scripts/dock_solv.prm

>  <Rbt.Receptor>
prm/blind_docking_100.prm

>  <SCORE>
-13.4334

>  <SCORE.INTER>
-10.74

>  <SCORE.INTER.CONST>
1

>  <SCORE.INTER.POLAR>
0

>  <SCORE.INTER.ROT>
4

>  <SCORE.INTER.SOLV>
19.0041

>  <SCORE.INTER.VDW>
-19.7614

>  <SCORE.INTER.norm>
-0.447502

>  <SCORE.INTRA>
-2.841

>  <SCORE.INTRA.DIHEDRAL>
-11.1896

>  <SCORE.INTRA.DIHEDRAL.0>
13.2525

>  <SCORE.INTRA.POLAR>
0

>  <SCORE.INTRA.POLAR.0>
0

>  <SCORE.INTRA.REPUL>
0

>  <SCORE.INTRA.REPUL.0>
0

>  <SCORE.INTRA.SOLV>
6.08794

>  <SCORE.INTRA.SOLV.lig_0>
-70.7221

>  <SCORE.INTRA.VDW>
-0.290145

>  <SCORE.INTRA.VDW.0>
-1.46337

>  <SCORE.INTRA.norm>
-0.118375

>  <SCORE.RESTR>
0.147672

>  <SCORE.RESTR.CAVITY>
0.147672

>  <SCORE.RESTR.norm>
0.006153

>  <SCORE.SYSTEM>
0

>  <SCORE.SYSTEM.CONST>
0

>  <SCORE.SYSTEM.DIHEDRAL>
0

>  <SCORE.SYSTEM.SOLV>
0

>  <SCORE.SYSTEM.norm>
0

>  <SCORE.heavy>
24

>  <SCORE.norm>
-0.559724

>  <RMSD>
16.219

$$$$
ligand
 OpenBabel11021811483D
libRbt.so/2013.1/901 2013/11/27
 24 26  0  0  0  0  0  0  0  0999 V2000
    1.9490   -0.0525   -2.6646 P   0  0  1  0  0  0  0  0  0  0  0  0
    1.4808   -1.3418   -3.3050 O   0  0  0  0  0  0  0  0  0  0  0  0
    2.4959    1.0004   -3.5996 O   0  5  0  0  0  0  0  0  0  0  0  0
    0.9793    0.5174   -1.6401 O   0  0  0  0  0  0  0  0  0  0  0  0
    3.3032   -1.0268   -0.5362 C   0  0  0  0  0  0  0  0  0  0  0  0
    3.2967   -0.4832   -1.8676 O   0  0  0  0  0  0  0  0  0  0  0  0
    3.0082    0.0805    0.4799 C   0  0  1  0  0  0  0  0  0  0  0  0
    3.3424   -0.3170    1.8157 O   0  0  0  0  0  0  0  0  0  0  0  0
    3.7547    1.3817    0.2402 C   0  0  1  0  0  0  0  0  0  0  0  0
    2.9570    2.2263   -0.5946 O   0  0  0  0  0  0  0  0  0  0  0  0
    3.9057    1.9612    1.6372 C   0  0  1  0  0  0  0  0  0  0  0  0
    2.7096    2.6507    2.0273 O   0  0  0  0  0  0  0  0  0  0  0  0
    3.9927    0.7404    2.5315 C   0  0  2  0  0  0  0  0  0  0  0  0
    7.3704   -0.5087    6.1492 N   0  0  0  0  0  0  0  0  0  0  0  0
    6.0975   -0.0694    6.2769 C   0  0  1  0  0  0  0  0  0  0  0  0
    5.5719    0.0793    7.5138 N   0  0  0  0  0  0  0  0  0  0  0  0
    5.3488    0.2216    5.1874 N   0  0  0  0  0  0  0  0  0  0  0  0
    5.8812    0.0711    3.9510 C   0  0  1  0  0  0  0  0  0  0  0  0
    7.1787   -0.3741    3.7912 C   0  0  2  0  0  0  0  0  0  0  0  0
    7.9262   -0.6669    4.9259 C   0  0  0  0  0  0  0  0  0  0  0  0
    9.1015   -1.0713    4.8266 O   0  0  0  0  0  0  0  0  0  0  0  0
    7.4260   -0.4169    2.4661 N   0  0  0  0  0  0  0  0  0  0  0  0
    6.3045   -0.0148    1.8239 C   0  0  0  0  0  0  0  0  0  0  0  0
    5.3767    0.2760    2.7414 N   0  0  1  0  0  0  0  0  0  0  0  0
  1  2  1  6  0  0  0
  1  3  1  0  0  0  0
  1  4  2  0  0  0  0
  1  6  1  0  0  0  0
  5  6  1  0  0  0  0
  7  5  1  6  0  0  0
  7  8  1  0  0  0  0
  7  9  1  0  0  0  0
  9 10  1  6  0  0  0
  9 11  1  0  0  0  0
 11 12  1  1  0  0  0
 11 13  1  0  0  0  0
 13  8  1  6  0  0  0
 13 24  1  0  0  0  0
 14 15  1  0  0  0  0
 14 20  1  0  0  0  0
 15 16  1  1  0  0  0
 15 17  1  0  0  0  0
 18 17  1  6  0  0  0
 18 19  1  0  0  0  0
 18 24  1  0  0  0  0
 19 20  1  1  0  0  0
 19 22  1  0  0  0  0
 20 21  2  0  0  0  0
 22 23  1  0  0  0  0
 24 23  1  6  0  0  0
M  CHG  1   3  -1
M  END
>  <CHROM.1>
-85.58391652,-164.78059507,-73.93445620,-117.20555995,4.38088314,0.20141644
1.47150552,-2.26372479,-0.56421277,1.21610906

>  <Name>
ligand

>  <RI>
0

>  <Rbt.Current_Directory>
/home/itssahil/PROJECTS/Mol_Feturizer/New_Systems/rnas/3SLQ

>  <Rbt.Executable>
rbdock ($Id: //depot/dev/client3/rdock/2013.1/src/exe/rbdock.cxx#4 $)

>  <Rbt.Library>
libRbt.so (2013.1, Build901 2013/11/27)

>  <Rbt.Parameter_File>
/export/apps/rDock/src/rDock_2013.1_src/data/scripts/dock_solv.prm

>  <Rbt.Receptor>
prm/blind_docking_20.prm

>  <SCORE>
-14.9261

>  <SCORE.INTER>
-11.6399

>  <SCORE.INTER.CONST>
1

>  <SCORE.INTER.POLAR>
0

>  <SCORE.INTER.ROT>
4

>  <SCORE.INTER.SOLV>
14.1191

>  <SCORE.INTER.VDW>
-18.7329

>  <SCORE.INTER.norm>
-0.484995

>  <SCORE.INTRA>
-3.28975

>  <SCORE.INTRA.DIHEDRAL>
-9.42451

>  <SCORE.INTRA.DIHEDRAL.0>
13.2525

>  <SCORE.INTRA.POLAR>
0

>  <SCORE.INTRA.POLAR.0>
0

>  <SCORE.INTRA.REPUL>
0

>  <SCORE.INTRA.REPUL.0>
0

>  <SCORE.INTRA.SOLV>
4.70861

>  <SCORE.INTRA.SOLV.lig_0>
-70.7221

>  <SCORE.INTRA.VDW>
-0.931801

>  <SCORE.INTRA.VDW.0>
-1.46337

>  <SCORE.INTRA.norm>
-0.137073

>  <SCORE.RESTR>
0.00357086

>  <SCORE.RESTR.CAVITY>
0.00357086

>  <SCORE.RESTR.norm>
0.000148786

>  <SCORE.SYSTEM>
0

>  <SCORE.SYSTEM.CONST>
0

>  <SCORE.SYSTEM.DIHEDRAL>
0

>  <SCORE.SYSTEM.SOLV>
0

>  <SCORE.SYSTEM.norm>
0

>  <SCORE.heavy>
24

>  <SCORE.norm>
-0.621919

>  <RMSD>
16.261

$$$$
ligand
 OpenBabel11021811483D
libRbt.so/2013.1/901 2013/11/27
 24 26  0  0  0  0  0  0  0  0999 V2000
  -14.9067    1.2938    0.8945 P   0  0  1  0  0  0  0  0  0  0  0  0
  -15.2126    0.1034    1.7782 O   0  0  0  0  0  0  0  0  0  0  0  0
  -16.0960    2.0710    0.3813 O   0  5  0  0  0  0  0  0  0  0  0  0
  -13.8025    2.1937    1.4289 O   0  0  0  0  0  0  0  0  0  0  0  0
  -13.9562    1.3803   -1.6358 C   0  0  0  0  0  0  0  0  0  0  0  0
  -14.3620    0.6248   -0.4813 O   0  0  0  0  0  0  0  0  0  0  0  0
  -13.4129    0.4354   -2.7119 C   0  0  1  0  0  0  0  0  0  0  0  0
  -12.7803    1.1504   -3.7809 O   0  0  0  0  0  0  0  0  0  0  0  0
  -12.3808   -0.5649   -2.2202 C   0  0  1  0  0  0  0  0  0  0  0  0
  -13.0525   -1.7596   -1.8100 O   0  0  0  0  0  0  0  0  0  0  0  0
  -11.5146   -0.8055   -3.4458 C   0  0  1  0  0  0  0  0  0  0  0  0
  -12.1262   -1.7725   -4.3114 O   0  0  0  0  0  0  0  0  0  0  0  0
  -11.5651    0.5125   -4.1928 C   0  0  2  0  0  0  0  0  0  0  0  0
   -6.7608    1.8615   -5.2676 N   0  0  0  0  0  0  0  0  0  0  0  0
   -7.5266    0.8949   -5.8232 C   0  0  1  0  0  0  0  0  0  0  0  0
   -7.0138    0.1382   -6.8197 N   0  0  0  0  0  0  0  0  0  0  0  0
   -8.7922    0.6775   -5.3954 N   0  0  0  0  0  0  0  0  0  0  0  0
   -9.3000    1.4384   -4.3964 C   0  0  1  0  0  0  0  0  0  0  0  0
   -8.5399    2.4311   -3.8099 C   0  0  2  0  0  0  0  0  0  0  0  0
   -7.2435    2.6348   -4.2680 C   0  0  0  0  0  0  0  0  0  0  0  0
   -6.5232    3.5203   -3.7661 O   0  0  0  0  0  0  0  0  0  0  0  0
   -9.3007    3.0059   -2.8561 N   0  0  0  0  0  0  0  0  0  0  0  0
  -10.5044    2.3868   -2.8599 C   0  0  0  0  0  0  0  0  0  0  0  0
  -10.4861    1.4390   -3.8024 N   0  0  1  0  0  0  0  0  0  0  0  0
  1  2  1  1  0  0  0
  1  3  1  0  0  0  0
  1  4  2  0  0  0  0
  1  6  1  0  0  0  0
  5  6  1  0  0  0  0
  7  5  1  1  0  0  0
  7  8  1  0  0  0  0
  7  9  1  0  0  0  0
  9 10  1  6  0  0  0
  9 11  1  0  0  0  0
 11 12  1  6  0  0  0
 11 13  1  0  0  0  0
 13  8  1  1  0  0  0
 13 24  1  0  0  0  0
 14 15  1  0  0  0  0
 14 20  1  0  0  0  0
 15 16  1  1  0  0  0
 15 17  1  0  0  0  0
 18 17  1  6  0  0  0
 18 19  1  0  0  0  0
 18 24  1  0  0  0  0
 19 20  1  1  0  0  0
 19 22  1  0  0  0  0
 20 21  2  0  0  0  0
 22 23  1  0  0  0  0
 24 23  1  6  0  0  0
M  CHG  1   3  -1
M  END
>  <CHROM.1>
179.29554166,-169.71180936,176.24450213,-156.24822157,-11.45417331,1.03989451
-2.59074299,-2.78663100,-0.56451144,-2.40811154

>  <Name>
ligand

>  <RI>
0

>  <Rbt.Current_Directory>
/home/itssahil/PROJECTS/Mol_Feturizer/New_Systems/rnas/3SLQ

>  <Rbt.Executable>
rbdock ($Id: //depot/dev/client3/rdock/2013.1/src/exe/rbdock.cxx#4 $)

>  <Rbt.Library>
libRbt.so (2013.1, Build901 2013/11/27)

>  <Rbt.Parameter_File>
/export/apps/rDock/src/rDock_2013.1_src/data/scripts/dock_solv.prm

>  <Rbt.Receptor>
prm/blind_docking_20.prm

>  <SCORE>
-17.9304

>  <SCORE.INTER>
-12.2313

>  <SCORE.INTER.CONST>
1

>  <SCORE.INTER.POLAR>
0

>  <SCORE.INTER.ROT>
4

>  <SCORE.INTER.SOLV>
12.072

>  <SCORE.INTER.VDW>
-18.4449

>  <SCORE.INTER.norm>
-0.509639

>  <SCORE.INTRA>
-5.69903

>  <SCORE.INTRA.DIHEDRAL>
-11.5894

>  <SCORE.INTRA.DIHEDRAL.0>
13.2525

>  <SCORE.INTRA.POLAR>
0

>  <SCORE.INTRA.POLAR.0>
0

>  <SCORE.INTRA.REPUL>
0

>  <SCORE.INTRA.REPUL.0>
0

>  <SCORE.INTRA.SOLV>
0.696143

>  <SCORE.INTRA.SOLV.lig_0>
-70.7221

>  <SCORE.INTRA.VDW>
-0.25239

>  <SCORE.INTRA.VDW.0>
-1.46337

>  <SCORE.INTRA.norm>
-0.237459

>  <SCORE.RESTR>
0

>  <SCORE.RESTR.CAVITY>
0

>  <SCORE.RESTR.norm>
0

>  <SCORE.SYSTEM>
0

>  <SCORE.SYSTEM.CONST>
0

>  <SCORE.SYSTEM.DIHEDRAL>
0

>  <SCORE.SYSTEM.SOLV>
0

>  <SCORE.SYSTEM.norm>
0

>  <SCORE.heavy>
24

>  <SCORE.norm>
-0.747098

>  <RMSD>
16.263

$$$$
ligand
 OpenBabel11021811483D
libRbt.so/2013.1/901 2013/11/27
 24 26  0  0  0  0  0  0  0  0999 V2000
    4.1085    1.7281    1.8437 P   0  0  1  0  0  0  0  0  0  0  0  0
    3.3409    0.4966    2.2746 O   0  0  0  0  0  0  0  0  0  0  0  0
    3.3567    3.0375    1.8915 O   0  5  0  0  0  0  0  0  0  0  0  0
    5.5035    1.8290    2.4426 O   0  0  0  0  0  0  0  0  0  0  0  0
    3.2645    0.9940   -0.6184 C   0  0  0  0  0  0  0  0  0  0  0  0
    4.2832    1.5344    0.2409 O   0  0  0  0  0  0  0  0  0  0  0  0
    3.8493   -0.1335   -1.4743 C   0  0  1  0  0  0  0  0  0  0  0  0
    4.8073   -0.9137   -0.7480 O   0  0  0  0  0  0  0  0  0  0  0  0
    2.8292   -1.1263   -2.0049 C   0  0  1  0  0  0  0  0  0  0  0  0
    2.3700   -0.6794   -3.2840 O   0  0  0  0  0  0  0  0  0  0  0  0
    3.6231   -2.4175   -2.1177 C   0  0  1  0  0  0  0  0  0  0  0  0
    4.3713   -2.4422   -3.3416 O   0  0  0  0  0  0  0  0  0  0  0  0
    4.6479   -2.3144   -1.0055 C   0  0  2  0  0  0  0  0  0  0  0  0
    3.3741   -6.7148    1.2462 N   0  0  0  0  0  0  0  0  0  0  0  0
    3.7724   -6.4842   -0.0257 C   0  0  1  0  0  0  0  0  0  0  0  0
    3.8782   -7.5247   -0.8828 N   0  0  0  0  0  0  0  0  0  0  0  0
    4.0641   -5.2316   -0.4476 N   0  0  0  0  0  0  0  0  0  0  0  0
    3.9556   -4.1934    0.4156 C   0  0  1  0  0  0  0  0  0  0  0  0
    3.5496   -4.3996    1.7194 C   0  0  2  0  0  0  0  0  0  0  0  0
    3.2568   -5.6955    2.1280 C   0  0  0  0  0  0  0  0  0  0  0  0
    2.8867   -5.9259    3.2962 O   0  0  0  0  0  0  0  0  0  0  0  0
    3.5313   -3.1959    2.3273 N   0  0  0  0  0  0  0  0  0  0  0  0
    3.9243   -2.2702    1.4214 C   0  0  0  0  0  0  0  0  0  0  0  0
    4.1791   -2.8943    0.2669 N   0  0  1  0  0  0  0  0  0  0  0  0
  1  2  1  1  0  0  0
  1  3  1  0  0  0  0
  1  4  2  0  0  0  0
  1  6  1  0  0  0  0
  5  6  1  0  0  0  0
  7  5  1  1  0  0  0
  7  8  1  0  0  0  0
  7  9  1  0  0  0  0
  9 10  1  6  0  0  0
  9 11  1  0  0  0  0
 11 12  1  6  0  0  0
 11 13  1  0  0  0  0
 13  8  1  1  0  0  0
 13 24  1  0  0  0  0
 14 15  1  0  0  0  0
 14 20  1  0  0  0  0
 15 16  1  6  0  0  0
 15 17  1  0  0  0  0
 18 17  1  1  0  0  0
 18 19  1  0  0  0  0
 18 24  1  0  0  0  0
 19 20  1  6  0  0  0
 19 22  1  0  0  0  0
 20 21  2  0  0  0  0
 22 23  1  0  0  0  0
 24 23  1  1  0  0  0
M  CHG  1   3  -1
M  END
>  <CHROM.1>
38.79158864,36.82182404,-128.96346958,-178.17945469,3.80275061,-1.95502588
0.30959250,-0.40019697,1.51625117,2.01324422

>  <Name>
ligand

>  <RI>
0

>  <Rbt.Current_Directory>
/home/itssahil/PROJECTS/Mol_Feturizer/New_Systems/rnas/3SLQ

>  <Rbt.Executable>
rbdock ($Id: //depot/dev/client3/rdock/2013.1/src/exe/rbdock.cxx#4 $)

>  <Rbt.Library>
libRbt.so (2013.1, Build901 2013/11/27)

>  <Rbt.Parameter_File>
/export/apps/rDock/src/rDock_2013.1_src/data/scripts/dock_solv.prm

>  <Rbt.Receptor>
prm/blind_docking_60.prm

>  <SCORE>
-11.9064

>  <SCORE.INTER>
-9.86106

>  <SCORE.INTER.CONST>
1

>  <SCORE.INTER.POLAR>
0

>  <SCORE.INTER.ROT>
4

>  <SCORE.INTER.SOLV>
15.2684

>  <SCORE.INTER.VDW>
-17.9302

>  <SCORE.INTER.norm>
-0.410878

>  <SCORE.INTRA>
-2.04638

>  <SCORE.INTRA.DIHEDRAL>
-2.85701

>  <SCORE.INTRA.DIHEDRAL.0>
13.2525

>  <SCORE.INTRA.POLAR>
0

>  <SCORE.INTRA.POLAR.0>
0

>  <SCORE.INTRA.REPUL>
0

>  <SCORE.INTRA.REPUL.0>
0

>  <SCORE.INTRA.SOLV>
0.193432

>  <SCORE.INTRA.SOLV.lig_0>
-70.7221

>  <SCORE.INTRA.VDW>
-0.714592

>  <SCORE.INTRA.VDW.0>
-1.46337

>  <SCORE.INTRA.norm>
-0.0852659

>  <SCORE.RESTR>
0.00104196

>  <SCORE.RESTR.CAVITY>
0.00104196

>  <SCORE.RESTR.norm>
4.34149e-05

>  <SCORE.SYSTEM>
0

>  <SCORE.SYSTEM.CONST>
0

>  <SCORE.SYSTEM.DIHEDRAL>
0

>  <SCORE.SYSTEM.SOLV>
0

>  <SCORE.SYSTEM.norm>
0

>  <SCORE.heavy>
24

>  <SCORE.norm>
-0.4961

>  <RMSD>
16.270

$$$$
ligand
 OpenBabel11021811483D
libRbt.so/2013.1/901 2013/11/27
 24 26  0  0  0  0  0  0  0  0999 V2000
  -14.8243    1.0656    0.8075 P   0  0  1  0  0  0  0  0  0  0  0  0
  -15.9934    1.9198    0.3657 O   0  0  0  0  0  0  0  0  0  0  0  0
  -13.6211    1.8030    1.3463 O   0  5  0  0  0  0  0  0  0  0  0  0
  -15.2184   -0.1250    1.6687 O   0  0  0  0  0  0  0  0  0  0  0  0
  -13.8313    1.2995   -1.6971 C   0  0  0  0  0  0  0  0  0  0  0  0
  -14.2257    0.4793   -0.5836 O   0  0  0  0  0  0  0  0  0  0  0  0
  -13.2627    0.4210   -2.8154 C   0  0  1  0  0  0  0  0  0  0  0  0
  -12.6510    1.2020   -3.8498 O   0  0  0  0  0  0  0  0  0  0  0  0
  -12.2027   -0.5719   -2.3701 C   0  0  1  0  0  0  0  0  0  0  0  0
  -12.8407   -1.8026   -2.0160 O   0  0  0  0  0  0  0  0  0  0  0  0
  -11.3312   -0.7313   -3.6050 C   0  0  1  0  0  0  0  0  0  0  0  0
  -11.9162   -1.6738   -4.5148 O   0  0  0  0  0  0  0  0  0  0  0  0
  -11.4188    0.6180   -4.2902 C   0  0  2  0  0  0  0  0  0  0  0  0
   -6.6473    2.1341   -5.2856 N   0  0  0  0  0  0  0  0  0  0  0  0
   -7.3857    1.1719   -5.8842 C   0  0  1  0  0  0  0  0  0  0  0  0
   -6.8497    0.4707   -6.9087 N   0  0  0  0  0  0  0  0  0  0  0  0
   -8.6468    0.9043   -5.4718 N   0  0  0  0  0  0  0  0  0  0  0  0
   -9.1779    1.6097   -4.4446 C   0  0  1  0  0  0  0  0  0  0  0  0
   -8.4461    2.5967   -3.8140 C   0  0  2  0  0  0  0  0  0  0  0  0
   -7.1537    2.8526   -4.2571 C   0  0  0  0  0  0  0  0  0  0  0  0
   -6.4585    3.7348   -3.7156 O   0  0  0  0  0  0  0  0  0  0  0  0
   -9.2251    3.1115   -2.8409 N   0  0  0  0  0  0  0  0  0  0  0  0
  -10.4121    2.4623   -2.8759 C   0  0  0  0  0  0  0  0  0  0  0  0
  -10.3658    1.5551   -3.8567 N   0  0  1  0  0  0  0  0  0  0  0  0
  1  2  1  6  0  0  0
  1  3  1  0  0  0  0
  1  4  2  0  0  0  0
  1  6  1  0  0  0  0
  5  6  1  0  0  0  0
  7  5  1  1  0  0  0
  7  8  1  0  0  0  0
  7  9  1  0  0  0  0
  9 10  1  6  0  0  0
  9 11  1  0  0  0  0
 11 12  1  6  0  0  0
 11 13  1  0  0  0  0
 13  8  1  1  0  0  0
 13 24  1  0  0  0  0
 14 15  1  0  0  0  0
 14 20  1  0  0  0  0
 15 16  1  1  0  0  0
 15 17  1  0  0  0  0
 18 17  1  6  0  0  0
 18 19  1  0  0  0  0
 18 24  1  0  0  0  0
 19 20  1  1  0  0  0
 19 22  1  0  0  0  0
 20 21  2  0  0  0  0
 22 23  1  0  0  0  0
 24 23  1  6  0  0  0
M  CHG  1   3  -1
M  END
>  <CHROM.1>
54.38687423,-170.20953593,177.76545549,-156.63881130,-11.32888718,1.06809217
-2.66546580,-2.81537286,-0.58073538,-2.37955536

>  <Name>
ligand

>  <RI>
0

>  <Rbt.Current_Directory>
/home/itssahil/PROJECTS/Mol_Feturizer/New_Systems/rnas/3SLQ

>  <Rbt.Executable>
rbdock ($Id: //depot/dev/client3/rdock/2013.1/src/exe/rbdock.cxx#4 $)

>  <Rbt.Library>
libRbt.so (2013.1, Build901 2013/11/27)

>  <Rbt.Parameter_File>
/export/apps/rDock/src/rDock_2013.1_src/data/scripts/dock_solv.prm

>  <Rbt.Receptor>
prm/blind_docking_60.prm

>  <SCORE>
-18.8916

>  <SCORE.INTER>
-12.9419

>  <SCORE.INTER.CONST>
1

>  <SCORE.INTER.POLAR>
0

>  <SCORE.INTER.ROT>
4

>  <SCORE.INTER.SOLV>
11.6302

>  <SCORE.INTER.VDW>
-18.7713

>  <SCORE.INTER.norm>
-0.539244

>  <SCORE.INTRA>
-5.94971

>  <SCORE.INTRA.DIHEDRAL>
-11.6193

>  <SCORE.INTRA.DIHEDRAL.0>
13.2525

>  <SCORE.INTRA.POLAR>
0

>  <SCORE.INTRA.POLAR.0>
0

>  <SCORE.INTRA.REPUL>
0

>  <SCORE.INTRA.REPUL.0>
0

>  <SCORE.INTRA.SOLV>
0.166132

>  <SCORE.INTRA.SOLV.lig_0>
-70.7221

>  <SCORE.INTRA.VDW>
-0.223142

>  <SCORE.INTRA.VDW.0>
-1.46337

>  <SCORE.INTRA.norm>
-0.247905

>  <SCORE.RESTR>
0

>  <SCORE.RESTR.CAVITY>
0

>  <SCORE.RESTR.norm>
0

>  <SCORE.SYSTEM>
0

>  <SCORE.SYSTEM.CONST>
0

>  <SCORE.SYSTEM.DIHEDRAL>
0

>  <SCORE.SYSTEM.SOLV>
0

>  <SCORE.SYSTEM.norm>
0

>  <SCORE.heavy>
24

>  <SCORE.norm>
-0.787149

>  <RMSD>
16.278

$$$$
ligand
 OpenBabel11021811483D
libRbt.so/2013.1/901 2013/11/27
 24 26  0  0  0  0  0  0  0  0999 V2000
  -15.8803    3.2322   -0.2816 P   0  0  1  0  0  0  0  0  0  0  0  0
  -16.7872    2.8827   -1.4422 O   0  0  0  0  0  0  0  0  0  0  0  0
  -15.9694    4.6485    0.2359 O   0  5  0  0  0  0  0  0  0  0  0  0
  -15.8765    2.1978    0.8341 O   0  0  0  0  0  0  0  0  0  0  0  0
  -13.4770    2.1360   -0.8611 C   0  0  0  0  0  0  0  0  0  0  0  0
  -14.3955    3.2398   -0.9391 O   0  0  0  0  0  0  0  0  0  0  0  0
  -14.0844    0.9041   -1.5388 C   0  0  1  0  0  0  0  0  0  0  0  0
  -13.7181    0.8200   -2.9218 O   0  0  0  0  0  0  0  0  0  0  0  0
  -13.6800   -0.4257   -0.9257 C   0  0  1  0  0  0  0  0  0  0  0  0
  -14.6284   -0.7765    0.0864 O   0  0  0  0  0  0  0  0  0  0  0  0
  -13.7395   -1.3862   -2.1021 C   0  0  1  0  0  0  0  0  0  0  0  0
  -15.0862   -1.8296   -2.3213 O   0  0  0  0  0  0  0  0  0  0  0  0
  -13.3861   -0.5226   -3.2967 C   0  0  2  0  0  0  0  0  0  0  0  0
   -9.2578    2.4787   -3.2238 N   0  0  0  0  0  0  0  0  0  0  0  0
  -10.5377    2.7700   -2.8976 C   0  0  1  0  0  0  0  0  0  0  0  0
  -10.8434    4.0178   -2.4756 N   0  0  0  0  0  0  0  0  0  0  0  0
  -11.5099    1.8326   -2.9886 N   0  0  0  0  0  0  0  0  0  0  0  0
  -11.1975    0.5847   -3.4125 C   0  0  1  0  0  0  0  0  0  0  0  0
   -9.8993    0.2600   -3.7537 C   0  0  2  0  0  0  0  0  0  0  0  0
   -8.9193    1.2403   -3.6506 C   0  0  0  0  0  0  0  0  0  0  0  0
   -7.7348    0.9896   -3.9487 O   0  0  0  0  0  0  0  0  0  0  0  0
   -9.8985   -1.0327   -4.1380 N   0  0  0  0  0  0  0  0  0  0  0  0
  -11.1655   -1.4962   -4.0289 C   0  0  0  0  0  0  0  0  0  0  0  0
  -11.9400   -0.5009   -3.5857 N   0  0  1  0  0  0  0  0  0  0  0  0
  1  2  1  6  0  0  0
  1  3  1  0  0  0  0
  1  4  2  0  0  0  0
  1  6  1  0  0  0  0
  5  6  1  0  0  0  0
  7  5  1  1  0  0  0
  7  8  1  0  0  0  0
  7  9  1  0  0  0  0
  9 10  1  1  0  0  0
  9 11  1  0  0  0  0
 11 12  1  6  0  0  0
 11 13  1  0  0  0  0
 13  8  1  1  0  0  0
 13 24  1  0  0  0  0
 14 15  1  0  0  0  0
 14 20  1  0  0  0  0
 15 16  1  6  0  0  0
 15 17  1  0  0  0  0
 18 17  1  1  0  0  0
 18 19  1  0  0  0  0
 18 24  1  0  0  0  0
 19 20  1  6  0  0  0
 19 22  1  0  0  0  0
 20 21  2  0  0  0  0
 22 23  1  0  0  0  0
 24 23  1  1  0  0  0
M  CHG  1   3  -1
M  END
>  <CHROM.1>
-98.12757964,91.91248028,61.09060927,3.69749556,-12.93063973,1.24374349,-2.06334972
-2.74138761,-0.43673337,-2.89309756

>  <Name>
ligand

>  <RI>
0

>  <Rbt.Current_Directory>
/home/itssahil/PROJECTS/Mol_Feturizer/New_Systems/rnas/3SLQ

>  <Rbt.Executable>
rbdock ($Id: //depot/dev/client3/rdock/2013.1/src/exe/rbdock.cxx#4 $)

>  <Rbt.Library>
libRbt.so (2013.1, Build901 2013/11/27)

>  <Rbt.Parameter_File>
/export/apps/rDock/src/rDock_2013.1_src/data/scripts/dock_solv.prm

>  <Rbt.Receptor>
prm/blind_docking_80.prm

>  <SCORE>
-17.2571

>  <SCORE.INTER>
-16.0521

>  <SCORE.INTER.CONST>
1

>  <SCORE.INTER.POLAR>
0

>  <SCORE.INTER.ROT>
4

>  <SCORE.INTER.SOLV>
17.8271

>  <SCORE.INTER.VDW>
-22.9104

>  <SCORE.INTER.norm>
-0.668836

>  <SCORE.INTRA>
-1.20506

>  <SCORE.INTRA.DIHEDRAL>
-7.45799

>  <SCORE.INTRA.DIHEDRAL.0>
13.2525

>  <SCORE.INTRA.POLAR>
0

>  <SCORE.INTRA.POLAR.0>
0

>  <SCORE.INTRA.REPUL>
0

>  <SCORE.INTRA.REPUL.0>
0

>  <SCORE.INTRA.SOLV>
4.22911

>  <SCORE.INTRA.SOLV.lig_0>
-70.7221

>  <SCORE.INTRA.VDW>
0.409378

>  <SCORE.INTRA.VDW.0>
-1.46337

>  <SCORE.INTRA.norm>
-0.0502109

>  <SCORE.RESTR>
0

>  <SCORE.RESTR.CAVITY>
0

>  <SCORE.RESTR.norm>
0

>  <SCORE.SYSTEM>
0

>  <SCORE.SYSTEM.CONST>
0

>  <SCORE.SYSTEM.DIHEDRAL>
0

>  <SCORE.SYSTEM.SOLV>
0

>  <SCORE.SYSTEM.norm>
0

>  <SCORE.heavy>
24

>  <SCORE.norm>
-0.719047

>  <RMSD>
16.301

$$$$
ligand
 OpenBabel11021811483D
libRbt.so/2013.1/901 2013/11/27
 24 26  0  0  0  0  0  0  0  0999 V2000
    4.5597   -1.9768   -1.9879 P   0  0  1  0  0  0  0  0  0  0  0  0
    6.0494   -1.7374   -2.1107 O   0  0  0  0  0  0  0  0  0  0  0  0
    3.7399   -1.7550   -3.2371 O   0  5  0  0  0  0  0  0  0  0  0  0
    4.1975   -3.2675   -1.2684 O   0  0  0  0  0  0  0  0  0  0  0  0
    2.6593   -0.4159   -0.8629 C   0  0  0  0  0  0  0  0  0  0  0  0
    4.0448   -0.7461   -1.0619 O   0  0  0  0  0  0  0  0  0  0  0  0
    2.5386    0.7556    0.1163 C   0  0  1  0  0  0  0  0  0  0  0  0
    2.9289    0.3844    1.4444 O   0  0  0  0  0  0  0  0  0  0  0  0
    3.3814    1.9698   -0.2348 C   0  0  1  0  0  0  0  0  0  0  0  0
    2.6066    2.8501   -1.0543 O   0  0  0  0  0  0  0  0  0  0  0  0
    3.6828    2.5903    1.1196 C   0  0  1  0  0  0  0  0  0  0  0  0
    2.5848    3.4047    1.5549 O   0  0  0  0  0  0  0  0  0  0  0  0
    3.7216    1.4050    2.0637 C   0  0  2  0  0  0  0  0  0  0  0  0
    7.1351   -0.1983    5.5037 N   0  0  0  0  0  0  0  0  0  0  0  0
    5.9108    0.3435    5.6961 C   0  0  1  0  0  0  0  0  0  0  0  0
    5.4539    0.5099    6.9578 N   0  0  0  0  0  0  0  0  0  0  0  0
    5.1429    0.7189    4.6466 N   0  0  0  0  0  0  0  0  0  0  0  0
    5.6064    0.5501    3.3851 C   0  0  1  0  0  0  0  0  0  0  0  0
    6.8533    0.0011    3.1594 C   0  0  2  0  0  0  0  0  0  0  0  0
    7.6219   -0.3770    4.2541 C   0  0  0  0  0  0  0  0  0  0  0  0
    8.7533   -0.8765    4.0951 O   0  0  0  0  0  0  0  0  0  0  0  0
    7.0384   -0.0347    1.8240 N   0  0  0  0  0  0  0  0  0  0  0  0
    5.9281    0.4734    1.2399 C   0  0  0  0  0  0  0  0  0  0  0  0
    5.0690    0.8218    2.2031 N   0  0  1  0  0  0  0  0  0  0  0  0
  1  2  1  6  0  0  0
  1  3  1  0  0  0  0
  1  4  2  0  0  0  0
  1  6  1  0  0  0  0
  5  6  1  0  0  0  0
  7  5  1  6  0  0  0
  7  8  1  0  0  0  0
  7  9  1  0  0  0  0
  9 10  1  6  0  0  0
  9 11  1  0  0  0  0
 11 12  1  1  0  0  0
 11 13  1  0  0  0  0
 13  8  1  6  0  0  0
 13 24  1  0  0  0  0
 14 15  1  0  0  0  0
 14 20  1  0  0  0  0
 15 16  1  1  0  0  0
 15 17  1  0  0  0  0
 18 17  1  6  0  0  0
 18 19  1  0  0  0  0
 18 24  1  0  0  0  0
 19 20  1  1  0  0  0
 19 22  1  0  0  0  0
 20 21  2  0  0  0  0
 22 23  1  0  0  0  0
 24 23  1  6  0  0  0
M  CHG  1   3  -1
M  END
>  <CHROM.1>
168.62750303,-68.46134706,177.37853160,-113.25567371,4.81982227,0.08420153
1.26438049,-2.10412430,-0.75420816,1.01589492

>  <Name>
ligand

>  <RI>
0

>  <Rbt.Current_Directory>
/home/itssahil/PROJECTS/Mol_Feturizer/New_Systems/rnas/3SLQ

>  <Rbt.Executable>
rbdock ($Id: //depot/dev/client3/rdock/2013.1/src/exe/rbdock.cxx#4 $)

>  <Rbt.Library>
libRbt.so (2013.1, Build901 2013/11/27)

>  <Rbt.Parameter_File>
/export/apps/rDock/src/rDock_2013.1_src/data/scripts/dock_solv.prm

>  <Rbt.Receptor>
prm/blind_docking_40.prm

>  <SCORE>
-20.2016

>  <SCORE.INTER>
-13.9536

>  <SCORE.INTER.CONST>
1

>  <SCORE.INTER.POLAR>
0

>  <SCORE.INTER.ROT>
4

>  <SCORE.INTER.SOLV>
19.3903

>  <SCORE.INTER.VDW>
-22.0325

>  <SCORE.INTER.norm>
-0.581401

>  <SCORE.INTRA>
-6.24792

>  <SCORE.INTRA.DIHEDRAL>
-11.564

>  <SCORE.INTRA.DIHEDRAL.0>
13.2525

>  <SCORE.INTRA.POLAR>
0

>  <SCORE.INTRA.POLAR.0>
0

>  <SCORE.INTRA.REPUL>
0

>  <SCORE.INTRA.REPUL.0>
0

>  <SCORE.INTRA.SOLV>
0.546918

>  <SCORE.INTRA.SOLV.lig_0>
-70.7221

>  <SCORE.INTRA.VDW>
-0.739377

>  <SCORE.INTRA.VDW.0>
-1.46337

>  <SCORE.INTRA.norm>
-0.26033

>  <SCORE.RESTR>
0

>  <SCORE.RESTR.CAVITY>
0

>  <SCORE.RESTR.norm>
0

>  <SCORE.SYSTEM>
0

>  <SCORE.SYSTEM.CONST>
0

>  <SCORE.SYSTEM.DIHEDRAL>
0

>  <SCORE.SYSTEM.SOLV>
0

>  <SCORE.SYSTEM.norm>
0

>  <SCORE.heavy>
24

>  <SCORE.norm>
-0.841731

>  <RMSD>
16.420

$$$$
ligand
 OpenBabel11021811483D
libRbt.so/2013.1/901 2013/11/27
 24 26  0  0  0  0  0  0  0  0999 V2000
  -13.2243    3.4970    0.1177 P   0  0  1  0  0  0  0  0  0  0  0  0
  -14.4115    4.3319   -0.3124 O   0  0  0  0  0  0  0  0  0  0  0  0
  -11.8675    4.1505    0.0006 O   0  5  0  0  0  0  0  0  0  0  0  0
  -13.4196    2.7815    1.4461 O   0  0  0  0  0  0  0  0  0  0  0  0
  -14.2190    1.5429   -1.4652 C   0  0  0  0  0  0  0  0  0  0  0  0
  -13.1149    2.3572   -1.0339 O   0  0  0  0  0  0  0  0  0  0  0  0
  -13.7351    0.5068   -2.4841 C   0  0  1  0  0  0  0  0  0  0  0  0
  -13.0714    1.1205   -3.5963 O   0  0  0  0  0  0  0  0  0  0  0  0
  -12.7560   -0.5175   -1.9364 C   0  0  1  0  0  0  0  0  0  0  0  0
  -13.4893   -1.6466   -1.4527 O   0  0  0  0  0  0  0  0  0  0  0  0
  -11.9123   -0.8784   -3.1481 C   0  0  1  0  0  0  0  0  0  0  0  0
  -12.5814   -1.8605   -3.9518 O   0  0  0  0  0  0  0  0  0  0  0  0
  -11.8956    0.3932   -3.9730 C   0  0  2  0  0  0  0  0  0  0  0  0
   -7.0137    1.3702   -5.0996 N   0  0  0  0  0  0  0  0  0  0  0  0
   -7.8331    0.4117   -5.5886 C   0  0  1  0  0  0  0  0  0  0  0  0
   -7.3615   -0.4469   -6.5207 N   0  0  0  0  0  0  0  0  0  0  0  0
   -9.1117    0.3025   -5.1579 N   0  0  0  0  0  0  0  0  0  0  0  0
   -9.5781    1.1651   -4.2235 C   0  0  1  0  0  0  0  0  0  0  0  0
   -8.7630    2.1524   -3.7057 C   0  0  2  0  0  0  0  0  0  0  0  0
   -7.4544    2.2438   -4.1652 C   0  0  0  0  0  0  0  0  0  0  0  0
   -6.6849    3.1202   -3.7241 O   0  0  0  0  0  0  0  0  0  0  0  0
   -9.4929    2.8414   -2.8049 N   0  0  0  0  0  0  0  0  0  0  0  0
  -10.7314    2.2963   -2.7738 C   0  0  0  0  0  0  0  0  0  0  0  0
  -10.7651    1.2808   -3.6426 N   0  0  1  0  0  0  0  0  0  0  0  0
  1  2  1  6  0  0  0
  1  3  1  0  0  0  0
  1  4  2  0  0  0  0
  1  6  1  0  0  0  0
  5  6  1  0  0  0  0
  7  5  1  1  0  0  0
  7  8  1  0  0  0  0
  7  9  1  0  0  0  0
  9 10  1  6  0  0  0
  9 11  1  0  0  0  0
 11 12  1  6  0  0  0
 11 13  1  0  0  0  0
 13  8  1  1  0  0  0
 13 24  1  0  0  0  0
 14 15  1  0  0  0  0
 14 20  1  0  0  0  0
 15 16  1  1  0  0  0
 15 17  1  0  0  0  0
 18 17  1  6  0  0  0
 18 19  1  0  0  0  0
 18 24  1  0  0  0  0
 19 20  1  1  0  0  0
 19 22  1  0  0  0  0
 20 21  2  0  0  0  0
 22 23  1  0  0  0  0
 24 23  1  6  0  0  0
M  CHG  1   3  -1
M  END
>  <CHROM.1>
-50.89297225,-55.68208336,-175.69925629,-157.38839922,-11.22764737,1.48495801
-2.64715972,-2.58547844,-0.48420878,-2.54021815

>  <Name>
ligand

>  <RI>
0

>  <Rbt.Current_Directory>
/home/itssahil/PROJECTS/Mol_Feturizer/New_Systems/rnas/3SLQ

>  <Rbt.Executable>
rbdock ($Id: //depot/dev/client3/rdock/2013.1/src/exe/rbdock.cxx#4 $)

>  <Rbt.Library>
libRbt.so (2013.1, Build901 2013/11/27)

>  <Rbt.Parameter_File>
/export/apps/rDock/src/rDock_2013.1_src/data/scripts/dock_solv.prm

>  <Rbt.Receptor>
prm/blind_docking_100.prm

>  <SCORE>
-19.5746

>  <SCORE.INTER>
-12.9117

>  <SCORE.INTER.CONST>
1

>  <SCORE.INTER.POLAR>
0

>  <SCORE.INTER.ROT>
4

>  <SCORE.INTER.SOLV>
14.2665

>  <SCORE.INTER.VDW>
-19.63

>  <SCORE.INTER.norm>
-0.537988

>  <SCORE.INTRA>
-6.66286

>  <SCORE.INTRA.DIHEDRAL>
-11.7391

>  <SCORE.INTRA.DIHEDRAL.0>
13.2525

>  <SCORE.INTRA.POLAR>
0

>  <SCORE.INTRA.POLAR.0>
0

>  <SCORE.INTRA.REPUL>
0

>  <SCORE.INTRA.REPUL.0>
0

>  <SCORE.INTRA.SOLV>
0.253077

>  <SCORE.INTRA.SOLV.lig_0>
-70.7221

>  <SCORE.INTRA.VDW>
-0.919845

>  <SCORE.INTRA.VDW.0>
-1.46337

>  <SCORE.INTRA.norm>
-0.277619

>  <SCORE.RESTR>
0

>  <SCORE.RESTR.CAVITY>
0

>  <SCORE.RESTR.norm>
0

>  <SCORE.SYSTEM>
0

>  <SCORE.SYSTEM.CONST>
0

>  <SCORE.SYSTEM.DIHEDRAL>
0

>  <SCORE.SYSTEM.SOLV>
0

>  <SCORE.SYSTEM.norm>
0

>  <SCORE.heavy>
24

>  <SCORE.norm>
-0.815607

>  <RMSD>
16.435

$$$$
ligand
 OpenBabel11021811483D
libRbt.so/2013.1/901 2013/11/27
 24 26  0  0  0  0  0  0  0  0999 V2000
  -13.2154    3.4720    0.1665 P   0  0  1  0  0  0  0  0  0  0  0  0
  -11.8066    4.0159    0.2706 O   0  0  0  0  0  0  0  0  0  0  0  0
  -13.6961    2.6298    1.3247 O   0  5  0  0  0  0  0  0  0  0  0  0
  -14.2444    4.4999   -0.2798 O   0  0  0  0  0  0  0  0  0  0  0  0
  -14.2272    1.5713   -1.4698 C   0  0  0  0  0  0  0  0  0  0  0  0
  -13.1122    2.3512   -1.0042 O   0  0  0  0  0  0  0  0  0  0  0  0
  -13.7477    0.5350   -2.4905 C   0  0  1  0  0  0  0  0  0  0  0  0
  -13.0861    1.1482   -3.6042 O   0  0  0  0  0  0  0  0  0  0  0  0
  -12.7688   -0.4912   -1.9460 C   0  0  1  0  0  0  0  0  0  0  0  0
  -13.5026   -1.6195   -1.4610 O   0  0  0  0  0  0  0  0  0  0  0  0
  -11.9290   -0.8527   -3.1602 C   0  0  1  0  0  0  0  0  0  0  0  0
  -12.6019   -1.8334   -3.9627 O   0  0  0  0  0  0  0  0  0  0  0  0
  -11.9124    0.4193   -3.9845 C   0  0  2  0  0  0  0  0  0  0  0  0
   -7.0749    1.4799   -5.2213 N   0  0  0  0  0  0  0  0  0  0  0  0
   -7.9010    0.5319   -5.7194 C   0  0  1  0  0  0  0  0  0  0  0  0
   -7.4510   -0.2888   -6.6953 N   0  0  0  0  0  0  0  0  0  0  0  0
   -9.1651    0.3959   -5.2548 N   0  0  0  0  0  0  0  0  0  0  0  0
   -9.6099    1.2206   -4.2766 C   0  0  1  0  0  0  0  0  0  0  0  0
   -8.7874    2.1963   -3.7485 C   0  0  2  0  0  0  0  0  0  0  0  0
   -7.4941    2.3158   -4.2436 C   0  0  0  0  0  0  0  0  0  0  0  0
   -6.7187    3.1830   -3.7947 O   0  0  0  0  0  0  0  0  0  0  0  0
   -9.4952    2.8463   -2.8023 N   0  0  0  0  0  0  0  0  0  0  0  0
  -10.7278    2.2892   -2.7536 C   0  0  0  0  0  0  0  0  0  0  0  0
  -10.7796    1.3049   -3.6567 N   0  0  1  0  0  0  0  0  0  0  0  0
  1  2  1  1  0  0  0
  1  3  1  0  0  0  0
  1  4  2  0  0  0  0
  1  6  1  0  0  0  0
  5  6  1  0  0  0  0
  7  5  1  1  0  0  0
  7  8  1  0  0  0  0
  7  9  1  0  0  0  0
  9 10  1  6  0  0  0
  9 11  1  0  0  0  0
 11 12  1  6  0  0  0
 11 13  1  0  0  0  0
 13  8  1  1  0  0  0
 13 24  1  0  0  0  0
 14 15  1  0  0  0  0
 14 20  1  0  0  0  0
 15 16  1  1  0  0  0
 15 17  1  0  0  0  0
 18 17  1  6  0  0  0
 18 19  1  0  0  0  0
 18 24  1  0  0  0  0
 19 20  1  1  0  0  0
 19 22  1  0  0  0  0
 20 21  2  0  0  0  0
 22 23  1  0  0  0  0
 24 23  1  6  0  0  0
M  CHG  1   3  -1
M  END
>  <CHROM.1>
-179.06162597,-57.78629017,-175.22453986,-154.77533466,-11.24926137,1.51372212
-2.66505225,-2.58379377,-0.50320327,-2.52275852

>  <Name>
ligand

>  <RI>
0

>  <Rbt.Current_Directory>
/home/itssahil/PROJECTS/Mol_Feturizer/New_Systems/rnas/3SLQ

>  <Rbt.Executable>
rbdock ($Id: //depot/dev/client3/rdock/2013.1/src/exe/rbdock.cxx#4 $)

>  <Rbt.Library>
libRbt.so (2013.1, Build901 2013/11/27)

>  <Rbt.Parameter_File>
/export/apps/rDock/src/rDock_2013.1_src/data/scripts/dock_solv.prm

>  <Rbt.Receptor>
prm/blind_docking_100.prm

>  <SCORE>
-19.7319

>  <SCORE.INTER>
-13.202

>  <SCORE.INTER.CONST>
1

>  <SCORE.INTER.POLAR>
0

>  <SCORE.INTER.ROT>
4

>  <SCORE.INTER.SOLV>
13.0818

>  <SCORE.INTER.VDW>
-19.4286

>  <SCORE.INTER.norm>
-0.550082

>  <SCORE.INTRA>
-6.52994

>  <SCORE.INTRA.DIHEDRAL>
-11.9004

>  <SCORE.INTRA.DIHEDRAL.0>
13.2525

>  <SCORE.INTRA.POLAR>
0

>  <SCORE.INTRA.POLAR.0>
0

>  <SCORE.INTRA.REPUL>
0

>  <SCORE.INTRA.REPUL.0>
0

>  <SCORE.INTRA.SOLV>
0.636542

>  <SCORE.INTRA.SOLV.lig_0>
-70.7221

>  <SCORE.INTRA.VDW>
-0.898032

>  <SCORE.INTRA.VDW.0>
-1.46337

>  <SCORE.INTRA.norm>
-0.272081

>  <SCORE.RESTR>
0

>  <SCORE.RESTR.CAVITY>
0

>  <SCORE.RESTR.norm>
0

>  <SCORE.SYSTEM>
0

>  <SCORE.SYSTEM.CONST>
0

>  <SCORE.SYSTEM.DIHEDRAL>
0

>  <SCORE.SYSTEM.SOLV>
0

>  <SCORE.SYSTEM.norm>
0

>  <SCORE.heavy>
24

>  <SCORE.norm>
-0.822163

>  <RMSD>
16.457

$$$$
ligand
 OpenBabel11021811483D
libRbt.so/2013.1/901 2013/11/27
 24 26  0  0  0  0  0  0  0  0999 V2000
  -13.1790    3.4956    0.1639 P   0  0  1  0  0  0  0  0  0  0  0  0
  -11.7586    4.0057    0.2814 O   0  0  0  0  0  0  0  0  0  0  0  0
  -13.6946    2.6750    1.3226 O   0  5  0  0  0  0  0  0  0  0  0  0
  -14.1767    4.5447   -0.3036 O   0  0  0  0  0  0  0  0  0  0  0  0
  -14.2129    1.5918   -1.4549 C   0  0  0  0  0  0  0  0  0  0  0  0
  -13.0889    2.3630   -0.9964 O   0  0  0  0  0  0  0  0  0  0  0  0
  -13.7472    0.5478   -2.4742 C   0  0  1  0  0  0  0  0  0  0  0  0
  -13.0850    1.1513   -3.5928 O   0  0  0  0  0  0  0  0  0  0  0  0
  -12.7751   -0.4852   -1.9304 C   0  0  1  0  0  0  0  0  0  0  0  0
  -13.5168   -1.6052   -1.4384 O   0  0  0  0  0  0  0  0  0  0  0  0
  -11.9439   -0.8584   -3.1470 C   0  0  1  0  0  0  0  0  0  0  0  0
  -12.6289   -1.8356   -3.9432 O   0  0  0  0  0  0  0  0  0  0  0  0
  -11.9195    0.4107   -3.9757 C   0  0  2  0  0  0  0  0  0  0  0  0
   -7.0827    1.4334   -5.2469 N   0  0  0  0  0  0  0  0  0  0  0  0
   -7.9199    0.4921   -5.7393 C   0  0  1  0  0  0  0  0  0  0  0  0
   -7.4834   -0.3319   -6.7186 N   0  0  0  0  0  0  0  0  0  0  0  0
   -9.1816    0.3660   -5.2656 N   0  0  0  0  0  0  0  0  0  0  0  0
   -9.6129    1.1939   -4.2841 C   0  0  1  0  0  0  0  0  0  0  0  0
   -8.7789    2.1629   -3.7617 C   0  0  2  0  0  0  0  0  0  0  0  0
   -7.4883    2.2723   -4.2660 C   0  0  0  0  0  0  0  0  0  0  0  0
   -6.7029    3.1332   -3.8226 O   0  0  0  0  0  0  0  0  0  0  0  0
   -9.4748    2.8182   -2.8103 N   0  0  0  0  0  0  0  0  0  0  0  0
  -10.7113    2.2708   -2.7529 C   0  0  0  0  0  0  0  0  0  0  0  0
  -10.7774    1.2872   -3.6557 N   0  0  1  0  0  0  0  0  0  0  0  0
  1  2  1  1  0  0  0
  1  3  1  0  0  0  0
  1  4  2  0  0  0  0
  1  6  1  0  0  0  0
  5  6  1  0  0  0  0
  7  5  1  1  0  0  0
  7  8  1  0  0  0  0
  7  9  1  0  0  0  0
  9 10  1  6  0  0  0
  9 11  1  0  0  0  0
 11 12  1  6  0  0  0
 11 13  1  0  0  0  0
 13  8  1  1  0  0  0
 13 24  1  0  0  0  0
 14 15  1  0  0  0  0
 14 20  1  0  0  0  0
 15 16  1  1  0  0  0
 15 17  1  0  0  0  0
 18 17  1  6  0  0  0
 18 19  1  0  0  0  0
 18 24  1  0  0  0  0
 19 20  1  1  0  0  0
 19 22  1  0  0  0  0
 20 21  2  0  0  0  0
 22 23  1  0  0  0  0
 24 23  1  6  0  0  0
M  CHG  1   3  -1
M  END
>  <CHROM.1>
179.90282689,-57.80646860,-175.65950023,-154.50385084,-11.24234267,1.50732976
-2.66661224,-2.57322161,-0.50280587,-2.52163032

>  <Name>
ligand

>  <RI>
0

>  <Rbt.Current_Directory>
/home/itssahil/PROJECTS/Mol_Feturizer/New_Systems/rnas/3SLQ

>  <Rbt.Executable>
rbdock ($Id: //depot/dev/client3/rdock/2013.1/src/exe/rbdock.cxx#4 $)

>  <Rbt.Library>
libRbt.so (2013.1, Build901 2013/11/27)

>  <Rbt.Parameter_File>
/export/apps/rDock/src/rDock_2013.1_src/data/scripts/dock_solv.prm

>  <Rbt.Receptor>
prm/blind_docking_20.prm

>  <SCORE>
-19.7711

>  <SCORE.INTER>
-13.2137

>  <SCORE.INTER.CONST>
1

>  <SCORE.INTER.POLAR>
0

>  <SCORE.INTER.ROT>
4

>  <SCORE.INTER.SOLV>
13.0155

>  <SCORE.INTER.VDW>
-19.4143

>  <SCORE.INTER.norm>
-0.550573

>  <SCORE.INTRA>
-6.55736

>  <SCORE.INTRA.DIHEDRAL>
-11.9217

>  <SCORE.INTRA.DIHEDRAL.0>
13.2525

>  <SCORE.INTRA.POLAR>
0

>  <SCORE.INTRA.POLAR.0>
0

>  <SCORE.INTRA.REPUL>
0

>  <SCORE.INTRA.REPUL.0>
0

>  <SCORE.INTRA.SOLV>
0.631341

>  <SCORE.INTRA.SOLV.lig_0>
-70.7221

>  <SCORE.INTRA.VDW>
-0.912207

>  <SCORE.INTRA.VDW.0>
-1.46337

>  <SCORE.INTRA.norm>
-0.273223

>  <SCORE.RESTR>
0

>  <SCORE.RESTR.CAVITY>
0

>  <SCORE.RESTR.norm>
0

>  <SCORE.SYSTEM>
0

>  <SCORE.SYSTEM.CONST>
0

>  <SCORE.SYSTEM.DIHEDRAL>
0

>  <SCORE.SYSTEM.SOLV>
0

>  <SCORE.SYSTEM.norm>
0

>  <SCORE.heavy>
24

>  <SCORE.norm>
-0.823796

>  <RMSD>
16.457

$$$$
ligand
 OpenBabel11021811483D
libRbt.so/2013.1/901 2013/11/27
 24 26  0  0  0  0  0  0  0  0999 V2000
  -13.2182    3.4728    0.1578 P   0  0  1  0  0  0  0  0  0  0  0  0
  -11.8084    4.0123    0.2719 O   0  0  0  0  0  0  0  0  0  0  0  0
  -13.7081    2.6282    1.3104 O   0  5  0  0  0  0  0  0  0  0  0  0
  -14.2415    4.5052   -0.2911 O   0  0  0  0  0  0  0  0  0  0  0  0
  -14.2215    1.5656   -1.4760 C   0  0  0  0  0  0  0  0  0  0  0  0
  -13.1113    2.3556   -1.0159 O   0  0  0  0  0  0  0  0  0  0  0  0
  -13.7381    0.5353   -2.5010 C   0  0  1  0  0  0  0  0  0  0  0  0
  -13.0747    1.1553   -3.6099 O   0  0  0  0  0  0  0  0  0  0  0  0
  -12.7589   -0.4922   -1.9595 C   0  0  1  0  0  0  0  0  0  0  0  0
  -13.4921   -1.6241   -1.4820 O   0  0  0  0  0  0  0  0  0  0  0  0
  -11.9157   -0.8462   -3.1735 C   0  0  1  0  0  0  0  0  0  0  0  0
  -12.5852   -1.8237   -3.9827 O   0  0  0  0  0  0  0  0  0  0  0  0
  -11.8991    0.4301   -3.9912 C   0  0  2  0  0  0  0  0  0  0  0  0
   -7.0591    1.5020   -5.2087 N   0  0  0  0  0  0  0  0  0  0  0  0
   -7.8826    0.5551   -5.7134 C   0  0  1  0  0  0  0  0  0  0  0  0
   -7.4285   -0.2608   -6.6915 N   0  0  0  0  0  0  0  0  0  0  0  0
   -9.1478    0.4156   -5.2532 N   0  0  0  0  0  0  0  0  0  0  0  0
   -9.5966    1.2355   -4.2729 C   0  0  1  0  0  0  0  0  0  0  0  0
   -8.7770    2.2099   -3.7381 C   0  0  2  0  0  0  0  0  0  0  0  0
   -7.4823    2.3332   -4.2286 C   0  0  0  0  0  0  0  0  0  0  0  0
   -6.7094    3.1994   -3.7737 O   0  0  0  0  0  0  0  0  0  0  0  0
   -9.4885    2.8549   -2.7912 N   0  0  0  0  0  0  0  0  0  0  0  0
  -10.7205    2.2961   -2.7486 C   0  0  0  0  0  0  0  0  0  0  0  0
  -10.7683    1.3156   -3.6561 N   0  0  1  0  0  0  0  0  0  0  0  0
  1  2  1  1  0  0  0
  1  3  1  0  0  0  0
  1  4  2  0  0  0  0
  1  6  1  0  0  0  0
  5  6  1  0  0  0  0
  7  5  1  1  0  0  0
  7  8  1  0  0  0  0
  7  9  1  0  0  0  0
  9 10  1  6  0  0  0
  9 11  1  0  0  0  0
 11 12  1  6  0  0  0
 11 13  1  0  0  0  0
 13  8  1  1  0  0  0
 13 24  1  0  0  0  0
 14 15  1  0  0  0  0
 14 20  1  0  0  0  0
 15 16  1  1  0  0  0
 15 17  1  0  0  0  0
 18 17  1  6  0  0  0
 18 19  1  0  0  0  0
 18 24  1  0  0  0  0
 19 20  1  1  0  0  0
 19 22  1  0  0  0  0
 20 21  2  0  0  0  0
 22 23  1  0  0  0  0
 24 23  1  6  0  0  0
M  CHG  1   3  -1
M  END
>  <CHROM.1>
179.91585130,-57.08717088,-175.16477300,-154.83904161,-11.24090843,1.52176410
-2.66790379,-2.58762436,-0.50128153,-2.52250710

>  <Name>
ligand

>  <RI>
0

>  <Rbt.Current_Directory>
/home/itssahil/PROJECTS/Mol_Feturizer/New_Systems/rnas/3SLQ

>  <Rbt.Executable>
rbdock ($Id: //depot/dev/client3/rdock/2013.1/src/exe/rbdock.cxx#4 $)

>  <Rbt.Library>
libRbt.so (2013.1, Build901 2013/11/27)

>  <Rbt.Parameter_File>
/export/apps/rDock/src/rDock_2013.1_src/data/scripts/dock_solv.prm

>  <Rbt.Receptor>
prm/blind_docking_60.prm

>  <SCORE>
-19.7261

>  <SCORE.INTER>
-13.1885

>  <SCORE.INTER.CONST>
1

>  <SCORE.INTER.POLAR>
0

>  <SCORE.INTER.ROT>
4

>  <SCORE.INTER.SOLV>
13.1239

>  <SCORE.INTER.VDW>
-19.4336

>  <SCORE.INTER.norm>
-0.549521

>  <SCORE.INTRA>
-6.53764

>  <SCORE.INTRA.DIHEDRAL>
-11.8864

>  <SCORE.INTRA.DIHEDRAL.0>
13.2525

>  <SCORE.INTRA.POLAR>
0

>  <SCORE.INTRA.POLAR.0>
0

>  <SCORE.INTRA.REPUL>
0

>  <SCORE.INTRA.REPUL.0>
0

>  <SCORE.INTRA.SOLV>
0.636559

>  <SCORE.INTRA.SOLV.lig_0>
-70.7221

>  <SCORE.INTRA.VDW>
-0.912711

>  <SCORE.INTRA.VDW.0>
-1.46337

>  <SCORE.INTRA.norm>
-0.272402

>  <SCORE.RESTR>
0

>  <SCORE.RESTR.CAVITY>
0

>  <SCORE.RESTR.norm>
0

>  <SCORE.SYSTEM>
0

>  <SCORE.SYSTEM.CONST>
0

>  <SCORE.SYSTEM.DIHEDRAL>
0

>  <SCORE.SYSTEM.SOLV>
0

>  <SCORE.SYSTEM.norm>
0

>  <SCORE.heavy>
24

>  <SCORE.norm>
-0.821922

>  <RMSD>
16.458

$$$$
ligand
 OpenBabel11021811483D
libRbt.so/2013.1/901 2013/11/27
 24 26  0  0  0  0  0  0  0  0999 V2000
  -13.1964    3.5094    0.1453 P   0  0  1  0  0  0  0  0  0  0  0  0
  -11.7846    4.0476    0.2386 O   0  0  0  0  0  0  0  0  0  0  0  0
  -13.6801    2.6894    1.3181 O   0  5  0  0  0  0  0  0  0  0  0  0
  -14.2205    4.5350   -0.3173 O   0  0  0  0  0  0  0  0  0  0  0  0
  -14.2201    1.5871   -1.4580 C   0  0  0  0  0  0  0  0  0  0  0  0
  -13.1004    2.3684   -1.0064 O   0  0  0  0  0  0  0  0  0  0  0  0
  -13.7499    0.5422   -2.4743 C   0  0  1  0  0  0  0  0  0  0  0  0
  -13.0877    1.1452   -3.5932 O   0  0  0  0  0  0  0  0  0  0  0  0
  -12.7758   -0.4869   -1.9269 C   0  0  1  0  0  0  0  0  0  0  0  0
  -13.5152   -1.6080   -1.4336 O   0  0  0  0  0  0  0  0  0  0  0  0
  -11.9417   -0.8604   -3.1414 C   0  0  1  0  0  0  0  0  0  0  0  0
  -12.6228   -1.8412   -3.9365 O   0  0  0  0  0  0  0  0  0  0  0  0
  -11.9196    0.4069   -3.9727 C   0  0  2  0  0  0  0  0  0  0  0  0
   -7.0850    1.4432   -5.2415 N   0  0  0  0  0  0  0  0  0  0  0  0
   -7.9190    0.4988   -5.7335 C   0  0  1  0  0  0  0  0  0  0  0  0
   -7.4792   -0.3248   -6.7117 N   0  0  0  0  0  0  0  0  0  0  0  0
   -9.1806    0.3693   -5.2606 N   0  0  0  0  0  0  0  0  0  0  0  0
   -9.6151    1.1970   -4.2803 C   0  0  1  0  0  0  0  0  0  0  0  0
   -8.7845    2.1691   -3.7584 C   0  0  2  0  0  0  0  0  0  0  0  0
   -7.4939    2.2819   -4.2618 C   0  0  0  0  0  0  0  0  0  0  0  0
   -6.7114    3.1457   -3.8187 O   0  0  0  0  0  0  0  0  0  0  0  0
   -9.4831    2.8232   -2.8081 N   0  0  0  0  0  0  0  0  0  0  0  0
  -10.7180    2.2721   -2.7510 C   0  0  0  0  0  0  0  0  0  0  0  0
  -10.7804    1.2873   -3.6529 N   0  0  1  0  0  0  0  0  0  0  0  0
  1  2  1  1  0  0  0
  1  3  1  0  0  0  0
  1  4  2  0  0  0  0
  1  6  1  0  0  0  0
  5  6  1  0  0  0  0
  7  5  1  1  0  0  0
  7  8  1  0  0  0  0
  7  9  1  0  0  0  0
  9 10  1  6  0  0  0
  9 11  1  0  0  0  0
 11 12  1  6  0  0  0
 11 13  1  0  0  0  0
 13  8  1  1  0  0  0
 13 24  1  0  0  0  0
 14 15  1  0  0  0  0
 14 20  1  0  0  0  0
 15 16  1  1  0  0  0
 15 17  1  0  0  0  0
 18 17  1  6  0  0  0
 18 19  1  0  0  0  0
 18 24  1  0  0  0  0
 19 20  1  1  0  0  0
 19 22  1  0  0  0  0
 20 21  2  0  0  0  0
 22 23  1  0  0  0  0
 24 23  1  6  0  0  0
M  CHG  1   3  -1
M  END
>  <CHROM.1>
-179.02956319,-57.41065451,-175.91245154,-154.42448307,-11.24834708,1.51203572
-2.66893424,-2.57771623,-0.50321397,-2.52830614

>  <Name>
ligand

>  <RI>
0

>  <Rbt.Current_Directory>
/home/itssahil/PROJECTS/Mol_Feturizer/New_Systems/rnas/3SLQ

>  <Rbt.Executable>
rbdock ($Id: //depot/dev/client3/rdock/2013.1/src/exe/rbdock.cxx#4 $)

>  <Rbt.Library>
libRbt.so (2013.1, Build901 2013/11/27)

>  <Rbt.Parameter_File>
/export/apps/rDock/src/rDock_2013.1_src/data/scripts/dock_solv.prm

>  <Rbt.Receptor>
prm/blind_docking_20.prm

>  <SCORE>
-19.7424

>  <SCORE.INTER>
-13.1754

>  <SCORE.INTER.CONST>
1

>  <SCORE.INTER.POLAR>
0

>  <SCORE.INTER.ROT>
4

>  <SCORE.INTER.SOLV>
13.0813

>  <SCORE.INTER.VDW>
-19.4107

>  <SCORE.INTER.norm>
-0.548975

>  <SCORE.INTRA>
-6.56697

>  <SCORE.INTRA.DIHEDRAL>
-11.9235

>  <SCORE.INTRA.DIHEDRAL.0>
13.2525

>  <SCORE.INTRA.POLAR>
0

>  <SCORE.INTRA.POLAR.0>
0

>  <SCORE.INTRA.REPUL>
0

>  <SCORE.INTRA.REPUL.0>
0

>  <SCORE.INTRA.SOLV>
0.63005

>  <SCORE.INTRA.SOLV.lig_0>
-70.7221

>  <SCORE.INTRA.VDW>
-0.920241

>  <SCORE.INTRA.VDW.0>
-1.46337

>  <SCORE.INTRA.norm>
-0.273624

>  <SCORE.RESTR>
0

>  <SCORE.RESTR.CAVITY>
0

>  <SCORE.RESTR.norm>
0

>  <SCORE.SYSTEM>
0

>  <SCORE.SYSTEM.CONST>
0

>  <SCORE.SYSTEM.DIHEDRAL>
0

>  <SCORE.SYSTEM.SOLV>
0

>  <SCORE.SYSTEM.norm>
0

>  <SCORE.heavy>
24

>  <SCORE.norm>
-0.822599

>  <RMSD>
16.462

$$$$
ligand
 OpenBabel11021811483D
libRbt.so/2013.1/901 2013/11/27
 24 26  0  0  0  0  0  0  0  0999 V2000
  -13.2322    3.5021    0.1196 P   0  0  1  0  0  0  0  0  0  0  0  0
  -14.4001    4.3525   -0.3326 O   0  0  0  0  0  0  0  0  0  0  0  0
  -11.8654    4.1392    0.0317 O   0  5  0  0  0  0  0  0  0  0  0  0
  -13.4633    2.7862    1.4419 O   0  0  0  0  0  0  0  0  0  0  0  0
  -14.2185    1.5647   -1.4888 C   0  0  0  0  0  0  0  0  0  0  0  0
  -13.1134    2.3637   -1.0324 O   0  0  0  0  0  0  0  0  0  0  0  0
  -13.7300    0.5374   -2.5144 C   0  0  1  0  0  0  0  0  0  0  0  0
  -13.0668    1.1611   -3.6213 O   0  0  0  0  0  0  0  0  0  0  0  0
  -12.7483   -0.4876   -1.9727 C   0  0  1  0  0  0  0  0  0  0  0  0
  -13.4785   -1.6225   -1.4980 O   0  0  0  0  0  0  0  0  0  0  0  0
  -11.9018   -0.8371   -3.1858 C   0  0  1  0  0  0  0  0  0  0  0  0
  -12.5667   -1.8156   -3.9974 O   0  0  0  0  0  0  0  0  0  0  0  0
  -11.8881    0.4404   -4.0016 C   0  0  2  0  0  0  0  0  0  0  0  0
   -7.0465    1.5235   -5.2026 N   0  0  0  0  0  0  0  0  0  0  0  0
   -7.8657    0.5739   -5.7093 C   0  0  1  0  0  0  0  0  0  0  0  0
   -7.4059   -0.2419   -6.6847 N   0  0  0  0  0  0  0  0  0  0  0  0
   -9.1323    0.4316   -5.2535 N   0  0  0  0  0  0  0  0  0  0  0  0
   -9.5868    1.2515   -4.2758 C   0  0  1  0  0  0  0  0  0  0  0  0
   -8.7716    2.2286   -3.7391 C   0  0  2  0  0  0  0  0  0  0  0  0
   -7.4755    2.3547   -4.2251 C   0  0  0  0  0  0  0  0  0  0  0  0
   -6.7065    3.2234   -3.7683 O   0  0  0  0  0  0  0  0  0  0  0  0
   -9.4882    2.8729   -2.7956 N   0  0  0  0  0  0  0  0  0  0  0  0
  -10.7189    2.3109   -2.7569 C   0  0  0  0  0  0  0  0  0  0  0  0
  -10.7609    1.3293   -3.6634 N   0  0  1  0  0  0  0  0  0  0  0  0
  1  2  1  6  0  0  0
  1  3  1  0  0  0  0
  1  4  2  0  0  0  0
  1  6  1  0  0  0  0
  5  6  1  0  0  0  0
  7  5  1  1  0  0  0
  7  8  1  0  0  0  0
  7  9  1  0  0  0  0
  9 10  1  6  0  0  0
  9 11  1  0  0  0  0
 11 12  1  6  0  0  0
 11 13  1  0  0  0  0
 13  8  1  1  0  0  0
 13 24  1  0  0  0  0
 14 15  1  0  0  0  0
 14 20  1  0  0  0  0
 15 16  1  1  0  0  0
 15 17  1  0  0  0  0
 18 17  1  6  0  0  0
 18 19  1  0  0  0  0
 18 24  1  0  0  0  0
 19 20  1  1  0  0  0
 19 22  1  0  0  0  0
 20 21  2  0  0  0  0
 22 23  1  0  0  0  0
 24 23  1  6  0  0  0
M  CHG  1   3  -1
M  END
>  <CHROM.1>
-50.84806628,-56.70413912,-176.47337855,-155.02797570,-11.23359528,1.53984330
-2.68284226,-2.59046934,-0.49857287,-2.52663173

>  <Name>
ligand

>  <RI>
0

>  <Rbt.Current_Directory>
/home/itssahil/PROJECTS/Mol_Feturizer/New_Systems/rnas/3SLQ

>  <Rbt.Executable>
rbdock ($Id: //depot/dev/client3/rdock/2013.1/src/exe/rbdock.cxx#4 $)

>  <Rbt.Library>
libRbt.so (2013.1, Build901 2013/11/27)

>  <Rbt.Parameter_File>
/export/apps/rDock/src/rDock_2013.1_src/data/scripts/dock_solv.prm

>  <Rbt.Receptor>
prm/blind_docking_100.prm

>  <SCORE>
-19.6551

>  <SCORE.INTER>
-12.9514

>  <SCORE.INTER.CONST>
1

>  <SCORE.INTER.POLAR>
0

>  <SCORE.INTER.ROT>
4

>  <SCORE.INTER.SOLV>
13.7116

>  <SCORE.INTER.VDW>
-19.4715

>  <SCORE.INTER.norm>
-0.539641

>  <SCORE.INTRA>
-6.70366

>  <SCORE.INTRA.DIHEDRAL>
-11.7945

>  <SCORE.INTRA.DIHEDRAL.0>
13.2525

>  <SCORE.INTRA.POLAR>
0

>  <SCORE.INTRA.POLAR.0>
0

>  <SCORE.INTRA.REPUL>
0

>  <SCORE.INTRA.REPUL.0>
0

>  <SCORE.INTRA.SOLV>
0.248079

>  <SCORE.INTRA.SOLV.lig_0>
-70.7221

>  <SCORE.INTRA.VDW>
-0.930469

>  <SCORE.INTRA.VDW.0>
-1.46337

>  <SCORE.INTRA.norm>
-0.279319

>  <SCORE.RESTR>
0

>  <SCORE.RESTR.CAVITY>
0

>  <SCORE.RESTR.norm>
0

>  <SCORE.SYSTEM>
0

>  <SCORE.SYSTEM.CONST>
0

>  <SCORE.SYSTEM.DIHEDRAL>
0

>  <SCORE.SYSTEM.SOLV>
0

>  <SCORE.SYSTEM.norm>
0

>  <SCORE.heavy>
24

>  <SCORE.norm>
-0.818961

>  <RMSD>
16.481

$$$$
ligand
 OpenBabel11021811483D
libRbt.so/2013.1/901 2013/11/27
 24 26  0  0  0  0  0  0  0  0999 V2000
  -13.1625    3.3328    0.0978 P   0  0  1  0  0  0  0  0  0  0  0  0
  -13.2477    2.4333    1.3124 O   0  0  0  0  0  0  0  0  0  0  0  0
  -14.4276    4.0640   -0.2848 O   0  5  0  0  0  0  0  0  0  0  0  0
  -11.9351    4.2315    0.0781 O   0  0  0  0  0  0  0  0  0  0  0  0
  -14.0666    1.4010   -1.5649 C   0  0  0  0  0  0  0  0  0  0  0  0
  -13.0220    2.2951   -1.1434 O   0  0  0  0  0  0  0  0  0  0  0  0
  -13.5302    0.4375   -2.6277 C   0  0  1  0  0  0  0  0  0  0  0  0
  -12.8930    1.1331   -3.7067 O   0  0  0  0  0  0  0  0  0  0  0  0
  -12.5049   -0.5630   -2.1224 C   0  0  1  0  0  0  0  0  0  0  0  0
  -13.1848   -1.7472   -1.6954 O   0  0  0  0  0  0  0  0  0  0  0  0
  -11.6408   -0.8267   -3.3448 C   0  0  1  0  0  0  0  0  0  0  0  0
  -12.2593   -1.8013   -4.1967 O   0  0  0  0  0  0  0  0  0  0  0  0
  -11.6824    0.4811   -4.1101 C   0  0  2  0  0  0  0  0  0  0  0  0
   -6.8955    1.8336   -5.2561 N   0  0  0  0  0  0  0  0  0  0  0  0
   -7.6706    0.8699   -5.8037 C   0  0  1  0  0  0  0  0  0  0  0  0
   -7.1743    0.1177   -6.8118 N   0  0  0  0  0  0  0  0  0  0  0  0
   -8.9292    0.6508   -5.3565 N   0  0  0  0  0  0  0  0  0  0  0  0
   -9.4205    1.4072   -4.3459 C   0  0  1  0  0  0  0  0  0  0  0  0
   -8.6507    2.3970   -3.7672 C   0  0  2  0  0  0  0  0  0  0  0  0
   -7.3618    2.6024   -4.2452 C   0  0  0  0  0  0  0  0  0  0  0  0
   -6.6331    3.4853   -3.7510 O   0  0  0  0  0  0  0  0  0  0  0  0
   -9.3958    2.9676   -2.7986 N   0  0  0  0  0  0  0  0  0  0  0  0
  -10.5995    2.3489   -2.7857 C   0  0  0  0  0  0  0  0  0  0  0  0
  -10.5969    1.4055   -3.7328 N   0  0  1  0  0  0  0  0  0  0  0  0
  1  2  1  1  0  0  0
  1  3  1  0  0  0  0
  1  4  2  0  0  0  0
  1  6  1  0  0  0  0
  5  6  1  0  0  0  0
  7  5  1  1  0  0  0
  7  8  1  0  0  0  0
  7  9  1  0  0  0  0
  9 10  1  6  0  0  0
  9 11  1  0  0  0  0
 11 12  1  6  0  0  0
 11 13  1  0  0  0  0
 13  8  1  1  0  0  0
 13 24  1  0  0  0  0
 14 15  1  0  0  0  0
 14 20  1  0  0  0  0
 15 16  1  1  0  0  0
 15 17  1  0  0  0  0
 18 17  1  6  0  0  0
 18 19  1  0  0  0  0
 18 24  1  0  0  0  0
 19 20  1  1  0  0  0
 19 22  1  0  0  0  0
 20 21  2  0  0  0  0
 22 23  1  0  0  0  0
 24 23  1  6  0  0  0
M  CHG  1   3  -1
M  END
>  <CHROM.1>
67.50422206,-52.53518368,-172.14662959,-154.79840668,-11.08308181,1.56423504
-2.75692485,-2.63823761,-0.52262624,-2.51608578

>  <Name>
ligand

>  <RI>
0

>  <Rbt.Current_Directory>
/home/itssahil/PROJECTS/Mol_Feturizer/New_Systems/rnas/3SLQ

>  <Rbt.Executable>
rbdock ($Id: //depot/dev/client3/rdock/2013.1/src/exe/rbdock.cxx#4 $)

>  <Rbt.Library>
libRbt.so (2013.1, Build901 2013/11/27)

>  <Rbt.Parameter_File>
/export/apps/rDock/src/rDock_2013.1_src/data/scripts/dock_solv.prm

>  <Rbt.Receptor>
prm/blind_docking_60.prm

>  <SCORE>
-19.4446

>  <SCORE.INTER>
-13.0619

>  <SCORE.INTER.CONST>
1

>  <SCORE.INTER.POLAR>
0

>  <SCORE.INTER.ROT>
4

>  <SCORE.INTER.SOLV>
13.499

>  <SCORE.INTER.VDW>
-19.4743

>  <SCORE.INTER.norm>
-0.544247

>  <SCORE.INTRA>
-6.3827

>  <SCORE.INTRA.DIHEDRAL>
-11.4402

>  <SCORE.INTRA.DIHEDRAL.0>
13.2525

>  <SCORE.INTRA.POLAR>
0

>  <SCORE.INTRA.POLAR.0>
0

>  <SCORE.INTRA.REPUL>
0

>  <SCORE.INTRA.REPUL.0>
0

>  <SCORE.INTRA.SOLV>
0.327873

>  <SCORE.INTRA.SOLV.lig_0>
-70.7221

>  <SCORE.INTRA.VDW>
-0.826517

>  <SCORE.INTRA.VDW.0>
-1.46337

>  <SCORE.INTRA.norm>
-0.265946

>  <SCORE.RESTR>
0

>  <SCORE.RESTR.CAVITY>
0

>  <SCORE.RESTR.norm>
0

>  <SCORE.SYSTEM>
0

>  <SCORE.SYSTEM.CONST>
0

>  <SCORE.SYSTEM.DIHEDRAL>
0

>  <SCORE.SYSTEM.SOLV>
0

>  <SCORE.SYSTEM.norm>
0

>  <SCORE.heavy>
24

>  <SCORE.norm>
-0.810193

>  <RMSD>
16.492

$$$$
ligand
 OpenBabel11021811483D
libRbt.so/2013.1/901 2013/11/27
 24 26  0  0  0  0  0  0  0  0999 V2000
   -8.1420   -2.8106   -5.9327 P   0  0  1  0  0  0  0  0  0  0  0  0
   -7.0358   -3.3437   -5.0475 O   0  0  0  0  0  0  0  0  0  0  0  0
   -8.2974   -1.3088   -5.9806 O   0  5  0  0  0  0  0  0  0  0  0  0
   -8.1942   -3.4513   -7.3116 O   0  0  0  0  0  0  0  0  0  0  0  0
   -9.9435   -2.6281   -3.9240 C   0  0  0  0  0  0  0  0  0  0  0  0
   -9.5012   -3.2337   -5.1511 O   0  0  0  0  0  0  0  0  0  0  0  0
  -10.5930   -1.2723   -4.2168 C   0  0  1  0  0  0  0  0  0  0  0  0
  -12.0237   -1.3563   -4.2271 O   0  0  0  0  0  0  0  0  0  0  0  0
  -10.2537   -0.1745   -3.2231 C   0  0  1  0  0  0  0  0  0  0  0  0
   -9.0907    0.5215   -3.6812 O   0  0  0  0  0  0  0  0  0  0  0  0
  -11.4843    0.7170   -3.2525 C   0  0  1  0  0  0  0  0  0  0  0  0
  -11.4226    1.6224   -4.3637 O   0  0  0  0  0  0  0  0  0  0  0  0
  -12.6205   -0.2390   -3.5572 C   0  0  2  0  0  0  0  0  0  0  0  0
  -14.9424    1.0518    0.8017 N   0  0  0  0  0  0  0  0  0  0  0  0
  -14.4273    1.8451   -0.1652 C   0  0  1  0  0  0  0  0  0  0  0  0
  -14.5080    3.1881   -0.0291 N   0  0  0  0  0  0  0  0  0  0  0  0
  -13.8354    1.3135   -1.2602 N   0  0  0  0  0  0  0  0  0  0  0  0
  -13.7571   -0.0325   -1.3904 C   0  0  1  0  0  0  0  0  0  0  0  0
  -14.2731   -0.8664   -0.4180 C   0  0  2  0  0  0  0  0  0  0  0  0
  -14.8766   -0.2954    0.6964 C   0  0  0  0  0  0  0  0  0  0  0  0
  -15.3552   -1.0117    1.5978 O   0  0  0  0  0  0  0  0  0  0  0  0
  -14.0446   -2.1344   -0.8167 N   0  0  0  0  0  0  0  0  0  0  0  0
  -13.4094   -2.0832   -2.0107 C   0  0  0  0  0  0  0  0  0  0  0  0
  -13.2447   -0.7992   -2.3440 N   0  0  1  0  0  0  0  0  0  0  0  0
  1  2  1  1  0  0  0
  1  3  1  0  0  0  0
  1  4  2  0  0  0  0
  1  6  1  0  0  0  0
  5  6  1  0  0  0  0
  7  5  1  1  0  0  0
  7  8  1  0  0  0  0
  7  9  1  0  0  0  0
  9 10  1  6  0  0  0
  9 11  1  0  0  0  0
 11 12  1  6  0  0  0
 11 13  1  0  0  0  0
 13  8  1  6  0  0  0
 13 24  1  0  0  0  0
 14 15  1  0  0  0  0
 14 20  1  0  0  0  0
 15 16  1  1  0  0  0
 15 17  1  0  0  0  0
 18 17  1  6  0  0  0
 18 19  1  0  0  0  0
 18 24  1  0  0  0  0
 19 20  1  1  0  0  0
 19 22  1  0  0  0  0
 20 21  2  0  0  0  0
 22 23  1  0  0  0  0
 24 23  1  6  0  0  0
M  CHG  1   3  -1
M  END
>  <CHROM.1>
71.23780048,99.85684726,78.35079818,171.65854343,-11.57164932,-0.85039330
-2.98888184,0.31019757,-0.75839684,3.09201138

>  <Name>
ligand

>  <RI>
0

>  <Rbt.Current_Directory>
/home/itssahil/PROJECTS/Mol_Feturizer/New_Systems/rnas/3SLQ

>  <Rbt.Executable>
rbdock ($Id: //depot/dev/client3/rdock/2013.1/src/exe/rbdock.cxx#4 $)

>  <Rbt.Library>
libRbt.so (2013.1, Build901 2013/11/27)

>  <Rbt.Parameter_File>
/export/apps/rDock/src/rDock_2013.1_src/data/scripts/dock_solv.prm

>  <Rbt.Receptor>
prm/blind_docking_80.prm

>  <SCORE>
-17.1596

>  <SCORE.INTER>
-15.0317

>  <SCORE.INTER.CONST>
1

>  <SCORE.INTER.POLAR>
0

>  <SCORE.INTER.ROT>
4

>  <SCORE.INTER.SOLV>
13.1209

>  <SCORE.INTER.VDW>
-20.6614

>  <SCORE.INTER.norm>
-0.626319

>  <SCORE.INTRA>
-2.12798

>  <SCORE.INTRA.DIHEDRAL>
-6.37845

>  <SCORE.INTRA.DIHEDRAL.0>
13.2525

>  <SCORE.INTRA.POLAR>
0

>  <SCORE.INTRA.POLAR.0>
0

>  <SCORE.INTRA.REPUL>
0

>  <SCORE.INTRA.REPUL.0>
0

>  <SCORE.INTRA.SOLV>
2.79042

>  <SCORE.INTRA.SOLV.lig_0>
-70.7221

>  <SCORE.INTRA.VDW>
-0.333965

>  <SCORE.INTRA.VDW.0>
-1.46337

>  <SCORE.INTRA.norm>
-0.0886659

>  <SCORE.RESTR>
0

>  <SCORE.RESTR.CAVITY>
0

>  <SCORE.RESTR.norm>
0

>  <SCORE.SYSTEM>
0

>  <SCORE.SYSTEM.CONST>
0

>  <SCORE.SYSTEM.DIHEDRAL>
0

>  <SCORE.SYSTEM.SOLV>
0

>  <SCORE.SYSTEM.norm>
0

>  <SCORE.heavy>
24

>  <SCORE.norm>
-0.714985

>  <RMSD>
16.513

$$$$
ligand
 OpenBabel11021811483D
libRbt.so/2013.1/901 2013/11/27
 24 26  0  0  0  0  0  0  0  0999 V2000
  -13.8943   -0.5309   -2.3693 P   0  0  1  0  0  0  0  0  0  0  0  0
  -14.8519   -0.6109   -3.5390 O   0  0  0  0  0  0  0  0  0  0  0  0
  -13.6796    0.8395   -1.7712 O   0  5  0  0  0  0  0  0  0  0  0  0
  -14.1146   -1.6049   -1.3145 O   0  0  0  0  0  0  0  0  0  0  0  0
  -12.1087   -1.9873   -3.7850 C   0  0  0  0  0  0  0  0  0  0  0  0
  -12.4405   -0.8028   -3.0400 O   0  0  0  0  0  0  0  0  0  0  0  0
  -10.7424   -1.8152   -4.4554 C   0  0  1  0  0  0  0  0  0  0  0  0
  -10.6620   -0.5924   -5.1985 O   0  0  0  0  0  0  0  0  0  0  0  0
   -9.5614   -1.7932   -3.5001 C   0  0  1  0  0  0  0  0  0  0  0  0
   -9.0755   -3.1285   -3.3336 O   0  0  0  0  0  0  0  0  0  0  0  0
   -8.5474   -0.9167   -4.2170 C   0  0  1  0  0  0  0  0  0  0  0  0
   -7.8216   -1.6808   -5.1903 O   0  0  0  0  0  0  0  0  0  0  0  0
   -9.4000    0.0582   -5.0047 C   0  0  2  0  0  0  0  0  0  0  0  0
   -7.4293    4.5287   -3.5257 N   0  0  0  0  0  0  0  0  0  0  0  0
   -6.8560    3.5293   -4.2341 C   0  0  1  0  0  0  0  0  0  0  0  0
   -5.5771    3.6659   -4.6515 N   0  0  0  0  0  0  0  0  0  0  0  0
   -7.5434    2.4008   -4.5277 N   0  0  0  0  0  0  0  0  0  0  0  0
   -8.8240    2.2696   -4.1062 C   0  0  1  0  0  0  0  0  0  0  0  0
   -9.4338    3.2735   -3.3798 C   0  0  2  0  0  0  0  0  0  0  0  0
   -8.7065    4.4225   -3.0922 C   0  0  0  0  0  0  0  0  0  0  0  0
   -9.2188    5.3529   -2.4390 O   0  0  0  0  0  0  0  0  0  0  0  0
  -10.6868    2.8600   -3.1008 N   0  0  0  0  0  0  0  0  0  0  0  0
  -10.8481    1.6331   -3.6491 C   0  0  0  0  0  0  0  0  0  0  0  0
   -9.7074    1.2915   -4.2566 N   0  0  1  0  0  0  0  0  0  0  0  0
  1  2  1  6  0  0  0
  1  3  1  0  0  0  0
  1  4  2  0  0  0  0
  1  6  1  0  0  0  0
  5  6  1  0  0  0  0
  7  5  1  1  0  0  0
  7  8  1  0  0  0  0
  7  9  1  0  0  0  0
  9 10  1  6  0  0  0
  9 11  1  0  0  0  0
 11 12  1  6  0  0  0
 11 13  1  0  0  0  0
 13  8  1  1  0  0  0
 13 24  1  0  0  0  0
 14 15  1  0  0  0  0
 14 20  1  0  0  0  0
 15 16  1  1  0  0  0
 15 17  1  0  0  0  0
 18 17  1  6  0  0  0
 18 19  1  0  0  0  0
 18 24  1  0  0  0  0
 19 20  1  1  0  0  0
 19 22  1  0  0  0  0
 20 21  2  0  0  0  0
 22 23  1  0  0  0  0
 24 23  1  6  0  0  0
M  CHG  1   3  -1
M  END
>  <CHROM.1>
-57.66341037,-51.09522403,171.06344210,-167.38562475,-10.35582746,0.70428823
-3.56474119,2.50599955,-0.36040984,-2.92629721

>  <Name>
ligand

>  <RI>
0

>  <Rbt.Current_Directory>
/home/itssahil/PROJECTS/Mol_Feturizer/New_Systems/rnas/3SLQ

>  <Rbt.Executable>
rbdock ($Id: //depot/dev/client3/rdock/2013.1/src/exe/rbdock.cxx#4 $)

>  <Rbt.Library>
libRbt.so (2013.1, Build901 2013/11/27)

>  <Rbt.Parameter_File>
/export/apps/rDock/src/rDock_2013.1_src/data/scripts/dock_solv.prm

>  <Rbt.Receptor>
prm/blind_docking_60.prm

>  <SCORE>
-27.0766

>  <SCORE.INTER>
-20.7014

>  <SCORE.INTER.CONST>
1

>  <SCORE.INTER.POLAR>
0

>  <SCORE.INTER.ROT>
4

>  <SCORE.INTER.SOLV>
17.8619

>  <SCORE.INTER.VDW>
-26.0216

>  <SCORE.INTER.norm>
-0.862558

>  <SCORE.INTRA>
-6.49246

>  <SCORE.INTRA.DIHEDRAL>
-11.3619

>  <SCORE.INTRA.DIHEDRAL.0>
13.2525

>  <SCORE.INTRA.POLAR>
0

>  <SCORE.INTRA.POLAR.0>
0

>  <SCORE.INTRA.REPUL>
0

>  <SCORE.INTRA.REPUL.0>
0

>  <SCORE.INTRA.SOLV>
0.306953

>  <SCORE.INTRA.SOLV.lig_0>
-70.7221

>  <SCORE.INTRA.VDW>
-0.965011

>  <SCORE.INTRA.VDW.0>
-1.46337

>  <SCORE.INTRA.norm>
-0.270519

>  <SCORE.RESTR>
0.117296

>  <SCORE.RESTR.CAVITY>
0.117296

>  <SCORE.RESTR.norm>
0.00488732

>  <SCORE.SYSTEM>
0

>  <SCORE.SYSTEM.CONST>
0

>  <SCORE.SYSTEM.DIHEDRAL>
0

>  <SCORE.SYSTEM.SOLV>
0

>  <SCORE.SYSTEM.norm>
0

>  <SCORE.heavy>
24

>  <SCORE.norm>
-1.12819

>  <RMSD>
16.528

$$$$
ligand
 OpenBabel11021811483D
libRbt.so/2013.1/901 2013/11/27
 24 26  0  0  0  0  0  0  0  0999 V2000
  -13.7577   -0.3405   -2.1961 P   0  0  1  0  0  0  0  0  0  0  0  0
  -13.8097   -1.4211   -1.1373 O   0  0  0  0  0  0  0  0  0  0  0  0
  -14.7334   -0.4766   -3.3412 O   0  5  0  0  0  0  0  0  0  0  0  0
  -13.7022    1.0728   -1.6358 O   0  0  0  0  0  0  0  0  0  0  0  0
  -12.0792   -1.7853   -3.7481 C   0  0  0  0  0  0  0  0  0  0  0  0
  -12.3506   -0.6138   -2.9594 O   0  0  0  0  0  0  0  0  0  0  0  0
  -10.7248   -1.6395   -4.4483 C   0  0  1  0  0  0  0  0  0  0  0  0
  -10.6335   -0.4137   -5.1853 O   0  0  0  0  0  0  0  0  0  0  0  0
   -9.5224   -1.6505   -3.5199 C   0  0  1  0  0  0  0  0  0  0  0  0
   -9.0633   -2.9975   -3.3727 O   0  0  0  0  0  0  0  0  0  0  0  0
   -8.5053   -0.7921   -4.2541 C   0  0  1  0  0  0  0  0  0  0  0  0
   -7.8190   -1.5659   -5.2484 O   0  0  0  0  0  0  0  0  0  0  0  0
   -9.3530    0.2070   -5.0162 C   0  0  2  0  0  0  0  0  0  0  0  0
   -7.2556    4.6304   -3.5704 N   0  0  0  0  0  0  0  0  0  0  0  0
   -6.7218    3.6241   -4.2996 C   0  0  1  0  0  0  0  0  0  0  0  0
   -5.4526    3.7384   -4.7520 N   0  0  0  0  0  0  0  0  0  0  0  0
   -7.4388    2.5107   -4.5796 N   0  0  0  0  0  0  0  0  0  0  0  0
   -8.7095    2.4019   -4.1231 C   0  0  1  0  0  0  0  0  0  0  0  0
   -9.2792    3.4132   -3.3749 C   0  0  2  0  0  0  0  0  0  0  0  0
   -8.5220    4.5465   -3.1020 C   0  0  0  0  0  0  0  0  0  0  0  0
   -8.9978    5.4828   -2.4300 O   0  0  0  0  0  0  0  0  0  0  0  0
  -10.5318    3.0224   -3.0630 N   0  0  0  0  0  0  0  0  0  0  0  0
  -10.7320    1.8019   -3.6127 C   0  0  0  0  0  0  0  0  0  0  0  0
   -9.6155    1.4418   -4.2536 N   0  0  1  0  0  0  0  0  0  0  0  0
  1  2  1  1  0  0  0
  1  3  1  0  0  0  0
  1  4  2  0  0  0  0
  1  6  1  0  0  0  0
  5  6  1  0  0  0  0
  7  5  1  1  0  0  0
  7  8  1  0  0  0  0
  7  9  1  0  0  0  0
  9 10  1  6  0  0  0
  9 11  1  0  0  0  0
 11 12  1  6  0  0  0
 11 13  1  0  0  0  0
 13  8  1  1  0  0  0
 13 24  1  0  0  0  0
 14 15  1  0  0  0  0
 14 20  1  0  0  0  0
 15 16  1  1  0  0  0
 15 17  1  0  0  0  0
 18 17  1  6  0  0  0
 18 19  1  0  0  0  0
 18 24  1  0  0  0  0
 19 20  1  1  0  0  0
 19 22  1  0  0  0  0
 20 21  2  0  0  0  0
 22 23  1  0  0  0  0
 24 23  1  6  0  0  0
M  CHG  1   3  -1
M  END
>  <CHROM.1>
66.24407804,-52.64818765,173.52782929,-167.02106037,-10.25396801,0.85475164
-3.53505604,2.53102495,-0.39271071,-2.90902900

>  <Name>
ligand

>  <RI>
0

>  <Rbt.Current_Directory>
/home/itssahil/PROJECTS/Mol_Feturizer/New_Systems/rnas/3SLQ

>  <Rbt.Executable>
rbdock ($Id: //depot/dev/client3/rdock/2013.1/src/exe/rbdock.cxx#4 $)

>  <Rbt.Library>
libRbt.so (2013.1, Build901 2013/11/27)

>  <Rbt.Parameter_File>
/export/apps/rDock/src/rDock_2013.1_src/data/scripts/dock_solv.prm

>  <Rbt.Receptor>
prm/blind_docking_100.prm

>  <SCORE>
-25.7325

>  <SCORE.INTER>
-19.2942

>  <SCORE.INTER.CONST>
1

>  <SCORE.INTER.POLAR>
0

>  <SCORE.INTER.ROT>
4

>  <SCORE.INTER.SOLV>
20.5286

>  <SCORE.INTER.VDW>
-25.9723

>  <SCORE.INTER.norm>
-0.803925

>  <SCORE.INTRA>
-6.43833

>  <SCORE.INTRA.DIHEDRAL>
-11.5767

>  <SCORE.INTRA.DIHEDRAL.0>
13.2525

>  <SCORE.INTRA.POLAR>
0

>  <SCORE.INTRA.POLAR.0>
0

>  <SCORE.INTRA.REPUL>
0

>  <SCORE.INTRA.REPUL.0>
0

>  <SCORE.INTRA.SOLV>
0.400077

>  <SCORE.INTRA.SOLV.lig_0>
-70.7221

>  <SCORE.INTRA.VDW>
-0.849998

>  <SCORE.INTRA.VDW.0>
-1.46337

>  <SCORE.INTRA.norm>
-0.268264

>  <SCORE.RESTR>
0

>  <SCORE.RESTR.CAVITY>
0

>  <SCORE.RESTR.norm>
0

>  <SCORE.SYSTEM>
0

>  <SCORE.SYSTEM.CONST>
0

>  <SCORE.SYSTEM.DIHEDRAL>
0

>  <SCORE.SYSTEM.SOLV>
0

>  <SCORE.SYSTEM.norm>
0

>  <SCORE.heavy>
24

>  <SCORE.norm>
-1.07219

>  <RMSD>
16.534

$$$$
ligand
 OpenBabel11021811483D
libRbt.so/2013.1/901 2013/11/27
 24 26  0  0  0  0  0  0  0  0999 V2000
  -13.7832   -0.3341   -2.2580 P   0  0  1  0  0  0  0  0  0  0  0  0
  -13.8741   -1.4389   -1.2271 O   0  0  0  0  0  0  0  0  0  0  0  0
  -14.7398   -0.4245   -3.4235 O   0  5  0  0  0  0  0  0  0  0  0  0
  -13.7127    1.0640   -1.6622 O   0  0  0  0  0  0  0  0  0  0  0  0
  -12.0814   -1.8009   -3.7633 C   0  0  0  0  0  0  0  0  0  0  0  0
  -12.3673   -0.6147   -3.0022 O   0  0  0  0  0  0  0  0  0  0  0  0
  -10.7246   -1.6585   -4.4595 C   0  0  1  0  0  0  0  0  0  0  0  0
  -10.6270   -0.4317   -5.1940 O   0  0  0  0  0  0  0  0  0  0  0  0
   -9.5248   -1.6755   -3.5279 C   0  0  1  0  0  0  0  0  0  0  0  0
   -9.0708   -3.0243   -3.3820 O   0  0  0  0  0  0  0  0  0  0  0  0
   -8.5027   -0.8193   -4.2577 C   0  0  1  0  0  0  0  0  0  0  0  0
   -7.8164   -1.5936   -5.2516 O   0  0  0  0  0  0  0  0  0  0  0  0
   -9.3448    0.1842   -5.0202 C   0  0  2  0  0  0  0  0  0  0  0  0
   -7.2478    4.6125   -3.5888 N   0  0  0  0  0  0  0  0  0  0  0  0
   -6.7166    3.6073   -4.3214 C   0  0  1  0  0  0  0  0  0  0  0  0
   -5.4507    3.7244   -4.7822 N   0  0  0  0  0  0  0  0  0  0  0  0
   -7.4330    2.4923   -4.5965 N   0  0  0  0  0  0  0  0  0  0  0  0
   -8.7003    2.3806   -4.1316 C   0  0  1  0  0  0  0  0  0  0  0  0
   -9.2674    3.3908   -3.3798 C   0  0  2  0  0  0  0  0  0  0  0  0
   -8.5110    4.5257   -3.1120 C   0  0  0  0  0  0  0  0  0  0  0  0
   -8.9844    5.4611   -2.4370 O   0  0  0  0  0  0  0  0  0  0  0  0
  -10.5170    2.9972   -3.0596 N   0  0  0  0  0  0  0  0  0  0  0  0
  -10.7181    1.7761   -3.6078 C   0  0  0  0  0  0  0  0  0  0  0  0
   -9.6051    1.4184   -4.2561 N   0  0  1  0  0  0  0  0  0  0  0  0
  1  2  1  1  0  0  0
  1  3  1  0  0  0  0
  1  4  2  0  0  0  0
  1  6  1  0  0  0  0
  5  6  1  0  0  0  0
  7  5  1  1  0  0  0
  7  8  1  0  0  0  0
  7  9  1  0  0  0  0
  9 10  1  6  0  0  0
  9 11  1  0  0  0  0
 11 12  1  6  0  0  0
 11 13  1  0  0  0  0
 13  8  1  1  0  0  0
 13 24  1  0  0  0  0
 14 15  1  0  0  0  0
 14 20  1  0  0  0  0
 15 16  1  1  0  0  0
 15 17  1  0  0  0  0
 18 17  1  6  0  0  0
 18 19  1  0  0  0  0
 18 24  1  0  0  0  0
 19 20  1  1  0  0  0
 19 22  1  0  0  0  0
 20 21  2  0  0  0  0
 22 23  1  0  0  0  0
 24 23  1  6  0  0  0
M  CHG  1   3  -1
M  END
>  <CHROM.1>
63.24104234,-51.09364098,173.24103550,-166.38431958,-10.25637418,0.84058348
-3.55810763,2.53255781,-0.38366721,-2.91084952

>  <Name>
ligand

>  <RI>
0

>  <Rbt.Current_Directory>
/home/itssahil/PROJECTS/Mol_Feturizer/New_Systems/rnas/3SLQ

>  <Rbt.Executable>
rbdock ($Id: //depot/dev/client3/rdock/2013.1/src/exe/rbdock.cxx#4 $)

>  <Rbt.Library>
libRbt.so (2013.1, Build901 2013/11/27)

>  <Rbt.Parameter_File>
/export/apps/rDock/src/rDock_2013.1_src/data/scripts/dock_solv.prm

>  <Rbt.Receptor>
prm/blind_docking_80.prm

>  <SCORE>
-25.7382

>  <SCORE.INTER>
-19.3029

>  <SCORE.INTER.CONST>
1

>  <SCORE.INTER.POLAR>
0

>  <SCORE.INTER.ROT>
4

>  <SCORE.INTER.SOLV>
20.8123

>  <SCORE.INTER.VDW>
-26.0727

>  <SCORE.INTER.norm>
-0.804286

>  <SCORE.INTRA>
-6.43534

>  <SCORE.INTRA.DIHEDRAL>
-11.5163

>  <SCORE.INTRA.DIHEDRAL.0>
13.2525

>  <SCORE.INTRA.POLAR>
0

>  <SCORE.INTRA.POLAR.0>
0

>  <SCORE.INTRA.REPUL>
0

>  <SCORE.INTRA.REPUL.0>
0

>  <SCORE.INTRA.SOLV>
0.381547

>  <SCORE.INTRA.SOLV.lig_0>
-70.7221

>  <SCORE.INTRA.VDW>
-0.867954

>  <SCORE.INTRA.VDW.0>
-1.46337

>  <SCORE.INTRA.norm>
-0.268139

>  <SCORE.RESTR>
0

>  <SCORE.RESTR.CAVITY>
0

>  <SCORE.RESTR.norm>
0

>  <SCORE.SYSTEM>
0

>  <SCORE.SYSTEM.CONST>
0

>  <SCORE.SYSTEM.DIHEDRAL>
0

>  <SCORE.SYSTEM.SOLV>
0

>  <SCORE.SYSTEM.norm>
0

>  <SCORE.heavy>
24

>  <SCORE.norm>
-1.07242

>  <RMSD>
16.550

$$$$
ligand
 OpenBabel11021811483D
libRbt.so/2013.1/901 2013/11/27
 24 26  0  0  0  0  0  0  0  0999 V2000
  -13.2118    3.2694   -0.0224 P   0  0  1  0  0  0  0  0  0  0  0  0
  -14.4155    4.0759   -0.4609 O   0  0  0  0  0  0  0  0  0  0  0  0
  -11.8870    3.9950   -0.0104 O   0  5  0  0  0  0  0  0  0  0  0  0
  -13.4431    2.4469    1.2364 O   0  0  0  0  0  0  0  0  0  0  0  0
  -13.9857    1.3253   -1.7357 C   0  0  0  0  0  0  0  0  0  0  0  0
  -12.9781    2.2267   -1.2452 O   0  0  0  0  0  0  0  0  0  0  0  0
  -13.3950    0.4284   -2.8277 C   0  0  1  0  0  0  0  0  0  0  0  0
  -12.7606    1.1920   -3.8613 O   0  0  0  0  0  0  0  0  0  0  0  0
  -12.3463   -0.5587   -2.3444 C   0  0  1  0  0  0  0  0  0  0  0  0
  -12.9934   -1.7827   -1.9842 O   0  0  0  0  0  0  0  0  0  0  0  0
  -11.4492   -0.7388   -3.5581 C   0  0  1  0  0  0  0  0  0  0  0  0
  -12.0165   -1.6949   -4.4649 O   0  0  0  0  0  0  0  0  0  0  0  0
  -11.5203    0.5995   -4.2664 C   0  0  2  0  0  0  0  0  0  0  0  0
   -6.7459    2.1320   -5.2215 N   0  0  0  0  0  0  0  0  0  0  0  0
   -7.4747    1.1651   -5.8242 C   0  0  1  0  0  0  0  0  0  0  0  0
   -6.9264    0.4631   -6.8416 N   0  0  0  0  0  0  0  0  0  0  0  0
   -8.7386    0.8936   -5.4228 N   0  0  0  0  0  0  0  0  0  0  0  0
   -9.2820    1.5999   -4.4027 C   0  0  1  0  0  0  0  0  0  0  0  0
   -8.5601    2.5916   -3.7682 C   0  0  2  0  0  0  0  0  0  0  0  0
   -7.2647    2.8514   -4.1999 C   0  0  0  0  0  0  0  0  0  0  0  0
   -6.5782    3.7380   -3.6546 O   0  0  0  0  0  0  0  0  0  0  0  0
   -9.3503    3.1061   -2.8039 N   0  0  0  0  0  0  0  0  0  0  0  0
  -10.5343    2.4519   -2.8481 C   0  0  0  0  0  0  0  0  0  0  0  0
  -10.4752    1.5421   -3.8257 N   0  0  1  0  0  0  0  0  0  0  0  0
  1  2  1  6  0  0  0
  1  3  1  0  0  0  0
  1  4  2  0  0  0  0
  1  6  1  0  0  0  0
  5  6  1  0  0  0  0
  7  5  1  1  0  0  0
  7  8  1  0  0  0  0
  7  9  1  0  0  0  0
  9 10  1  6  0  0  0
  9 11  1  0  0  0  0
 11 12  1  6  0  0  0
 11 13  1  0  0  0  0
 13  8  1  1  0  0  0
 13 24  1  0  0  0  0
 14 15  1  0  0  0  0
 14 20  1  0  0  0  0
 15 16  1  1  0  0  0
 15 17  1  0  0  0  0
 18 17  1  6  0  0  0
 18 19  1  0  0  0  0
 18 24  1  0  0  0  0
 19 20  1  1  0  0  0
 19 22  1  0  0  0  0
 20 21  2  0  0  0  0
 22 23  1  0  0  0  0
 24 23  1  6  0  0  0
M  CHG  1   3  -1
M  END
>  <CHROM.1>
-55.60953845,-53.01582628,-176.31045379,-155.59083213,-10.98692902,1.64854220
-2.86033313,-2.68521978,-0.51812057,-2.50745031

>  <Name>
ligand

>  <RI>
0

>  <Rbt.Current_Directory>
/home/itssahil/PROJECTS/Mol_Feturizer/New_Systems/rnas/3SLQ

>  <Rbt.Executable>
rbdock ($Id: //depot/dev/client3/rdock/2013.1/src/exe/rbdock.cxx#4 $)

>  <Rbt.Library>
libRbt.so (2013.1, Build901 2013/11/27)

>  <Rbt.Parameter_File>
/export/apps/rDock/src/rDock_2013.1_src/data/scripts/dock_solv.prm

>  <Rbt.Receptor>
prm/blind_docking_20.prm

>  <SCORE>
-19.898

>  <SCORE.INTER>
-13.2158

>  <SCORE.INTER.CONST>
1

>  <SCORE.INTER.POLAR>
0

>  <SCORE.INTER.ROT>
4

>  <SCORE.INTER.SOLV>
13.3718

>  <SCORE.INTER.VDW>
-19.5345

>  <SCORE.INTER.norm>
-0.550658

>  <SCORE.INTRA>
-6.68224

>  <SCORE.INTRA.DIHEDRAL>
-11.7586

>  <SCORE.INTRA.DIHEDRAL.0>
13.2525

>  <SCORE.INTRA.POLAR>
0

>  <SCORE.INTRA.POLAR.0>
0

>  <SCORE.INTRA.REPUL>
0

>  <SCORE.INTRA.REPUL.0>
0

>  <SCORE.INTRA.SOLV>
0.305353

>  <SCORE.INTRA.SOLV.lig_0>
-70.7221

>  <SCORE.INTRA.VDW>
-0.955628

>  <SCORE.INTRA.VDW.0>
-1.46337

>  <SCORE.INTRA.norm>
-0.278427

>  <SCORE.RESTR>
0

>  <SCORE.RESTR.CAVITY>
0

>  <SCORE.RESTR.norm>
0

>  <SCORE.SYSTEM>
0

>  <SCORE.SYSTEM.CONST>
0

>  <SCORE.SYSTEM.DIHEDRAL>
0

>  <SCORE.SYSTEM.SOLV>
0

>  <SCORE.SYSTEM.norm>
0

>  <SCORE.heavy>
24

>  <SCORE.norm>
-0.829085

>  <RMSD>
16.563

$$$$
ligand
 OpenBabel11021811483D
libRbt.so/2013.1/901 2013/11/27
 24 26  0  0  0  0  0  0  0  0999 V2000
   -8.2010   -2.1147   -6.0132 P   0  0  1  0  0  0  0  0  0  0  0  0
   -8.5963   -0.6679   -6.2180 O   0  0  0  0  0  0  0  0  0  0  0  0
   -8.9999   -3.1428   -6.7791 O   0  5  0  0  0  0  0  0  0  0  0  0
   -6.7016   -2.3627   -6.0847 O   0  0  0  0  0  0  0  0  0  0  0  0
  -10.0455   -2.4736   -4.0683 C   0  0  0  0  0  0  0  0  0  0  0  0
   -8.6718   -2.4330   -4.4920 O   0  0  0  0  0  0  0  0  0  0  0  0
  -10.6982   -1.1053   -4.2861 C   0  0  1  0  0  0  0  0  0  0  0  0
  -12.1256   -1.1702   -4.1742 O   0  0  0  0  0  0  0  0  0  0  0  0
  -10.2590   -0.0266   -3.3108 C   0  0  1  0  0  0  0  0  0  0  0  0
   -9.1298    0.6606   -3.8580 O   0  0  0  0  0  0  0  0  0  0  0  0
  -11.4746    0.8815   -3.2221 C   0  0  1  0  0  0  0  0  0  0  0  0
  -11.4957    1.8020   -4.3224 O   0  0  0  0  0  0  0  0  0  0  0  0
  -12.6464   -0.0549   -3.4405 C   0  0  2  0  0  0  0  0  0  0  0  0
  -14.9975    1.1678    0.9223 N   0  0  0  0  0  0  0  0  0  0  0  0
  -14.6015    1.9678   -0.0939 C   0  0  1  0  0  0  0  0  0  0  0  0
  -14.8344    3.2975   -0.0159 N   0  0  0  0  0  0  0  0  0  0  0  0
  -13.9782    1.4558   -1.1809 N   0  0  0  0  0  0  0  0  0  0  0  0
  -13.7472    0.1231   -1.2528 C   0  0  1  0  0  0  0  0  0  0  0  0
  -14.1392   -0.7170   -0.2292 C   0  0  2  0  0  0  0  0  0  0  0  0
  -14.7782   -0.1664    0.8756 C   0  0  0  0  0  0  0  0  0  0  0  0
  -15.1485   -0.8890    1.8220 O   0  0  0  0  0  0  0  0  0  0  0  0
  -13.7745   -1.9679   -0.5771 N   0  0  0  0  0  0  0  0  0  0  0  0
  -13.1783   -1.9014   -1.7904 C   0  0  0  0  0  0  0  0  0  0  0  0
  -13.1720   -0.6244   -2.1857 N   0  0  1  0  0  0  0  0  0  0  0  0
  1  2  1  6  0  0  0
  1  3  1  0  0  0  0
  1  4  2  0  0  0  0
  1  6  1  0  0  0  0
  5  6  1  0  0  0  0
  7  5  1  1  0  0  0
  7  8  1  0  0  0  0
  7  9  1  0  0  0  0
  9 10  1  6  0  0  0
  9 11  1  0  0  0  0
 11 12  1  6  0  0  0
 11 13  1  0  0  0  0
 13  8  1  6  0  0  0
 13 24  1  0  0  0  0
 14 15  1  0  0  0  0
 14 20  1  0  0  0  0
 15 16  1  1  0  0  0
 15 17  1  0  0  0  0
 18 17  1  6  0  0  0
 18 19  1  0  0  0  0
 18 24  1  0  0  0  0
 19 20  1  1  0  0  0
 19 22  1  0  0  0  0
 20 21  2  0  0  0  0
 22 23  1  0  0  0  0
 24 23  1  6  0  0  0
M  CHG  1   3  -1
M  END
>  <CHROM.1>
66.92474313,166.58763527,-61.30227232,-179.46266961,-11.58019398,-0.55502519
-2.94826496,0.17707782,-0.78964131,2.99046443

>  <Name>
ligand

>  <RI>
0

>  <Rbt.Current_Directory>
/home/itssahil/PROJECTS/Mol_Feturizer/New_Systems/rnas/3SLQ

>  <Rbt.Executable>
rbdock ($Id: //depot/dev/client3/rdock/2013.1/src/exe/rbdock.cxx#4 $)

>  <Rbt.Library>
libRbt.so (2013.1, Build901 2013/11/27)

>  <Rbt.Parameter_File>
/export/apps/rDock/src/rDock_2013.1_src/data/scripts/dock_solv.prm

>  <Rbt.Receptor>
prm/blind_docking_60.prm

>  <SCORE>
-19.5041

>  <SCORE.INTER>
-14.0871

>  <SCORE.INTER.CONST>
1

>  <SCORE.INTER.POLAR>
0

>  <SCORE.INTER.ROT>
4

>  <SCORE.INTER.SOLV>
13.6099

>  <SCORE.INTER.VDW>
-20.1947

>  <SCORE.INTER.norm>
-0.586964

>  <SCORE.INTRA>
-5.41698

>  <SCORE.INTRA.DIHEDRAL>
-11.3367

>  <SCORE.INTRA.DIHEDRAL.0>
13.2525

>  <SCORE.INTRA.POLAR>
0

>  <SCORE.INTRA.POLAR.0>
0

>  <SCORE.INTRA.REPUL>
0

>  <SCORE.INTRA.REPUL.0>
0

>  <SCORE.INTRA.SOLV>
1.60766

>  <SCORE.INTRA.SOLV.lig_0>
-70.7221

>  <SCORE.INTRA.VDW>
-0.552474

>  <SCORE.INTRA.VDW.0>
-1.46337

>  <SCORE.INTRA.norm>
-0.225707

>  <SCORE.RESTR>
0

>  <SCORE.RESTR.CAVITY>
0

>  <SCORE.RESTR.norm>
0

>  <SCORE.SYSTEM>
0

>  <SCORE.SYSTEM.CONST>
0

>  <SCORE.SYSTEM.DIHEDRAL>
0

>  <SCORE.SYSTEM.SOLV>
0

>  <SCORE.SYSTEM.norm>
0

>  <SCORE.heavy>
24

>  <SCORE.norm>
-0.812671

>  <RMSD>
16.570

$$$$
ligand
 OpenBabel11021811483D
libRbt.so/2013.1/901 2013/11/27
 24 26  0  0  0  0  0  0  0  0999 V2000
  -13.8239   -0.2944   -2.3659 P   0  0  1  0  0  0  0  0  0  0  0  0
  -14.8189   -0.4297   -3.4987 O   0  0  0  0  0  0  0  0  0  0  0  0
  -13.6026    1.1009   -1.8311 O   0  5  0  0  0  0  0  0  0  0  0  0
  -13.9991   -1.3263   -1.2617 O   0  0  0  0  0  0  0  0  0  0  0  0
  -12.0850   -1.7766   -3.8125 C   0  0  0  0  0  0  0  0  0  0  0  0
  -12.3906   -0.5815   -3.0732 O   0  0  0  0  0  0  0  0  0  0  0  0
  -10.7223   -1.6317   -4.4965 C   0  0  1  0  0  0  0  0  0  0  0  0
  -10.6171   -0.4005   -5.2225 O   0  0  0  0  0  0  0  0  0  0  0  0
   -9.5302   -1.6561   -3.5552 C   0  0  1  0  0  0  0  0  0  0  0  0
   -9.0792   -3.0065   -3.4140 O   0  0  0  0  0  0  0  0  0  0  0  0
   -8.5010   -0.7968   -4.2712 C   0  0  1  0  0  0  0  0  0  0  0  0
   -7.8076   -1.5658   -5.2642 O   0  0  0  0  0  0  0  0  0  0  0  0
   -9.3356    0.2125   -5.0343 C   0  0  2  0  0  0  0  0  0  0  0  0
   -7.2512    4.6370   -3.5730 N   0  0  0  0  0  0  0  0  0  0  0  0
   -6.7157    3.6366   -4.3091 C   0  0  1  0  0  0  0  0  0  0  0  0
   -5.4485    3.7583   -4.7650 N   0  0  0  0  0  0  0  0  0  0  0  0
   -7.4292    2.5218   -4.5923 N   0  0  0  0  0  0  0  0  0  0  0  0
   -8.6979    2.4055   -4.1322 C   0  0  1  0  0  0  0  0  0  0  0  0
   -9.2692    3.4107   -3.3770 C   0  0  2  0  0  0  0  0  0  0  0  0
   -8.5157    4.5456   -3.1008 C   0  0  0  0  0  0  0  0  0  0  0  0
   -8.9930    5.4766   -2.4225 O   0  0  0  0  0  0  0  0  0  0  0  0
  -10.5192    3.0133   -3.0630 N   0  0  0  0  0  0  0  0  0  0  0  0
  -10.7163    1.7947   -3.6182 C   0  0  0  0  0  0  0  0  0  0  0  0
   -9.6005    1.4424   -4.2646 N   0  0  1  0  0  0  0  0  0  0  0  0
  1  2  1  6  0  0  0
  1  3  1  0  0  0  0
  1  4  2  0  0  0  0
  1  6  1  0  0  0  0
  5  6  1  0  0  0  0
  7  5  1  1  0  0  0
  7  8  1  0  0  0  0
  7  9  1  0  0  0  0
  9 10  1  6  0  0  0
  9 11  1  0  0  0  0
 11 12  1  6  0  0  0
 11 13  1  0  0  0  0
 13  8  1  1  0  0  0
 13 24  1  0  0  0  0
 14 15  1  0  0  0  0
 14 20  1  0  0  0  0
 15 16  1  1  0  0  0
 15 17  1  0  0  0  0
 18 17  1  6  0  0  0
 18 19  1  0  0  0  0
 18 24  1  0  0  0  0
 19 20  1  1  0  0  0
 19 22  1  0  0  0  0
 20 21  2  0  0  0  0
 22 23  1  0  0  0  0
 24 23  1  6  0  0  0
M  CHG  1   3  -1
M  END
>  <CHROM.1>
-55.83830641,-49.67515310,172.35189934,-166.04462362,-10.26485225,0.86957101
-3.58970654,2.53279387,-0.36907373,-2.90703231

>  <Name>
ligand

>  <RI>
0

>  <Rbt.Current_Directory>
/home/itssahil/PROJECTS/Mol_Feturizer/New_Systems/rnas/3SLQ

>  <Rbt.Executable>
rbdock ($Id: //depot/dev/client3/rdock/2013.1/src/exe/rbdock.cxx#4 $)

>  <Rbt.Library>
libRbt.so (2013.1, Build901 2013/11/27)

>  <Rbt.Parameter_File>
/export/apps/rDock/src/rDock_2013.1_src/data/scripts/dock_solv.prm

>  <Rbt.Receptor>
prm/blind_docking_80.prm

>  <SCORE>
-27.6136

>  <SCORE.INTER>
-21.1361

>  <SCORE.INTER.CONST>
1

>  <SCORE.INTER.POLAR>
0

>  <SCORE.INTER.ROT>
4

>  <SCORE.INTER.SOLV>
17.2437

>  <SCORE.INTER.VDW>
-26.1053

>  <SCORE.INTER.norm>
-0.880669

>  <SCORE.INTRA>
-6.47751

>  <SCORE.INTRA.DIHEDRAL>
-11.3486

>  <SCORE.INTRA.DIHEDRAL.0>
13.2525

>  <SCORE.INTRA.POLAR>
0

>  <SCORE.INTRA.POLAR.0>
0

>  <SCORE.INTRA.REPUL>
0

>  <SCORE.INTRA.REPUL.0>
0

>  <SCORE.INTRA.SOLV>
0.306563

>  <SCORE.INTRA.SOLV.lig_0>
-70.7221

>  <SCORE.INTRA.VDW>
-0.956486

>  <SCORE.INTRA.VDW.0>
-1.46337

>  <SCORE.INTRA.norm>
-0.269896

>  <SCORE.RESTR>
0

>  <SCORE.RESTR.CAVITY>
0

>  <SCORE.RESTR.norm>
0

>  <SCORE.SYSTEM>
0

>  <SCORE.SYSTEM.CONST>
0

>  <SCORE.SYSTEM.DIHEDRAL>
0

>  <SCORE.SYSTEM.SOLV>
0

>  <SCORE.SYSTEM.norm>
0

>  <SCORE.heavy>
24

>  <SCORE.norm>
-1.15057

>  <RMSD>
16.585

$$$$
ligand
 OpenBabel11021811483D
libRbt.so/2013.1/901 2013/11/27
 24 26  0  0  0  0  0  0  0  0999 V2000
  -15.7344    3.1815   -0.3099 P   0  0  1  0  0  0  0  0  0  0  0  0
  -14.6487    4.2076   -0.0651 O   0  0  0  0  0  0  0  0  0  0  0  0
  -16.0489    2.2515    0.8381 O   0  5  0  0  0  0  0  0  0  0  0  0
  -16.9842    3.7477   -0.9673 O   0  0  0  0  0  0  0  0  0  0  0  0
  -14.0308    1.2041   -1.0179 C   0  0  0  0  0  0  0  0  0  0  0  0
  -15.0593    2.1476   -1.3646 O   0  0  0  0  0  0  0  0  0  0  0  0
  -13.6660    0.3582   -2.2415 C   0  0  1  0  0  0  0  0  0  0  0  0
  -13.1460    1.1600   -3.3096 O   0  0  0  0  0  0  0  0  0  0  0  0
  -12.6205   -0.7141   -1.9869 C   0  0  1  0  0  0  0  0  0  0  0  0
  -13.2818   -1.9255   -1.6101 O   0  0  0  0  0  0  0  0  0  0  0  0
  -11.9267   -0.8532   -3.3322 C   0  0  1  0  0  0  0  0  0  0  0  0
  -12.6809   -1.7111   -4.2002 O   0  0  0  0  0  0  0  0  0  0  0  0
  -12.0190    0.5343   -3.9356 C   0  0  2  0  0  0  0  0  0  0  0  0
   -7.1301    1.4203   -5.1063 N   0  0  0  0  0  0  0  0  0  0  0  0
   -7.9786    0.4926   -5.6052 C   0  0  1  0  0  0  0  0  0  0  0  0
   -7.5399   -0.3559   -6.5624 N   0  0  0  0  0  0  0  0  0  0  0  0
   -9.2537    0.4042   -5.1598 N   0  0  0  0  0  0  0  0  0  0  0  0
   -9.6871    1.2565   -4.2004 C   0  0  1  0  0  0  0  0  0  0  0  0
   -8.8419    2.2124   -3.6720 C   0  0  2  0  0  0  0  0  0  0  0  0
   -7.5375    2.2830   -4.1471 C   0  0  0  0  0  0  0  0  0  0  0  0
   -6.7416    3.1309   -3.6973 O   0  0  0  0  0  0  0  0  0  0  0  0
   -9.5433    2.8982   -2.7465 N   0  0  0  0  0  0  0  0  0  0  0  0
  -10.7940    2.3820   -2.7107 C   0  0  0  0  0  0  0  0  0  0  0  0
  -10.8633    1.3873   -3.6010 N   0  0  1  0  0  0  0  0  0  0  0  0
  1  2  1  1  0  0  0
  1  3  1  0  0  0  0
  1  4  2  0  0  0  0
  1  6  1  0  0  0  0
  5  6  1  0  0  0  0
  7  5  1  1  0  0  0
  7  8  1  0  0  0  0
  7  9  1  0  0  0  0
  9 10  1  6  0  0  0
  9 11  1  0  0  0  0
 11 12  1  6  0  0  0
 11 13  1  0  0  0  0
 13  8  1  1  0  0  0
 13 24  1  0  0  0  0
 14 15  1  0  0  0  0
 14 20  1  0  0  0  0
 15 16  1  1  0  0  0
 15 17  1  0  0  0  0
 18 17  1  6  0  0  0
 18 19  1  0  0  0  0
 18 24  1  0  0  0  0
 19 20  1  1  0  0  0
 19 22  1  0  0  0  0
 20 21  2  0  0  0  0
 22 23  1  0  0  0  0
 24 23  1  6  0  0  0
M  CHG  1   3  -1
M  END
>  <CHROM.1>
72.63958264,61.67860248,177.94650708,-167.77097855,-11.92423633,1.40496862
-2.73797073,-2.80349574,-0.43801559,-2.76138714

>  <Name>
ligand

>  <RI>
0

>  <Rbt.Current_Directory>
/home/itssahil/PROJECTS/Mol_Feturizer/New_Systems/rnas/3SLQ

>  <Rbt.Executable>
rbdock ($Id: //depot/dev/client3/rdock/2013.1/src/exe/rbdock.cxx#4 $)

>  <Rbt.Library>
libRbt.so (2013.1, Build901 2013/11/27)

>  <Rbt.Parameter_File>
/export/apps/rDock/src/rDock_2013.1_src/data/scripts/dock_solv.prm

>  <Rbt.Receptor>
prm/blind_docking_80.prm

>  <SCORE>
-18.3187

>  <SCORE.INTER>
-12.3413

>  <SCORE.INTER.CONST>
1

>  <SCORE.INTER.POLAR>
0

>  <SCORE.INTER.ROT>
4

>  <SCORE.INTER.SOLV>
17.8664

>  <SCORE.INTER.VDW>
-20.4497

>  <SCORE.INTER.norm>
-0.51422

>  <SCORE.INTRA>
-5.97739

>  <SCORE.INTRA.DIHEDRAL>
-11.7526

>  <SCORE.INTRA.DIHEDRAL.0>
13.2525

>  <SCORE.INTRA.POLAR>
0

>  <SCORE.INTRA.POLAR.0>
0

>  <SCORE.INTRA.REPUL>
0

>  <SCORE.INTRA.REPUL.0>
0

>  <SCORE.INTRA.SOLV>
0.0437852

>  <SCORE.INTRA.SOLV.lig_0>
-70.7221

>  <SCORE.INTRA.VDW>
-0.122971

>  <SCORE.INTRA.VDW.0>
-1.46337

>  <SCORE.INTRA.norm>
-0.249058

>  <SCORE.RESTR>
0

>  <SCORE.RESTR.CAVITY>
0

>  <SCORE.RESTR.norm>
0

>  <SCORE.SYSTEM>
0

>  <SCORE.SYSTEM.CONST>
0

>  <SCORE.SYSTEM.DIHEDRAL>
0

>  <SCORE.SYSTEM.SOLV>
0

>  <SCORE.SYSTEM.norm>
0

>  <SCORE.heavy>
24

>  <SCORE.norm>
-0.763278

>  <RMSD>
16.672

$$$$
ligand
 OpenBabel11021811483D
libRbt.so/2013.1/901 2013/11/27
 24 26  0  0  0  0  0  0  0  0999 V2000
  -14.1663   -1.0013   -2.7553 P   0  0  1  0  0  0  0  0  0  0  0  0
  -15.2297   -0.6650   -3.7789 O   0  0  0  0  0  0  0  0  0  0  0  0
  -13.6658    0.1444   -1.9076 O   0  5  0  0  0  0  0  0  0  0  0  0
  -14.4659   -2.2496   -1.9390 O   0  0  0  0  0  0  0  0  0  0  0  0
  -11.5684   -1.6668   -3.1038 C   0  0  0  0  0  0  0  0  0  0  0  0
  -12.8500   -1.3149   -3.6532 O   0  0  0  0  0  0  0  0  0  0  0  0
  -10.4802   -1.4922   -4.1673 C   0  0  1  0  0  0  0  0  0  0  0  0
  -10.6735   -0.3001   -4.9391 O   0  0  0  0  0  0  0  0  0  0  0  0
   -9.0647   -1.4035   -3.6231 C   0  0  1  0  0  0  0  0  0  0  0  0
   -8.5056   -2.7194   -3.5701 O   0  0  0  0  0  0  0  0  0  0  0  0
   -8.3501   -0.5352   -4.6456 C   0  0  1  0  0  0  0  0  0  0  0  0
   -7.9318   -1.3230   -5.7693 O   0  0  0  0  0  0  0  0  0  0  0  0
   -9.4360    0.3863   -5.1646 C   0  0  2  0  0  0  0  0  0  0  0  0
   -6.8223    4.5436   -3.7709 N   0  0  0  0  0  0  0  0  0  0  0  0
   -6.4208    3.4835   -4.5088 C   0  0  1  0  0  0  0  0  0  0  0  0
   -5.1564    3.4536   -4.9872 N   0  0  0  0  0  0  0  0  0  0  0  0
   -7.2649    2.4585   -4.7718 N   0  0  0  0  0  0  0  0  0  0  0  0
   -8.5301    2.4940   -4.2893 C   0  0  1  0  0  0  0  0  0  0  0  0
   -8.9662    3.5631   -3.5316 C   0  0  2  0  0  0  0  0  0  0  0  0
   -8.0803    4.6033   -3.2765 C   0  0  0  0  0  0  0  0  0  0  0  0
   -8.4331    5.5873   -2.5969 O   0  0  0  0  0  0  0  0  0  0  0  0
  -10.2483    3.3165   -3.1935 N   0  0  0  0  0  0  0  0  0  0  0  0
  -10.5966    2.1266   -3.7365 C   0  0  0  0  0  0  0  0  0  0  0  0
   -9.5414    1.6426   -4.3993 N   0  0  1  0  0  0  0  0  0  0  0  0
  1  2  1  6  0  0  0
  1  3  1  0  0  0  0
  1  4  2  0  0  0  0
  1  6  1  0  0  0  0
  5  6  1  0  0  0  0
  7  5  1  1  0  0  0
  7  8  1  0  0  0  0
  7  9  1  0  0  0  0
  9 10  1  6  0  0  0
  9 11  1  0  0  0  0
 11 12  1  6  0  0  0
 11 13  1  0  0  0  0
 13  8  1  1  0  0  0
 13 24  1  0  0  0  0
 14 15  1  0  0  0  0
 14 20  1  0  0  0  0
 15 16  1  1  0  0  0
 15 17  1  0  0  0  0
 18 17  1  6  0  0  0
 18 19  1  0  0  0  0
 18 24  1  0  0  0  0
 19 20  1  1  0  0  0
 19 22  1  0  0  0  0
 20 21  2  0  0  0  0
 22 23  1  0  0  0  0
 24 23  1  6  0  0  0
M  CHG  1   3  -1
M  END
>  <CHROM.1>
179.02692931,41.23519068,-163.48430572,174.70427664,-10.17405939,0.76545230
-3.76351610,2.54035717,-0.32828390,-2.92884054

>  <Name>
ligand

>  <RI>
0

>  <Rbt.Current_Directory>
/home/itssahil/PROJECTS/Mol_Feturizer/New_Systems/rnas/3SLQ

>  <Rbt.Executable>
rbdock ($Id: //depot/dev/client3/rdock/2013.1/src/exe/rbdock.cxx#4 $)

>  <Rbt.Library>
libRbt.so (2013.1, Build901 2013/11/27)

>  <Rbt.Parameter_File>
/export/apps/rDock/src/rDock_2013.1_src/data/scripts/dock_solv.prm

>  <Rbt.Receptor>
prm/blind_docking_80.prm

>  <SCORE>
-26.5551

>  <SCORE.INTER>
-21.8938

>  <SCORE.INTER.CONST>
1

>  <SCORE.INTER.POLAR>
0

>  <SCORE.INTER.ROT>
4

>  <SCORE.INTER.SOLV>
18.1632

>  <SCORE.INTER.VDW>
-26.9169

>  <SCORE.INTER.norm>
-0.912242

>  <SCORE.INTRA>
-4.66127

>  <SCORE.INTRA.DIHEDRAL>
-9.61438

>  <SCORE.INTRA.DIHEDRAL.0>
13.2525

>  <SCORE.INTRA.POLAR>
0

>  <SCORE.INTRA.POLAR.0>
0

>  <SCORE.INTRA.REPUL>
0

>  <SCORE.INTRA.REPUL.0>
0

>  <SCORE.INTRA.SOLV>
0.708079

>  <SCORE.INTRA.SOLV.lig_0>
-70.7221

>  <SCORE.INTRA.VDW>
-0.208118

>  <SCORE.INTRA.VDW.0>
-1.46337

>  <SCORE.INTRA.norm>
-0.194219

>  <SCORE.RESTR>
0

>  <SCORE.RESTR.CAVITY>
0

>  <SCORE.RESTR.norm>
0

>  <SCORE.SYSTEM>
0

>  <SCORE.SYSTEM.CONST>
0

>  <SCORE.SYSTEM.DIHEDRAL>
0

>  <SCORE.SYSTEM.SOLV>
0

>  <SCORE.SYSTEM.norm>
0

>  <SCORE.heavy>
24

>  <SCORE.norm>
-1.10646

>  <RMSD>
16.689

$$$$
ligand
 OpenBabel11021811483D
libRbt.so/2013.1/901 2013/11/27
 24 26  0  0  0  0  0  0  0  0999 V2000
  -14.0701   -0.9242   -2.7770 P   0  0  1  0  0  0  0  0  0  0  0  0
  -13.6268    0.3213   -2.0397 O   0  0  0  0  0  0  0  0  0  0  0  0
  -14.2838   -2.1607   -1.9360 O   0  5  0  0  0  0  0  0  0  0  0  0
  -15.1975   -0.6870   -3.7706 O   0  0  0  0  0  0  0  0  0  0  0  0
  -11.4514   -1.5392   -3.0554 C   0  0  0  0  0  0  0  0  0  0  0  0
  -12.7575   -1.3575   -3.6292 O   0  0  0  0  0  0  0  0  0  0  0  0
  -10.3824   -1.4209   -4.1458 C   0  0  1  0  0  0  0  0  0  0  0  0
  -10.5600   -0.2430   -4.9427 O   0  0  0  0  0  0  0  0  0  0  0  0
   -8.9534   -1.3583   -3.6340 C   0  0  1  0  0  0  0  0  0  0  0  0
   -8.4293   -2.6874   -3.5602 O   0  0  0  0  0  0  0  0  0  0  0  0
   -8.2380   -0.5353   -4.6928 C   0  0  1  0  0  0  0  0  0  0  0  0
   -7.8660   -1.3615   -5.8052 O   0  0  0  0  0  0  0  0  0  0  0  0
   -9.3095    0.4031   -5.2114 C   0  0  2  0  0  0  0  0  0  0  0  0
   -6.5310    4.4847   -3.9164 N   0  0  0  0  0  0  0  0  0  0  0  0
   -6.1729    3.3927   -4.6295 C   0  0  1  0  0  0  0  0  0  0  0  0
   -4.9114    3.3015   -5.1077 N   0  0  0  0  0  0  0  0  0  0  0  0
   -7.0573    2.3961   -4.8681 N   0  0  0  0  0  0  0  0  0  0  0  0
   -8.3195    2.4930   -4.3860 C   0  0  1  0  0  0  0  0  0  0  0  0
   -8.7118    3.5960   -3.6533 C   0  0  2  0  0  0  0  0  0  0  0  0
   -7.7849    4.6059   -3.4230 C   0  0  0  0  0  0  0  0  0  0  0  0
   -8.0975    5.6187   -2.7663 O   0  0  0  0  0  0  0  0  0  0  0  0
  -10.0022    3.4084   -3.3089 N   0  0  0  0  0  0  0  0  0  0  0  0
  -10.3981    2.2209   -3.8238 C   0  0  0  0  0  0  0  0  0  0  0  0
   -9.3639    1.6802   -4.4757 N   0  0  1  0  0  0  0  0  0  0  0  0
  1  2  1  1  0  0  0
  1  3  1  0  0  0  0
  1  4  2  0  0  0  0
  1  6  1  0  0  0  0
  5  6  1  0  0  0  0
  7  5  1  1  0  0  0
  7  8  1  0  0  0  0
  7  9  1  0  0  0  0
  9 10  1  6  0  0  0
  9 11  1  0  0  0  0
 11 12  1  6  0  0  0
 11 13  1  0  0  0  0
 13  8  1  1  0  0  0
 13 24  1  0  0  0  0
 14 15  1  0  0  0  0
 14 20  1  0  0  0  0
 15 16  1  1  0  0  0
 15 17  1  0  0  0  0
 18 17  1  6  0  0  0
 18 19  1  0  0  0  0
 18 24  1  0  0  0  0
 19 20  1  1  0  0  0
 19 22  1  0  0  0  0
 20 21  2  0  0  0  0
 22 23  1  0  0  0  0
 24 23  1  6  0  0  0
M  CHG  1   3  -1
M  END
>  <CHROM.1>
52.58600414,49.63898459,-158.79803269,173.32820042,-10.01557577,0.79046422
-3.82110167,2.56116346,-0.32334110,-2.94200265

>  <Name>
ligand

>  <RI>
0

>  <Rbt.Current_Directory>
/home/itssahil/PROJECTS/Mol_Feturizer/New_Systems/rnas/3SLQ

>  <Rbt.Executable>
rbdock ($Id: //depot/dev/client3/rdock/2013.1/src/exe/rbdock.cxx#4 $)

>  <Rbt.Library>
libRbt.so (2013.1, Build901 2013/11/27)

>  <Rbt.Parameter_File>
/export/apps/rDock/src/rDock_2013.1_src/data/scripts/dock_solv.prm

>  <Rbt.Receptor>
prm/blind_docking_60.prm

>  <SCORE>
-23.1574

>  <SCORE.INTER>
-18.151

>  <SCORE.INTER.CONST>
1

>  <SCORE.INTER.POLAR>
0

>  <SCORE.INTER.ROT>
4

>  <SCORE.INTER.SOLV>
23.4825

>  <SCORE.INTER.VDW>
-26.1948

>  <SCORE.INTER.norm>
-0.756291

>  <SCORE.INTRA>
-5.00638

>  <SCORE.INTRA.DIHEDRAL>
-9.59078

>  <SCORE.INTRA.DIHEDRAL.0>
13.2525

>  <SCORE.INTRA.POLAR>
0

>  <SCORE.INTRA.POLAR.0>
0

>  <SCORE.INTRA.REPUL>
0

>  <SCORE.INTRA.REPUL.0>
0

>  <SCORE.INTRA.SOLV>
-0.0107472

>  <SCORE.INTRA.SOLV.lig_0>
-70.7221

>  <SCORE.INTRA.VDW>
-0.20562

>  <SCORE.INTRA.VDW.0>
-1.46337

>  <SCORE.INTRA.norm>
-0.208599

>  <SCORE.RESTR>
0

>  <SCORE.RESTR.CAVITY>
0

>  <SCORE.RESTR.norm>
0

>  <SCORE.SYSTEM>
0

>  <SCORE.SYSTEM.CONST>
0

>  <SCORE.SYSTEM.DIHEDRAL>
0

>  <SCORE.SYSTEM.SOLV>
0

>  <SCORE.SYSTEM.norm>
0

>  <SCORE.heavy>
24

>  <SCORE.norm>
-0.96489

>  <RMSD>
16.708

$$$$
ligand
 OpenBabel11021811483D
libRbt.so/2013.1/901 2013/11/27
 24 26  0  0  0  0  0  0  0  0999 V2000
  -14.1400   -0.9849   -2.5351 P   0  0  1  0  0  0  0  0  0  0  0  0
  -15.0112   -0.5926   -3.7092 O   0  0  0  0  0  0  0  0  0  0  0  0
  -13.8248    0.1069   -1.5399 O   0  5  0  0  0  0  0  0  0  0  0  0
  -14.5517   -2.2883   -1.8671 O   0  0  0  0  0  0  0  0  0  0  0  0
  -11.8833   -0.1788   -3.7885 C   0  0  0  0  0  0  0  0  0  0  0  0
  -12.6779   -1.2233   -3.2005 O   0  0  0  0  0  0  0  0  0  0  0  0
  -10.7171   -0.7897   -4.5712 C   0  0  1  0  0  0  0  0  0  0  0  0
  -10.0664    0.1790   -5.4033 O   0  0  0  0  0  0  0  0  0  0  0  0
   -9.6203   -1.3956   -3.7124 C   0  0  1  0  0  0  0  0  0  0  0  0
   -9.9173   -2.7771   -3.4886 O   0  0  0  0  0  0  0  0  0  0  0  0
   -8.3734   -1.2247   -4.5646 C   0  0  1  0  0  0  0  0  0  0  0  0
   -8.2785   -2.2785   -5.5335 O   0  0  0  0  0  0  0  0  0  0  0  0
   -8.6409    0.0423   -5.3527 C   0  0  2  0  0  0  0  0  0  0  0  0
   -4.5546    3.0515   -4.8017 N   0  0  0  0  0  0  0  0  0  0  0  0
   -4.6959    1.9186   -5.5270 C   0  0  1  0  0  0  0  0  0  0  0  0
   -3.6449    1.4577   -6.2423 N   0  0  0  0  0  0  0  0  0  0  0  0
   -5.8698    1.2450   -5.5447 N   0  0  0  0  0  0  0  0  0  0  0  0
   -6.9188    1.7114   -4.8257 C   0  0  1  0  0  0  0  0  0  0  0  0
   -6.8021    2.8646   -4.0748 C   0  0  2  0  0  0  0  0  0  0  0  0
   -5.5862    3.5381   -4.0743 C   0  0  0  0  0  0  0  0  0  0  0  0
   -5.4380    4.5829   -3.4101 O   0  0  0  0  0  0  0  0  0  0  0  0
   -7.9914    3.0718   -3.4736 N   0  0  0  0  0  0  0  0  0  0  0  0
   -8.8240    2.0737   -3.8511 C   0  0  0  0  0  0  0  0  0  0  0  0
   -8.1561    1.2581   -4.6731 N   0  0  1  0  0  0  0  0  0  0  0  0
  1  2  1  6  0  0  0
  1  3  1  0  0  0  0
  1  4  2  0  0  0  0
  1  6  1  0  0  0  0
  5  6  1  0  0  0  0
  7  5  1  1  0  0  0
  7  8  1  0  0  0  0
  7  9  1  0  0  0  0
  9 10  1  6  0  0  0
  9 11  1  0  0  0  0
 11 12  1  6  0  0  0
 11 13  1  0  0  0  0
 13  8  1  1  0  0  0
 13 24  1  0  0  0  0
 14 15  1  0  0  0  0
 14 20  1  0  0  0  0
 15 16  1  1  0  0  0
 15 17  1  0  0  0  0
 18 17  1  6  0  0  0
 18 19  1  0  0  0  0
 18 24  1  0  0  0  0
 19 20  1  1  0  0  0
 19 22  1  0  0  0  0
 20 21  2  0  0  0  0
 22 23  1  0  0  0  0
 24 23  1  6  0  0  0
M  CHG  1   3  -1
M  END
>  <CHROM.1>
66.56488743,167.62663900,-168.17698216,-156.96137388,-9.41733453,0.39738805
-4.03755803,2.84543945,-0.37510822,-2.77415470

>  <Name>
ligand

>  <RI>
0

>  <Rbt.Current_Directory>
/home/itssahil/PROJECTS/Mol_Feturizer/New_Systems/rnas/3SLQ

>  <Rbt.Executable>
rbdock ($Id: //depot/dev/client3/rdock/2013.1/src/exe/rbdock.cxx#4 $)

>  <Rbt.Library>
libRbt.so (2013.1, Build901 2013/11/27)

>  <Rbt.Parameter_File>
/export/apps/rDock/src/rDock_2013.1_src/data/scripts/dock_solv.prm

>  <Rbt.Receptor>
prm/blind_docking_40.prm

>  <SCORE>
-22.7853

>  <SCORE.INTER>
-17.1421

>  <SCORE.INTER.CONST>
1

>  <SCORE.INTER.POLAR>
0

>  <SCORE.INTER.ROT>
4

>  <SCORE.INTER.SOLV>
16.8563

>  <SCORE.INTER.VDW>
-23.3135

>  <SCORE.INTER.norm>
-0.714255

>  <SCORE.INTRA>
-5.64315

>  <SCORE.INTRA.DIHEDRAL>
-10.756

>  <SCORE.INTRA.DIHEDRAL.0>
13.2525

>  <SCORE.INTRA.POLAR>
0

>  <SCORE.INTRA.POLAR.0>
0

>  <SCORE.INTRA.REPUL>
0

>  <SCORE.INTRA.REPUL.0>
0

>  <SCORE.INTRA.SOLV>
0.0284704

>  <SCORE.INTRA.SOLV.lig_0>
-70.7221

>  <SCORE.INTRA.VDW>
-0.279407

>  <SCORE.INTRA.VDW.0>
-1.46337

>  <SCORE.INTRA.norm>
-0.235131

>  <SCORE.RESTR>
0

>  <SCORE.RESTR.CAVITY>
0

>  <SCORE.RESTR.norm>
0

>  <SCORE.SYSTEM>
0

>  <SCORE.SYSTEM.CONST>
0

>  <SCORE.SYSTEM.DIHEDRAL>
0

>  <SCORE.SYSTEM.SOLV>
0

>  <SCORE.SYSTEM.norm>
0

>  <SCORE.heavy>
24

>  <SCORE.norm>
-0.949386

>  <RMSD>
16.751

$$$$
ligand
 OpenBabel11021811483D
libRbt.so/2013.1/901 2013/11/27
 24 26  0  0  0  0  0  0  0  0999 V2000
  -13.9316   -0.9010   -2.7072 P   0  0  1  0  0  0  0  0  0  0  0  0
  -14.0673   -2.2236   -1.9835 O   0  0  0  0  0  0  0  0  0  0  0  0
  -15.0103   -0.5731   -3.7125 O   0  5  0  0  0  0  0  0  0  0  0  0
  -13.6008    0.2718   -1.7963 O   0  0  0  0  0  0  0  0  0  0  0  0
  -11.3196   -1.3750   -3.2233 C   0  0  0  0  0  0  0  0  0  0  0  0
  -12.6574   -1.1255   -3.6885 O   0  0  0  0  0  0  0  0  0  0  0  0
  -10.3852   -1.5928   -4.4171 C   0  0  1  0  0  0  0  0  0  0  0  0
  -10.2798   -0.4199   -5.2341 O   0  0  0  0  0  0  0  0  0  0  0  0
   -8.9592   -1.9673   -4.0510 C   0  0  1  0  0  0  0  0  0  0  0  0
   -8.8580   -3.3927   -3.9819 O   0  0  0  0  0  0  0  0  0  0  0  0
   -8.1428   -1.4060   -5.2037 C   0  0  1  0  0  0  0  0  0  0  0  0
   -8.1572   -2.3106   -6.3172 O   0  0  0  0  0  0  0  0  0  0  0  0
   -8.9275   -0.1873   -5.6474 C   0  0  2  0  0  0  0  0  0  0  0  0
   -4.9755    2.9653   -4.9410 N   0  0  0  0  0  0  0  0  0  0  0  0
   -5.0459    1.8244   -5.6640 C   0  0  1  0  0  0  0  0  0  0  0  0
   -3.9496    1.3966   -6.3300 N   0  0  0  0  0  0  0  0  0  0  0  0
   -6.1940    1.1102   -5.7277 N   0  0  0  0  0  0  0  0  0  0  0  0
   -7.2886    1.5435   -5.0578 C   0  0  1  0  0  0  0  0  0  0  0  0
   -7.2447    2.7041   -4.3105 C   0  0  2  0  0  0  0  0  0  0  0  0
   -6.0540    3.4196   -4.2621 C   0  0  0  0  0  0  0  0  0  0  0  0
   -5.9709    4.4724   -3.5992 O   0  0  0  0  0  0  0  0  0  0  0  0
   -8.4654    2.8729   -3.7626 N   0  0  0  0  0  0  0  0  0  0  0  0
   -9.2458    1.8444   -4.1689 C   0  0  0  0  0  0  0  0  0  0  0  0
   -8.5150    1.0482   -4.9557 N   0  0  1  0  0  0  0  0  0  0  0  0
  1  2  1  1  0  0  0
  1  3  1  0  0  0  0
  1  4  2  0  0  0  0
  1  6  1  0  0  0  0
  5  6  1  0  0  0  0
  7  5  1  1  0  0  0
  7  8  1  0  0  0  0
  7  9  1  0  0  0  0
  9 10  1  6  0  0  0
  9 11  1  0  0  0  0
 11 12  1  6  0  0  0
 11 13  1  0  0  0  0
 13  8  1  1  0  0  0
 13 24  1  0  0  0  0
 14 15  1  0  0  0  0
 14 20  1  0  0  0  0
 15 16  1  1  0  0  0
 15 17  1  0  0  0  0
 18 17  1  6  0  0  0
 18 19  1  0  0  0  0
 18 24  1  0  0  0  0
 19 20  1  1  0  0  0
 19 22  1  0  0  0  0
 20 21  2  0  0  0  0
 22 23  1  0  0  0  0
 24 23  1  6  0  0  0
M  CHG  1   3  -1
M  END
>  <CHROM.1>
-63.77618523,63.83809418,177.75076765,177.11280591,-9.43374531,0.19321414
-4.24484277,2.82660898,-0.38176252,-2.84051906

>  <Name>
ligand

>  <RI>
0

>  <Rbt.Current_Directory>
/home/itssahil/PROJECTS/Mol_Feturizer/New_Systems/rnas/3SLQ

>  <Rbt.Executable>
rbdock ($Id: //depot/dev/client3/rdock/2013.1/src/exe/rbdock.cxx#4 $)

>  <Rbt.Library>
libRbt.so (2013.1, Build901 2013/11/27)

>  <Rbt.Parameter_File>
/export/apps/rDock/src/rDock_2013.1_src/data/scripts/dock_solv.prm

>  <Rbt.Receptor>
prm/blind_docking_60.prm

>  <SCORE>
-22.2066

>  <SCORE.INTER>
-15.9577

>  <SCORE.INTER.CONST>
1

>  <SCORE.INTER.POLAR>
0

>  <SCORE.INTER.ROT>
4

>  <SCORE.INTER.SOLV>
20.2017

>  <SCORE.INTER.VDW>
-23.6391

>  <SCORE.INTER.norm>
-0.664905

>  <SCORE.INTRA>
-6.24886

>  <SCORE.INTRA.DIHEDRAL>
-11.9545

>  <SCORE.INTRA.DIHEDRAL.0>
13.2525

>  <SCORE.INTRA.POLAR>
0

>  <SCORE.INTRA.POLAR.0>
0

>  <SCORE.INTRA.REPUL>
0

>  <SCORE.INTRA.REPUL.0>
0

>  <SCORE.INTRA.SOLV>
-0.132685

>  <SCORE.INTRA.SOLV.lig_0>
-70.7221

>  <SCORE.INTRA.VDW>
-0.205276

>  <SCORE.INTRA.VDW.0>
-1.46337

>  <SCORE.INTRA.norm>
-0.260369

>  <SCORE.RESTR>
0

>  <SCORE.RESTR.CAVITY>
0

>  <SCORE.RESTR.norm>
0

>  <SCORE.SYSTEM>
0

>  <SCORE.SYSTEM.CONST>
0

>  <SCORE.SYSTEM.DIHEDRAL>
0

>  <SCORE.SYSTEM.SOLV>
0

>  <SCORE.SYSTEM.norm>
0

>  <SCORE.heavy>
24

>  <SCORE.norm>
-0.925274

>  <RMSD>
16.846

$$$$
ligand
 OpenBabel11021811483D
libRbt.so/2013.1/901 2013/11/27
 24 26  0  0  0  0  0  0  0  0999 V2000
  -13.9431   -0.8923   -2.6670 P   0  0  1  0  0  0  0  0  0  0  0  0
  -14.0634   -2.2111   -1.9337 O   0  0  0  0  0  0  0  0  0  0  0  0
  -15.0412   -0.5712   -3.6534 O   0  5  0  0  0  0  0  0  0  0  0  0
  -13.5964    0.2859   -1.7691 O   0  0  0  0  0  0  0  0  0  0  0  0
  -11.3356   -1.3363   -3.2306 C   0  0  0  0  0  0  0  0  0  0  0  0
  -12.6875   -1.1208   -3.6713 O   0  0  0  0  0  0  0  0  0  0  0  0
  -10.4232   -1.5610   -4.4400 C   0  0  1  0  0  0  0  0  0  0  0  0
  -10.3045   -0.3820   -5.2462 O   0  0  0  0  0  0  0  0  0  0  0  0
   -9.0003   -1.9693   -4.0985 C   0  0  1  0  0  0  0  0  0  0  0  0
   -8.9284   -3.3972   -4.0455 O   0  0  0  0  0  0  0  0  0  0  0  0
   -8.1887   -1.4130   -5.2570 C   0  0  1  0  0  0  0  0  0  0  0  0
   -8.2382   -2.3053   -6.3794 O   0  0  0  0  0  0  0  0  0  0  0  0
   -8.9537   -0.1735   -5.6767 C   0  0  2  0  0  0  0  0  0  0  0  0
   -4.9214    2.8784   -4.9822 N   0  0  0  0  0  0  0  0  0  0  0  0
   -5.0259    1.7461   -5.7145 C   0  0  1  0  0  0  0  0  0  0  0  0
   -3.9466    1.2986   -6.3953 N   0  0  0  0  0  0  0  0  0  0  0  0
   -6.1911    1.0598   -5.7730 N   0  0  0  0  0  0  0  0  0  0  0  0
   -7.2686    1.5128   -5.0884 C   0  0  1  0  0  0  0  0  0  0  0  0
   -7.1898    2.6652   -4.3314 C   0  0  2  0  0  0  0  0  0  0  0  0
   -5.9821    3.3519   -4.2886 C   0  0  0  0  0  0  0  0  0  0  0  0
   -5.8676    4.3964   -3.6174 O   0  0  0  0  0  0  0  0  0  0  0  0
   -8.4007    2.8578   -3.7697 N   0  0  0  0  0  0  0  0  0  0  0  0
   -9.2092    1.8517   -4.1772 C   0  0  0  0  0  0  0  0  0  0  0  0
   -8.5053    1.0456   -4.9783 N   0  0  1  0  0  0  0  0  0  0  0  0
  1  2  1  1  0  0  0
  1  3  1  0  0  0  0
  1  4  2  0  0  0  0
  1  6  1  0  0  0  0
  5  6  1  0  0  0  0
  7  5  1  1  0  0  0
  7  8  1  0  0  0  0
  7  9  1  0  0  0  0
  9 10  1  6  0  0  0
  9 11  1  0  0  0  0
 11 12  1  6  0  0  0
 11 13  1  0  0  0  0
 13  8  1  1  0  0  0
 13 24  1  0  0  0  0
 14 15  1  0  0  0  0
 14 20  1  0  0  0  0
 15 16  1  1  0  0  0
 15 17  1  0  0  0  0
 18 17  1  6  0  0  0
 18 19  1  0  0  0  0
 18 24  1  0  0  0  0
 19 20  1  1  0  0  0
 19 22  1  0  0  0  0
 20 21  2  0  0  0  0
 22 23  1  0  0  0  0
 24 23  1  6  0  0  0
M  CHG  1   3  -1
M  END
>  <CHROM.1>
-65.24004247,66.73832647,178.08114296,176.80674737,-9.43440126,0.17963635
-4.25914168,2.84732022,-0.39048192,-2.81784290

>  <Name>
ligand

>  <RI>
0

>  <Rbt.Current_Directory>
/home/itssahil/PROJECTS/Mol_Feturizer/New_Systems/rnas/3SLQ

>  <Rbt.Executable>
rbdock ($Id: //depot/dev/client3/rdock/2013.1/src/exe/rbdock.cxx#4 $)

>  <Rbt.Library>
libRbt.so (2013.1, Build901 2013/11/27)

>  <Rbt.Parameter_File>
/export/apps/rDock/src/rDock_2013.1_src/data/scripts/dock_solv.prm

>  <Rbt.Receptor>
prm/blind_docking_20.prm

>  <SCORE>
-22.1958

>  <SCORE.INTER>
-16.0096

>  <SCORE.INTER.CONST>
1

>  <SCORE.INTER.POLAR>
0

>  <SCORE.INTER.ROT>
4

>  <SCORE.INTER.SOLV>
20.0412

>  <SCORE.INTER.VDW>
-23.6202

>  <SCORE.INTER.norm>
-0.667068

>  <SCORE.INTRA>
-6.18621

>  <SCORE.INTRA.DIHEDRAL>
-11.8314

>  <SCORE.INTRA.DIHEDRAL.0>
13.2525

>  <SCORE.INTRA.POLAR>
0

>  <SCORE.INTRA.POLAR.0>
0

>  <SCORE.INTRA.REPUL>
0

>  <SCORE.INTRA.REPUL.0>
0

>  <SCORE.INTRA.SOLV>
-0.133103

>  <SCORE.INTRA.SOLV.lig_0>
-70.7221

>  <SCORE.INTRA.VDW>
-0.203972

>  <SCORE.INTRA.VDW.0>
-1.46337

>  <SCORE.INTRA.norm>
-0.257759

>  <SCORE.RESTR>
0

>  <SCORE.RESTR.CAVITY>
0

>  <SCORE.RESTR.norm>
0

>  <SCORE.SYSTEM>
0

>  <SCORE.SYSTEM.CONST>
0

>  <SCORE.SYSTEM.DIHEDRAL>
0

>  <SCORE.SYSTEM.SOLV>
0

>  <SCORE.SYSTEM.norm>
0

>  <SCORE.heavy>
24

>  <SCORE.norm>
-0.924827

>  <RMSD>
16.859

$$$$
ligand
 OpenBabel11021811483D
libRbt.so/2013.1/901 2013/11/27
 24 26  0  0  0  0  0  0  0  0999 V2000
  -13.8275   -0.6252   -2.7698 P   0  0  1  0  0  0  0  0  0  0  0  0
  -15.0393   -0.5586   -3.6746 O   0  0  0  0  0  0  0  0  0  0  0  0
  -13.3754    0.6797   -2.1577 O   0  5  0  0  0  0  0  0  0  0  0  0
  -13.8694   -1.7641   -1.7619 O   0  0  0  0  0  0  0  0  0  0  0  0
  -11.2604   -1.2337   -3.3642 C   0  0  0  0  0  0  0  0  0  0  0  0
  -12.5995   -0.9263   -3.7890 O   0  0  0  0  0  0  0  0  0  0  0  0
  -10.3658   -1.4614   -4.5863 C   0  0  1  0  0  0  0  0  0  0  0  0
  -10.1871   -0.2611   -5.3489 O   0  0  0  0  0  0  0  0  0  0  0  0
   -8.9656   -1.9576   -4.2683 C   0  0  1  0  0  0  0  0  0  0  0  0
   -8.9701   -3.3882   -4.2689 O   0  0  0  0  0  0  0  0  0  0  0  0
   -8.1297   -1.4025   -5.4100 C   0  0  1  0  0  0  0  0  0  0  0  0
   -8.2310   -2.2482   -6.5645 O   0  0  0  0  0  0  0  0  0  0  0  0
   -8.8287   -0.1091   -5.7789 C   0  0  2  0  0  0  0  0  0  0  0  0
   -4.6070    2.6228   -4.9009 N   0  0  0  0  0  0  0  0  0  0  0  0
   -4.7726    1.5185   -5.6641 C   0  0  1  0  0  0  0  0  0  0  0  0
   -3.7098    1.0093   -6.3272 N   0  0  0  0  0  0  0  0  0  0  0  0
   -5.9824    0.9208   -5.7708 N   0  0  0  0  0  0  0  0  0  0  0  0
   -7.0431    1.4353   -5.1037 C   0  0  1  0  0  0  0  0  0  0  0  0
   -6.9024    2.5609   -4.3159 C   0  0  2  0  0  0  0  0  0  0  0  0
   -5.6498    3.1563   -4.2238 C   0  0  0  0  0  0  0  0  0  0  0  0
   -5.4789    4.1737   -3.5236 O   0  0  0  0  0  0  0  0  0  0  0  0
   -8.1116    2.8284   -3.7819 N   0  0  0  0  0  0  0  0  0  0  0  0
   -8.9790    1.8939   -4.2360 C   0  0  0  0  0  0  0  0  0  0  0  0
   -8.3130    1.0574   -5.0383 N   0  0  1  0  0  0  0  0  0  0  0  0
  1  2  1  6  0  0  0
  1  3  1  0  0  0  0
  1  4  2  0  0  0  0
  1  6  1  0  0  0  0
  5  6  1  0  0  0  0
  7  5  1  1  0  0  0
  7  8  1  0  0  0  0
  7  9  1  0  0  0  0
  9 10  1  6  0  0  0
  9 11  1  0  0  0  0
 11 12  1  6  0  0  0
 11 13  1  0  0  0  0
 13  8  1  1  0  0  0
 13 24  1  0  0  0  0
 14 15  1  0  0  0  0
 14 20  1  0  0  0  0
 15 16  1  1  0  0  0
 15 17  1  0  0  0  0
 18 17  1  6  0  0  0
 18 19  1  0  0  0  0
 18 24  1  0  0  0  0
 19 20  1  1  0  0  0
 19 22  1  0  0  0  0
 20 21  2  0  0  0  0
 22 23  1  0  0  0  0
 24 23  1  6  0  0  0
M  CHG  1   3  -1
M  END
>  <CHROM.1>
-172.21503251,66.57577334,179.93274080,174.53481081,-9.27334101,0.21271045
-4.32411212,2.91117191,-0.36630492,-2.75660845

>  <Name>
ligand

>  <RI>
0

>  <Rbt.Current_Directory>
/home/itssahil/PROJECTS/Mol_Feturizer/New_Systems/rnas/3SLQ

>  <Rbt.Executable>
rbdock ($Id: //depot/dev/client3/rdock/2013.1/src/exe/rbdock.cxx#4 $)

>  <Rbt.Library>
libRbt.so (2013.1, Build901 2013/11/27)

>  <Rbt.Parameter_File>
/export/apps/rDock/src/rDock_2013.1_src/data/scripts/dock_solv.prm

>  <Rbt.Receptor>
prm/blind_docking_40.prm

>  <SCORE>
-23.5543

>  <SCORE.INTER>
-17.7323

>  <SCORE.INTER.CONST>
1

>  <SCORE.INTER.POLAR>
0

>  <SCORE.INTER.ROT>
4

>  <SCORE.INTER.SOLV>
16.6084

>  <SCORE.INTER.VDW>
-23.6243

>  <SCORE.INTER.norm>
-0.738845

>  <SCORE.INTRA>
-5.82203

>  <SCORE.INTRA.DIHEDRAL>
-11.8032

>  <SCORE.INTRA.DIHEDRAL.0>
13.2525

>  <SCORE.INTRA.POLAR>
0

>  <SCORE.INTRA.POLAR.0>
0

>  <SCORE.INTRA.REPUL>
0

>  <SCORE.INTRA.REPUL.0>
0

>  <SCORE.INTRA.SOLV>
0.43824

>  <SCORE.INTRA.SOLV.lig_0>
-70.7221

>  <SCORE.INTRA.VDW>
-0.139535

>  <SCORE.INTRA.VDW.0>
-1.46337

>  <SCORE.INTRA.norm>
-0.242585

>  <SCORE.RESTR>
0

>  <SCORE.RESTR.CAVITY>
0

>  <SCORE.RESTR.norm>
0

>  <SCORE.SYSTEM>
0

>  <SCORE.SYSTEM.CONST>
0

>  <SCORE.SYSTEM.DIHEDRAL>
0

>  <SCORE.SYSTEM.SOLV>
0

>  <SCORE.SYSTEM.norm>
0

>  <SCORE.heavy>
24

>  <SCORE.norm>
-0.98143

>  <RMSD>
16.909

$$$$
ligand
 OpenBabel11021811483D
libRbt.so/2013.1/901 2013/11/27
 24 26  0  0  0  0  0  0  0  0999 V2000
  -13.9393   -0.7743   -2.7517 P   0  0  1  0  0  0  0  0  0  0  0  0
  -15.1147   -0.6414   -3.6962 O   0  0  0  0  0  0  0  0  0  0  0  0
  -13.4892    0.4907   -2.0594 O   0  5  0  0  0  0  0  0  0  0  0  0
  -14.0381   -1.9600   -1.8036 O   0  0  0  0  0  0  0  0  0  0  0  0
  -11.3383   -1.2943   -3.2793 C   0  0  0  0  0  0  0  0  0  0  0  0
  -12.6787   -1.0477   -3.7383 O   0  0  0  0  0  0  0  0  0  0  0  0
  -10.4096   -1.5137   -4.4772 C   0  0  1  0  0  0  0  0  0  0  0  0
  -10.2768   -0.3300   -5.2742 O   0  0  0  0  0  0  0  0  0  0  0  0
   -8.9928   -1.9279   -4.1185 C   0  0  1  0  0  0  0  0  0  0  0  0
   -8.9252   -3.3563   -4.0736 O   0  0  0  0  0  0  0  0  0  0  0  0
   -8.1637   -1.3665   -5.2620 C   0  0  1  0  0  0  0  0  0  0  0  0
   -8.1997   -2.2515   -6.3907 O   0  0  0  0  0  0  0  0  0  0  0  0
   -8.9196   -0.1223   -5.6844 C   0  0  2  0  0  0  0  0  0  0  0  0
   -4.9393    3.0089   -5.0443 N   0  0  0  0  0  0  0  0  0  0  0  0
   -5.0405    1.8911   -5.7991 C   0  0  1  0  0  0  0  0  0  0  0  0
   -3.9731    1.4850   -6.5231 N   0  0  0  0  0  0  0  0  0  0  0  0
   -6.1908    1.1786   -5.8374 N   0  0  0  0  0  0  0  0  0  0  0  0
   -7.2564    1.5902   -5.1095 C   0  0  1  0  0  0  0  0  0  0  0  0
   -7.1806    2.7268   -4.3288 C   0  0  2  0  0  0  0  0  0  0  0  0
   -5.9884    3.4411   -4.3074 C   0  0  0  0  0  0  0  0  0  0  0  0
   -5.8772    4.4727   -3.6160 O   0  0  0  0  0  0  0  0  0  0  0  0
   -8.3774    2.8777   -3.7257 N   0  0  0  0  0  0  0  0  0  0  0  0
   -9.1748    1.8620   -4.1312 C   0  0  0  0  0  0  0  0  0  0  0  0
   -8.4778    1.0912   -4.9722 N   0  0  1  0  0  0  0  0  0  0  0  0
  1  2  1  6  0  0  0
  1  3  1  0  0  0  0
  1  4  2  0  0  0  0
  1  6  1  0  0  0  0
  5  6  1  0  0  0  0
  7  5  1  1  0  0  0
  7  8  1  0  0  0  0
  7  9  1  0  0  0  0
  9 10  1  6  0  0  0
  9 11  1  0  0  0  0
 11 12  1  6  0  0  0
 11 13  1  0  0  0  0
 13  8  1  1  0  0  0
 13 24  1  0  0  0  0
 14 15  1  0  0  0  0
 14 20  1  0  0  0  0
 15 16  1  1  0  0  0
 15 17  1  0  0  0  0
 18 17  1  6  0  0  0
 18 19  1  0  0  0  0
 18 24  1  0  0  0  0
 19 20  1  1  0  0  0
 19 22  1  0  0  0  0
 20 21  2  0  0  0  0
 22 23  1  0  0  0  0
 24 23  1  6  0  0  0
M  CHG  1   3  -1
M  END
>  <CHROM.1>
-177.41673142,65.66781347,179.83743196,179.94226165,-9.42404681,0.26185615
-4.29677678,2.84504502,-0.38901753,-2.81679445

>  <Name>
ligand

>  <RI>
0

>  <Rbt.Current_Directory>
/home/itssahil/PROJECTS/Mol_Feturizer/New_Systems/rnas/3SLQ

>  <Rbt.Executable>
rbdock ($Id: //depot/dev/client3/rdock/2013.1/src/exe/rbdock.cxx#4 $)

>  <Rbt.Library>
libRbt.so (2013.1, Build901 2013/11/27)

>  <Rbt.Parameter_File>
/export/apps/rDock/src/rDock_2013.1_src/data/scripts/dock_solv.prm

>  <Rbt.Receptor>
prm/blind_docking_60.prm

>  <SCORE>
-23.5857

>  <SCORE.INTER>
-17.6797

>  <SCORE.INTER.CONST>
1

>  <SCORE.INTER.POLAR>
0

>  <SCORE.INTER.ROT>
4

>  <SCORE.INTER.SOLV>
15.7319

>  <SCORE.INTER.VDW>
-23.2971

>  <SCORE.INTER.norm>
-0.736655

>  <SCORE.INTRA>
-5.90595

>  <SCORE.INTRA.DIHEDRAL>
-11.9253

>  <SCORE.INTRA.DIHEDRAL.0>
13.2525

>  <SCORE.INTRA.POLAR>
0

>  <SCORE.INTRA.POLAR.0>
0

>  <SCORE.INTRA.REPUL>
0

>  <SCORE.INTRA.REPUL.0>
0

>  <SCORE.INTRA.SOLV>
0.446157

>  <SCORE.INTRA.SOLV.lig_0>
-70.7221

>  <SCORE.INTRA.VDW>
-0.166394

>  <SCORE.INTRA.VDW.0>
-1.46337

>  <SCORE.INTRA.norm>
-0.246081

>  <SCORE.RESTR>
0

>  <SCORE.RESTR.CAVITY>
0

>  <SCORE.RESTR.norm>
0

>  <SCORE.SYSTEM>
0

>  <SCORE.SYSTEM.CONST>
0

>  <SCORE.SYSTEM.DIHEDRAL>
0

>  <SCORE.SYSTEM.SOLV>
0

>  <SCORE.SYSTEM.norm>
0

>  <SCORE.heavy>
24

>  <SCORE.norm>
-0.982736

>  <RMSD>
16.911

$$$$
ligand
 OpenBabel11021811483D
libRbt.so/2013.1/901 2013/11/27
 24 26  0  0  0  0  0  0  0  0999 V2000
   -8.7061   -2.0418   -7.0008 P   0  0  1  0  0  0  0  0  0  0  0  0
   -9.3687   -0.7116   -7.2891 O   0  0  0  0  0  0  0  0  0  0  0  0
   -8.9181   -3.1321   -8.0246 O   0  5  0  0  0  0  0  0  0  0  0  0
   -7.2558   -1.9273   -6.5556 O   0  0  0  0  0  0  0  0  0  0  0  0
   -9.5669   -2.0370   -4.4371 C   0  0  0  0  0  0  0  0  0  0  0  0
   -9.5519   -2.6319   -5.7464 O   0  0  0  0  0  0  0  0  0  0  0  0
  -10.2488   -0.6669   -4.4954 C   0  0  1  0  0  0  0  0  0  0  0  0
  -11.6775   -0.7800   -4.4809 O   0  0  0  0  0  0  0  0  0  0  0  0
   -9.8997    0.2686   -3.3505 C   0  0  1  0  0  0  0  0  0  0  0  0
   -8.7634    1.0536   -3.7239 O   0  0  0  0  0  0  0  0  0  0  0  0
  -11.1464    1.1262   -3.2064 C   0  0  1  0  0  0  0  0  0  0  0  0
  -11.1338    2.1959   -4.1624 O   0  0  0  0  0  0  0  0  0  0  0  0
  -12.2739    0.2048   -3.6277 C   0  0  2  0  0  0  0  0  0  0  0  0
  -14.9247    0.7251    0.7035 N   0  0  0  0  0  0  0  0  0  0  0  0
  -14.4989    1.6729   -0.1624 C   0  0  1  0  0  0  0  0  0  0  0  0
  -14.7855    2.9707    0.0867 N   0  0  0  0  0  0  0  0  0  0  0  0
  -13.7933    1.3392   -1.2683 N   0  0  0  0  0  0  0  0  0  0  0  0
  -13.5089    0.0374   -1.5120 C   0  0  1  0  0  0  0  0  0  0  0  0
  -13.9297   -0.9509   -0.6441 C   0  0  2  0  0  0  0  0  0  0  0  0
  -14.6534   -0.5820    0.4838 C   0  0  0  0  0  0  0  0  0  0  0  0
  -15.0523   -1.4425    1.2933 O   0  0  0  0  0  0  0  0  0  0  0  0
  -13.4986   -2.1285   -1.1403 N   0  0  0  0  0  0  0  0  0  0  0  0
  -12.8340   -1.8726   -2.2914 C   0  0  0  0  0  0  0  0  0  0  0  0
  -12.8517   -0.5526   -2.5018 N   0  0  1  0  0  0  0  0  0  0  0  0
  1  2  1  6  0  0  0
  1  3  1  0  0  0  0
  1  4  2  0  0  0  0
  1  6  1  0  0  0  0
  5  6  1  0  0  0  0
  7  5  1  1  0  0  0
  7  8  1  0  0  0  0
  7  9  1  0  0  0  0
  9 10  1  6  0  0  0
  9 11  1  0  0  0  0
 11 12  1  6  0  0  0
 11 13  1  0  0  0  0
 13  8  1  6  0  0  0
 13 24  1  0  0  0  0
 14 15  1  0  0  0  0
 14 20  1  0  0  0  0
 15 16  1  1  0  0  0
 15 17  1  0  0  0  0
 18 17  1  6  0  0  0
 18 19  1  0  0  0  0
 18 24  1  0  0  0  0
 19 20  1  1  0  0  0
 19 22  1  0  0  0  0
 20 21  2  0  0  0  0
 22 23  1  0  0  0  0
 24 23  1  6  0  0  0
M  CHG  1   3  -1
M  END
>  <CHROM.1>
-65.99314993,80.77849813,66.39440413,-179.05701969,-11.51833061,-0.52110299
-3.36884593,0.35182431,-0.82802267,-2.99473450

>  <Name>
ligand

>  <RI>
0

>  <Rbt.Current_Directory>
/home/itssahil/PROJECTS/Mol_Feturizer/New_Systems/rnas/3SLQ

>  <Rbt.Executable>
rbdock ($Id: //depot/dev/client3/rdock/2013.1/src/exe/rbdock.cxx#4 $)

>  <Rbt.Library>
libRbt.so (2013.1, Build901 2013/11/27)

>  <Rbt.Parameter_File>
/export/apps/rDock/src/rDock_2013.1_src/data/scripts/dock_solv.prm

>  <Rbt.Receptor>
prm/blind_docking_40.prm

>  <SCORE>
-19.2291

>  <SCORE.INTER>
-13.9368

>  <SCORE.INTER.CONST>
1

>  <SCORE.INTER.POLAR>
0

>  <SCORE.INTER.ROT>
4

>  <SCORE.INTER.SOLV>
12.8933

>  <SCORE.INTER.VDW>
-19.8556

>  <SCORE.INTER.norm>
-0.580699

>  <SCORE.INTRA>
-5.29234

>  <SCORE.INTRA.DIHEDRAL>
-10.3817

>  <SCORE.INTRA.DIHEDRAL.0>
13.2525

>  <SCORE.INTRA.POLAR>
0

>  <SCORE.INTRA.POLAR.0>
0

>  <SCORE.INTRA.REPUL>
0

>  <SCORE.INTRA.REPUL.0>
0

>  <SCORE.INTRA.SOLV>
0.906063

>  <SCORE.INTRA.SOLV.lig_0>
-70.7221

>  <SCORE.INTRA.VDW>
-0.55451

>  <SCORE.INTRA.VDW.0>
-1.46337

>  <SCORE.INTRA.norm>
-0.220514

>  <SCORE.RESTR>
0

>  <SCORE.RESTR.CAVITY>
0

>  <SCORE.RESTR.norm>
0

>  <SCORE.SYSTEM>
0

>  <SCORE.SYSTEM.CONST>
0

>  <SCORE.SYSTEM.DIHEDRAL>
0

>  <SCORE.SYSTEM.SOLV>
0

>  <SCORE.SYSTEM.norm>
0

>  <SCORE.heavy>
24

>  <SCORE.norm>
-0.801213

>  <RMSD>
16.930

$$$$
ligand
 OpenBabel11021811483D
libRbt.so/2013.1/901 2013/11/27
 24 26  0  0  0  0  0  0  0  0999 V2000
   -8.3128   -2.5872   -5.3318 P   0  0  1  0  0  0  0  0  0  0  0  0
   -8.4005   -3.3295   -4.0154 O   0  0  0  0  0  0  0  0  0  0  0  0
   -6.9233   -2.3360   -5.8684 O   0  5  0  0  0  0  0  0  0  0  0  0
   -9.2705   -3.1005   -6.3968 O   0  0  0  0  0  0  0  0  0  0  0  0
   -8.5729    0.0613   -5.8127 C   0  0  0  0  0  0  0  0  0  0  0  0
   -8.7730   -1.0760   -4.9555 O   0  0  0  0  0  0  0  0  0  0  0  0
   -9.3563    1.2627   -5.2753 C   0  0  1  0  0  0  0  0  0  0  0  0
  -10.7716    1.0413   -5.3206 O   0  0  0  0  0  0  0  0  0  0  0  0
   -9.0452    1.6348   -3.8357 C   0  0  1  0  0  0  0  0  0  0  0  0
   -7.9816    2.5916   -3.8242 O   0  0  0  0  0  0  0  0  0  0  0  0
  -10.3476    2.2435   -3.3420 C   0  0  1  0  0  0  0  0  0  0  0  0
  -10.4420    3.6188   -3.7393 O   0  0  0  0  0  0  0  0  0  0  0  0
  -11.4150    1.5089   -4.1286 C   0  0  2  0  0  0  0  0  0  0  0  0
  -14.3830   -0.1038   -0.3015 N   0  0  0  0  0  0  0  0  0  0  0  0
  -14.0980    1.1586   -0.6946 C   0  0  1  0  0  0  0  0  0  0  0  0
  -14.6488    2.1976   -0.0271 N   0  0  0  0  0  0  0  0  0  0  0  0
  -13.2726    1.3922   -1.7416 N   0  0  0  0  0  0  0  0  0  0  0  0
  -12.7235    0.3473   -2.4059 C   0  0  1  0  0  0  0  0  0  0  0  0
  -12.9957   -0.9520   -2.0251 C   0  0  2  0  0  0  0  0  0  0  0  0
  -13.8471   -1.1651   -0.9473 C   0  0  0  0  0  0  0  0  0  0  0  0
  -14.1193   -2.3221   -0.5705 O   0  0  0  0  0  0  0  0  0  0  0  0
  -12.3115   -1.7638   -2.8569 N   0  0  0  0  0  0  0  0  0  0  0  0
  -11.6392   -0.9830   -3.7347 C   0  0  0  0  0  0  0  0  0  0  0  0
  -11.9024    0.2955   -3.4465 N   0  0  1  0  0  0  0  0  0  0  0  0
  1  2  1  1  0  0  0
  1  3  1  0  0  0  0
  1  4  2  0  0  0  0
  1  6  1  0  0  0  0
  5  6  1  0  0  0  0
  7  5  1  1  0  0  0
  7  8  1  0  0  0  0
  7  9  1  0  0  0  0
  9 10  1  6  0  0  0
  9 11  1  0  0  0  0
 11 12  1  6  0  0  0
 11 13  1  0  0  0  0
 13  8  1  6  0  0  0
 13 24  1  0  0  0  0
 14 15  1  0  0  0  0
 14 20  1  0  0  0  0
 15 16  1  1  0  0  0
 15 17  1  0  0  0  0
 18 17  1  6  0  0  0
 18 19  1  0  0  0  0
 18 24  1  0  0  0  0
 19 20  1  1  0  0  0
 19 22  1  0  0  0  0
 20 21  2  0  0  0  0
 22 23  1  0  0  0  0
 24 23  1  6  0  0  0
M  CHG  1   3  -1
M  END
>  <CHROM.1>
165.80012978,-65.09814143,169.19547054,-169.73155805,-10.82201260,-0.17508889
-3.52706171,0.29498648,-0.65738994,-3.10029711

>  <Name>
ligand

>  <RI>
0

>  <Rbt.Current_Directory>
/home/itssahil/PROJECTS/Mol_Feturizer/New_Systems/rnas/3SLQ

>  <Rbt.Executable>
rbdock ($Id: //depot/dev/client3/rdock/2013.1/src/exe/rbdock.cxx#4 $)

>  <Rbt.Library>
libRbt.so (2013.1, Build901 2013/11/27)

>  <Rbt.Parameter_File>
/export/apps/rDock/src/rDock_2013.1_src/data/scripts/dock_solv.prm

>  <Rbt.Receptor>
prm/blind_docking_60.prm

>  <SCORE>
-21.7696

>  <SCORE.INTER>
-15.864

>  <SCORE.INTER.CONST>
1

>  <SCORE.INTER.POLAR>
0

>  <SCORE.INTER.ROT>
4

>  <SCORE.INTER.SOLV>
14.4338

>  <SCORE.INTER.VDW>
-21.6539

>  <SCORE.INTER.norm>
-0.661001

>  <SCORE.INTRA>
-5.90559

>  <SCORE.INTRA.DIHEDRAL>
-11.0723

>  <SCORE.INTRA.DIHEDRAL.0>
13.2525

>  <SCORE.INTRA.POLAR>
0

>  <SCORE.INTRA.POLAR.0>
0

>  <SCORE.INTRA.REPUL>
0

>  <SCORE.INTRA.REPUL.0>
0

>  <SCORE.INTRA.SOLV>
0.660091

>  <SCORE.INTRA.SOLV.lig_0>
-70.7221

>  <SCORE.INTRA.VDW>
-0.699477

>  <SCORE.INTRA.VDW.0>
-1.46337

>  <SCORE.INTRA.norm>
-0.246066

>  <SCORE.RESTR>
0

>  <SCORE.RESTR.CAVITY>
0

>  <SCORE.RESTR.norm>
0

>  <SCORE.SYSTEM>
0

>  <SCORE.SYSTEM.CONST>
0

>  <SCORE.SYSTEM.DIHEDRAL>
0

>  <SCORE.SYSTEM.SOLV>
0

>  <SCORE.SYSTEM.norm>
0

>  <SCORE.heavy>
24

>  <SCORE.norm>
-0.907068

>  <RMSD>
16.935

$$$$
ligand
 OpenBabel11021811483D
libRbt.so/2013.1/901 2013/11/27
 24 26  0  0  0  0  0  0  0  0999 V2000
   -8.7269   -2.0318   -6.9889 P   0  0  1  0  0  0  0  0  0  0  0  0
   -9.3775   -0.6901   -7.2499 O   0  0  0  0  0  0  0  0  0  0  0  0
   -8.9674   -3.1060   -8.0233 O   0  5  0  0  0  0  0  0  0  0  0  0
   -7.2688   -1.9404   -6.5643 O   0  0  0  0  0  0  0  0  0  0  0  0
   -9.5806   -2.0276   -4.4228 C   0  0  0  0  0  0  0  0  0  0  0  0
   -9.5608   -2.6280   -5.7295 O   0  0  0  0  0  0  0  0  0  0  0  0
  -10.2609   -0.6571   -4.4897 C   0  0  1  0  0  0  0  0  0  0  0  0
  -11.6896   -0.7680   -4.4669 O   0  0  0  0  0  0  0  0  0  0  0  0
   -9.9046    0.2879   -3.3549 C   0  0  1  0  0  0  0  0  0  0  0  0
   -8.7692    1.0679   -3.7410 O   0  0  0  0  0  0  0  0  0  0  0  0
  -11.1493    1.1485   -3.2120 C   0  0  1  0  0  0  0  0  0  0  0  0
  -11.1401    2.2097   -4.1774 O   0  0  0  0  0  0  0  0  0  0  0  0
  -12.2803    0.2251   -3.6193 C   0  0  2  0  0  0  0  0  0  0  0  0
  -15.0039    0.7731    0.6630 N   0  0  0  0  0  0  0  0  0  0  0  0
  -14.5914    1.7119   -0.2190 C   0  0  1  0  0  0  0  0  0  0  0  0
  -14.9157    3.0069   -0.0040 N   0  0  0  0  0  0  0  0  0  0  0  0
  -13.8619    1.3720   -1.3074 N   0  0  0  0  0  0  0  0  0  0  0  0
  -13.5397    0.0732   -1.5169 C   0  0  1  0  0  0  0  0  0  0  0  0
  -13.9461   -0.9060   -0.6318 C   0  0  2  0  0  0  0  0  0  0  0  0
  -14.6949   -0.5309    0.4775 C   0  0  0  0  0  0  0  0  0  0  0  0
  -15.0820   -1.3830    1.3014 O   0  0  0  0  0  0  0  0  0  0  0  0
  -13.4770   -2.0826   -1.0948 N   0  0  0  0  0  0  0  0  0  0  0  0
  -12.8035   -1.8354   -2.2425 C   0  0  0  0  0  0  0  0  0  0  0  0
  -12.8534   -0.5215   -2.4839 N   0  0  1  0  0  0  0  0  0  0  0  0
  1  2  1  6  0  0  0
  1  3  1  0  0  0  0
  1  4  2  0  0  0  0
  1  6  1  0  0  0  0
  5  6  1  0  0  0  0
  7  5  1  1  0  0  0
  7  8  1  0  0  0  0
  7  9  1  0  0  0  0
  9 10  1  6  0  0  0
  9 11  1  0  0  0  0
 11 12  1  6  0  0  0
 11 13  1  0  0  0  0
 13  8  1  6  0  0  0
 13 24  1  0  0  0  0
 14 15  1  0  0  0  0
 14 20  1  0  0  0  0
 15 16  1  1  0  0  0
 15 17  1  0  0  0  0
 18 17  1  6  0  0  0
 18 19  1  0  0  0  0
 18 24  1  0  0  0  0
 19 20  1  1  0  0  0
 19 22  1  0  0  0  0
 20 21  2  0  0  0  0
 22 23  1  0  0  0  0
 24 23  1  6  0  0  0
M  CHG  1   3  -1
M  END
>  <CHROM.1>
-64.06329988,81.36814398,65.44819022,-176.95462842,-11.54295286,-0.49632032
-3.36979228,0.33399427,-0.82820132,-3.02281495

>  <Name>
ligand

>  <RI>
0

>  <Rbt.Current_Directory>
/home/itssahil/PROJECTS/Mol_Feturizer/New_Systems/rnas/3SLQ

>  <Rbt.Executable>
rbdock ($Id: //depot/dev/client3/rdock/2013.1/src/exe/rbdock.cxx#4 $)

>  <Rbt.Library>
libRbt.so (2013.1, Build901 2013/11/27)

>  <Rbt.Parameter_File>
/export/apps/rDock/src/rDock_2013.1_src/data/scripts/dock_solv.prm

>  <Rbt.Receptor>
prm/blind_docking_20.prm

>  <SCORE>
-19.2713

>  <SCORE.INTER>
-13.9996

>  <SCORE.INTER.CONST>
1

>  <SCORE.INTER.POLAR>
0

>  <SCORE.INTER.ROT>
4

>  <SCORE.INTER.SOLV>
13.2332

>  <SCORE.INTER.VDW>
-20.0108

>  <SCORE.INTER.norm>
-0.583315

>  <SCORE.INTRA>
-5.27173

>  <SCORE.INTRA.DIHEDRAL>
-10.3923

>  <SCORE.INTRA.DIHEDRAL.0>
13.2525

>  <SCORE.INTRA.POLAR>
0

>  <SCORE.INTRA.POLAR.0>
0

>  <SCORE.INTRA.REPUL>
0

>  <SCORE.INTRA.REPUL.0>
0

>  <SCORE.INTRA.SOLV>
0.911257

>  <SCORE.INTRA.SOLV.lig_0>
-70.7221

>  <SCORE.INTRA.VDW>
-0.531214

>  <SCORE.INTRA.VDW.0>
-1.46337

>  <SCORE.INTRA.norm>
-0.219655

>  <SCORE.RESTR>
0

>  <SCORE.RESTR.CAVITY>
0

>  <SCORE.RESTR.norm>
0

>  <SCORE.SYSTEM>
0

>  <SCORE.SYSTEM.CONST>
0

>  <SCORE.SYSTEM.DIHEDRAL>
0

>  <SCORE.SYSTEM.SOLV>
0

>  <SCORE.SYSTEM.norm>
0

>  <SCORE.heavy>
24

>  <SCORE.norm>
-0.80297

>  <RMSD>
16.944

$$$$
ligand
 OpenBabel11021811483D
libRbt.so/2013.1/901 2013/11/27
 24 26  0  0  0  0  0  0  0  0999 V2000
   -8.1274   -2.4615   -5.4632 P   0  0  1  0  0  0  0  0  0  0  0  0
   -6.6712   -2.2596   -5.8238 O   0  0  0  0  0  0  0  0  0  0  0  0
   -9.0629   -2.7804   -6.6055 O   0  5  0  0  0  0  0  0  0  0  0  0
   -8.3472   -3.3597   -4.2550 O   0  0  0  0  0  0  0  0  0  0  0  0
   -8.4407    0.1926   -5.8774 C   0  0  0  0  0  0  0  0  0  0  0  0
   -8.6359   -0.9733   -5.0583 O   0  0  0  0  0  0  0  0  0  0  0  0
   -9.2575    1.3627   -5.3209 C   0  0  1  0  0  0  0  0  0  0  0  0
  -10.6668    1.1116   -5.3907 O   0  0  0  0  0  0  0  0  0  0  0  0
   -8.9732    1.7053   -3.8685 C   0  0  1  0  0  0  0  0  0  0  0  0
   -7.9313    2.6846   -3.8191 O   0  0  0  0  0  0  0  0  0  0  0  0
  -10.2950    2.2727   -3.3774 C   0  0  1  0  0  0  0  0  0  0  0  0
  -10.4148    3.6552   -3.7417 O   0  0  0  0  0  0  0  0  0  0  0  0
  -11.3356    1.5349   -4.1962 C   0  0  2  0  0  0  0  0  0  0  0  0
  -14.3187   -0.2379   -0.4525 N   0  0  0  0  0  0  0  0  0  0  0  0
  -14.0571    1.0399   -0.8106 C   0  0  1  0  0  0  0  0  0  0  0  0
  -14.6406    2.0495   -0.1259 N   0  0  0  0  0  0  0  0  0  0  0  0
  -13.2229    1.3178   -1.8396 N   0  0  0  0  0  0  0  0  0  0  0  0
  -12.6410    0.3021   -2.5212 C   0  0  1  0  0  0  0  0  0  0  0  0
  -12.8889   -1.0120   -2.1763 C   0  0  2  0  0  0  0  0  0  0  0  0
  -13.7500   -1.2706   -1.1163 C   0  0  0  0  0  0  0  0  0  0  0  0
  -14.0010   -2.4424   -0.7718 O   0  0  0  0  0  0  0  0  0  0  0  0
  -12.1749   -1.7874   -3.0177 N   0  0  0  0  0  0  0  0  0  0  0  0
  -11.5085   -0.9703   -3.8664 C   0  0  0  0  0  0  0  0  0  0  0  0
  -11.8047    0.2945   -3.5509 N   0  0  1  0  0  0  0  0  0  0  0  0
  1  2  1  6  0  0  0
  1  3  1  0  0  0  0
  1  4  2  0  0  0  0
  1  6  1  0  0  0  0
  5  6  1  0  0  0  0
  7  5  1  1  0  0  0
  7  8  1  0  0  0  0
  7  9  1  0  0  0  0
  9 10  1  6  0  0  0
  9 11  1  0  0  0  0
 11 12  1  6  0  0  0
 11 13  1  0  0  0  0
 13  8  1  6  0  0  0
 13 24  1  0  0  0  0
 14 15  1  0  0  0  0
 14 20  1  0  0  0  0
 15 16  1  1  0  0  0
 15 17  1  0  0  0  0
 18 17  1  6  0  0  0
 18 19  1  0  0  0  0
 18 24  1  0  0  0  0
 19 20  1  1  0  0  0
 19 22  1  0  0  0  0
 20 21  2  0  0  0  0
 22 23  1  0  0  0  0
 24 23  1  6  0  0  0
M  CHG  1   3  -1
M  END
>  <CHROM.1>
50.96000880,-64.58258306,169.78658247,-169.66453279,-10.71714012,-0.15169810
-3.62992701,0.26607707,-0.64484362,-3.09481173

>  <Name>
ligand

>  <RI>
0

>  <Rbt.Current_Directory>
/home/itssahil/PROJECTS/Mol_Feturizer/New_Systems/rnas/3SLQ

>  <Rbt.Executable>
rbdock ($Id: //depot/dev/client3/rdock/2013.1/src/exe/rbdock.cxx#4 $)

>  <Rbt.Library>
libRbt.so (2013.1, Build901 2013/11/27)

>  <Rbt.Parameter_File>
/export/apps/rDock/src/rDock_2013.1_src/data/scripts/dock_solv.prm

>  <Rbt.Receptor>
prm/blind_docking_80.prm

>  <SCORE>
-21.4489

>  <SCORE.INTER>
-15.0652

>  <SCORE.INTER.CONST>
1

>  <SCORE.INTER.POLAR>
0

>  <SCORE.INTER.ROT>
4

>  <SCORE.INTER.SOLV>
15.3631

>  <SCORE.INTER.VDW>
-21.4311

>  <SCORE.INTER.norm>
-0.627715

>  <SCORE.INTRA>
-6.3837

>  <SCORE.INTRA.DIHEDRAL>
-11.3321

>  <SCORE.INTRA.DIHEDRAL.0>
13.2525

>  <SCORE.INTRA.POLAR>
0

>  <SCORE.INTRA.POLAR.0>
0

>  <SCORE.INTRA.REPUL>
0

>  <SCORE.INTRA.REPUL.0>
0

>  <SCORE.INTRA.SOLV>
0.170349

>  <SCORE.INTRA.SOLV.lig_0>
-70.7221

>  <SCORE.INTRA.VDW>
-0.802824

>  <SCORE.INTRA.VDW.0>
-1.46337

>  <SCORE.INTRA.norm>
-0.265988

>  <SCORE.RESTR>
0

>  <SCORE.RESTR.CAVITY>
0

>  <SCORE.RESTR.norm>
0

>  <SCORE.SYSTEM>
0

>  <SCORE.SYSTEM.CONST>
0

>  <SCORE.SYSTEM.DIHEDRAL>
0

>  <SCORE.SYSTEM.SOLV>
0

>  <SCORE.SYSTEM.norm>
0

>  <SCORE.heavy>
24

>  <SCORE.norm>
-0.893703

>  <RMSD>
17.020

$$$$
ligand
 OpenBabel11021811483D
libRbt.so/2013.1/901 2013/11/27
 24 26  0  0  0  0  0  0  0  0999 V2000
   -9.8361    3.8349   -2.8392 P   0  0  1  0  0  0  0  0  0  0  0  0
  -10.1420    3.5047   -1.3939 O   0  0  0  0  0  0  0  0  0  0  0  0
  -10.6328    4.9624   -3.4523 O   0  5  0  0  0  0  0  0  0  0  0  0
   -8.3501    3.9272   -3.1519 O   0  0  0  0  0  0  0  0  0  0  0  0
   -9.7168    1.3241   -3.8368 C   0  0  0  0  0  0  0  0  0  0  0  0
  -10.4250    2.5632   -3.6598 O   0  0  0  0  0  0  0  0  0  0  0  0
  -10.6954    0.2188   -4.2449 C   0  0  1  0  0  0  0  0  0  0  0  0
  -10.0904   -0.7293   -5.1333 O   0  0  0  0  0  0  0  0  0  0  0  0
  -11.2527   -0.5976   -3.0914 C   0  0  1  0  0  0  0  0  0  0  0  0
  -12.4628    0.0132   -2.6339 O   0  0  0  0  0  0  0  0  0  0  0  0
  -11.5171   -1.9562   -3.7195 C   0  0  1  0  0  0  0  0  0  0  0  0
  -12.7770   -1.9561   -4.4056 O   0  0  0  0  0  0  0  0  0  0  0  0
  -10.4568   -2.0730   -4.7965 C   0  0  2  0  0  0  0  0  0  0  0  0
   -6.0287   -4.0685   -6.3669 N   0  0  0  0  0  0  0  0  0  0  0  0
   -7.0429   -3.5483   -7.0950 C   0  0  1  0  0  0  0  0  0  0  0  0
   -6.9368   -3.5119   -8.4425 N   0  0  0  0  0  0  0  0  0  0  0  0
   -8.1561   -3.0670   -6.4938 N   0  0  0  0  0  0  0  0  0  0  0  0
   -8.2567   -3.1068   -5.1436 C   0  0  1  0  0  0  0  0  0  0  0  0
   -7.2372   -3.6340   -4.3756 C   0  0  2  0  0  0  0  0  0  0  0  0
   -6.1043   -4.1208   -5.0171 C   0  0  0  0  0  0  0  0  0  0  0  0
   -5.1607   -4.6053   -4.3617 O   0  0  0  0  0  0  0  0  0  0  0  0
   -7.6210   -3.5439   -3.0858 N   0  0  0  0  0  0  0  0  0  0  0  0
   -8.8454   -2.9676   -3.0591 C   0  0  0  0  0  0  0  0  0  0  0  0
   -9.2147   -2.7078   -4.3173 N   0  0  1  0  0  0  0  0  0  0  0  0
  1  2  1  1  0  0  0
  1  3  1  0  0  0  0
  1  4  2  0  0  0  0
  1  6  1  0  0  0  0
  5  6  1  0  0  0  0
  7  5  1  1  0  0  0
  7  8  1  0  0  0  0
  7  9  1  0  0  0  0
  9 10  1  6  0  0  0
  9 11  1  0  0  0  0
 11 12  1  6  0  0  0
 11 13  1  0  0  0  0
 13  8  1  1  0  0  0
 13 24  1  0  0  0  0
 14 15  1  0  0  0  0
 14 20  1  0  0  0  0
 15 16  1  6  0  0  0
 15 17  1  0  0  0  0
 18 17  1  1  0  0  0
 18 19  1  0  0  0  0
 18 24  1  0  0  0  0
 19 20  1  6  0  0  0
 19 22  1  0  0  0  0
 20 21  2  0  0  0  0
 22 23  1  0  0  0  0
 24 23  1  1  0  0  0
M  CHG  1   3  -1
M  END
>  <CHROM.1>
-82.58400288,146.46489030,161.90253045,-76.46186941,-9.22200084,-0.68299482
-4.21736035,-1.99594485,-0.24001873,-2.88615207

>  <Name>
ligand

>  <RI>
0

>  <Rbt.Current_Directory>
/home/itssahil/PROJECTS/Mol_Feturizer/New_Systems/rnas/3SLQ

>  <Rbt.Executable>
rbdock ($Id: //depot/dev/client3/rdock/2013.1/src/exe/rbdock.cxx#4 $)

>  <Rbt.Library>
libRbt.so (2013.1, Build901 2013/11/27)

>  <Rbt.Parameter_File>
/export/apps/rDock/src/rDock_2013.1_src/data/scripts/dock_solv.prm

>  <Rbt.Receptor>
prm/blind_docking_100.prm

>  <SCORE>
-21.7677

>  <SCORE.INTER>
-18.1647

>  <SCORE.INTER.CONST>
1

>  <SCORE.INTER.POLAR>
0

>  <SCORE.INTER.ROT>
4

>  <SCORE.INTER.SOLV>
22.8803

>  <SCORE.INTER.VDW>
-26.0033

>  <SCORE.INTER.norm>
-0.756864

>  <SCORE.INTRA>
-3.603

>  <SCORE.INTRA.DIHEDRAL>
-6.69887

>  <SCORE.INTRA.DIHEDRAL.0>
13.2525

>  <SCORE.INTRA.POLAR>
0

>  <SCORE.INTRA.POLAR.0>
0

>  <SCORE.INTRA.REPUL>
0

>  <SCORE.INTRA.REPUL.0>
0

>  <SCORE.INTRA.SOLV>
0.0875927

>  <SCORE.INTRA.SOLV.lig_0>
-70.7221

>  <SCORE.INTRA.VDW>
-0.297359

>  <SCORE.INTRA.VDW.0>
-1.46337

>  <SCORE.INTRA.norm>
-0.150125

>  <SCORE.RESTR>
0

>  <SCORE.RESTR.CAVITY>
0

>  <SCORE.RESTR.norm>
0

>  <SCORE.SYSTEM>
0

>  <SCORE.SYSTEM.CONST>
0

>  <SCORE.SYSTEM.DIHEDRAL>
0

>  <SCORE.SYSTEM.SOLV>
0

>  <SCORE.SYSTEM.norm>
0

>  <SCORE.heavy>
24

>  <SCORE.norm>
-0.906989

>  <RMSD>
17.153

$$$$
ligand
 OpenBabel11021811483D
libRbt.so/2013.1/901 2013/11/27
 24 26  0  0  0  0  0  0  0  0999 V2000
  -10.0320    3.3971   -3.4078 P   0  0  1  0  0  0  0  0  0  0  0  0
  -10.8146    3.1561   -4.6810 O   0  0  0  0  0  0  0  0  0  0  0  0
   -8.9138    4.4094   -3.4898 O   0  5  0  0  0  0  0  0  0  0  0  0
  -10.9009    3.5796   -2.1724 O   0  0  0  0  0  0  0  0  0  0  0  0
   -8.8244    1.1404   -4.2812 C   0  0  0  0  0  0  0  0  0  0  0  0
   -9.1875    2.0246   -3.2067 O   0  0  0  0  0  0  0  0  0  0  0  0
   -9.9434    0.1219   -4.5183 C   0  0  1  0  0  0  0  0  0  0  0  0
   -9.5022   -0.9791   -5.3227 O   0  0  0  0  0  0  0  0  0  0  0  0
  -10.5204   -0.4970   -3.2566 C   0  0  1  0  0  0  0  0  0  0  0  0
  -11.6251    0.2973   -2.8145 O   0  0  0  0  0  0  0  0  0  0  0  0
  -10.9724   -1.8733   -3.7169 C   0  0  1  0  0  0  0  0  0  0  0  0
  -12.2625   -1.7962   -4.3398 O   0  0  0  0  0  0  0  0  0  0  0  0
   -9.9971   -2.2272   -4.8219 C   0  0  2  0  0  0  0  0  0  0  0  0
   -5.6085   -4.3514   -6.3335 N   0  0  0  0  0  0  0  0  0  0  0  0
   -6.5649   -3.7395   -7.0685 C   0  0  1  0  0  0  0  0  0  0  0  0
   -6.4006   -3.6314   -8.4063 N   0  0  0  0  0  0  0  0  0  0  0  0
   -7.6778   -3.2377   -6.4839 N   0  0  0  0  0  0  0  0  0  0  0  0
   -7.8370   -3.3496   -5.1434 C   0  0  1  0  0  0  0  0  0  0  0  0
   -6.8773   -3.9709   -4.3687 C   0  0  2  0  0  0  0  0  0  0  0  0
   -5.7433   -4.4770   -4.9931 C   0  0  0  0  0  0  0  0  0  0  0  0
   -4.8526   -5.0454   -4.3311 O   0  0  0  0  0  0  0  0  0  0  0  0
   -7.3102   -3.9355   -3.0919 N   0  0  0  0  0  0  0  0  0  0  0  0
   -8.5053   -3.3004   -3.0789 C   0  0  0  0  0  0  0  0  0  0  0  0
   -8.8085   -2.9505   -4.3330 N   0  0  1  0  0  0  0  0  0  0  0  0
  1  2  1  6  0  0  0
  1  3  1  0  0  0  0
  1  4  2  0  0  0  0
  1  6  1  0  0  0  0
  5  6  1  0  0  0  0
  7  5  1  1  0  0  0
  7  8  1  0  0  0  0
  7  9  1  0  0  0  0
  9 10  1  6  0  0  0
  9 11  1  0  0  0  0
 11 12  1  6  0  0  0
 11 13  1  0  0  0  0
 13  8  1  1  0  0  0
 13 24  1  0  0  0  0
 14 15  1  0  0  0  0
 14 20  1  0  0  0  0
 15 16  1  6  0  0  0
 15 17  1  0  0  0  0
 18 17  1  1  0  0  0
 18 19  1  0  0  0  0
 18 24  1  0  0  0  0
 19 20  1  6  0  0  0
 19 22  1  0  0  0  0
 20 21  2  0  0  0  0
 22 23  1  0  0  0  0
 24 23  1  1  0  0  0
M  CHG  1   3  -1
M  END
>  <CHROM.1>
25.21608828,-164.94368611,-88.02203040,-64.85910382,-8.87224666,-0.91952917
-4.39542065,-2.10743992,-0.43286246,-3.08485083

>  <Name>
ligand

>  <RI>
0

>  <Rbt.Current_Directory>
/home/itssahil/PROJECTS/Mol_Feturizer/New_Systems/rnas/3SLQ

>  <Rbt.Executable>
rbdock ($Id: //depot/dev/client3/rdock/2013.1/src/exe/rbdock.cxx#4 $)

>  <Rbt.Library>
libRbt.so (2013.1, Build901 2013/11/27)

>  <Rbt.Parameter_File>
/export/apps/rDock/src/rDock_2013.1_src/data/scripts/dock_solv.prm

>  <Rbt.Receptor>
prm/blind_docking_100.prm

>  <SCORE>
-24.992

>  <SCORE.INTER>
-22.2359

>  <SCORE.INTER.CONST>
1

>  <SCORE.INTER.POLAR>
0

>  <SCORE.INTER.ROT>
4

>  <SCORE.INTER.SOLV>
19.9498

>  <SCORE.INTER.VDW>
-27.7405

>  <SCORE.INTER.norm>
-0.926495

>  <SCORE.INTRA>
-2.75615

>  <SCORE.INTRA.DIHEDRAL>
-6.55998

>  <SCORE.INTRA.DIHEDRAL.0>
13.2525

>  <SCORE.INTRA.POLAR>
0

>  <SCORE.INTRA.POLAR.0>
0

>  <SCORE.INTRA.REPUL>
0

>  <SCORE.INTRA.REPUL.0>
0

>  <SCORE.INTRA.SOLV>
1.84759

>  <SCORE.INTRA.SOLV.lig_0>
-70.7221

>  <SCORE.INTRA.VDW>
-0.399957

>  <SCORE.INTRA.VDW.0>
-1.46337

>  <SCORE.INTRA.norm>
-0.11484

>  <SCORE.RESTR>
0

>  <SCORE.RESTR.CAVITY>
0

>  <SCORE.RESTR.norm>
0

>  <SCORE.SYSTEM>
0

>  <SCORE.SYSTEM.CONST>
0

>  <SCORE.SYSTEM.DIHEDRAL>
0

>  <SCORE.SYSTEM.SOLV>
0

>  <SCORE.SYSTEM.norm>
0

>  <SCORE.heavy>
24

>  <SCORE.norm>
-1.04134

>  <RMSD>
17.190

$$$$
ligand
 OpenBabel11021811483D
libRbt.so/2013.1/901 2013/11/27
 24 26  0  0  0  0  0  0  0  0999 V2000
   -9.9597    3.9159   -3.0648 P   0  0  1  0  0  0  0  0  0  0  0  0
  -10.8417    5.0160   -3.6158 O   0  0  0  0  0  0  0  0  0  0  0  0
   -8.4936    3.9905   -3.4209 O   0  5  0  0  0  0  0  0  0  0  0  0
  -10.1924    3.6156   -1.5916 O   0  0  0  0  0  0  0  0  0  0  0  0
   -9.7559    1.3243   -3.8101 C   0  0  0  0  0  0  0  0  0  0  0  0
  -10.4115    2.6009   -3.9037 O   0  0  0  0  0  0  0  0  0  0  0  0
  -10.7198    0.2116   -4.2327 C   0  0  1  0  0  0  0  0  0  0  0  0
  -10.1010   -0.7194   -5.1295 O   0  0  0  0  0  0  0  0  0  0  0  0
  -11.2701   -0.6239   -3.0895 C   0  0  1  0  0  0  0  0  0  0  0  0
  -12.4888   -0.0328   -2.6288 O   0  0  0  0  0  0  0  0  0  0  0  0
  -11.5163   -1.9788   -3.7328 C   0  0  1  0  0  0  0  0  0  0  0  0
  -12.7744   -1.9866   -4.4223 O   0  0  0  0  0  0  0  0  0  0  0  0
  -10.4518   -2.0711   -4.8080 C   0  0  2  0  0  0  0  0  0  0  0  0
   -6.0296   -4.0681   -6.3933 N   0  0  0  0  0  0  0  0  0  0  0  0
   -7.0520   -3.5598   -7.1186 C   0  0  1  0  0  0  0  0  0  0  0  0
   -6.9573   -3.5384   -8.4673 N   0  0  0  0  0  0  0  0  0  0  0  0
   -8.1618   -3.0759   -6.5135 N   0  0  0  0  0  0  0  0  0  0  0  0
   -8.2509   -3.1007   -5.1621 C   0  0  1  0  0  0  0  0  0  0  0  0
   -7.2229   -3.6153   -4.3968 C   0  0  2  0  0  0  0  0  0  0  0  0
   -6.0937   -4.1053   -5.0424 C   0  0  0  0  0  0  0  0  0  0  0  0
   -5.1428   -4.5788   -4.3896 O   0  0  0  0  0  0  0  0  0  0  0  0
   -7.5962   -3.5120   -3.1050 N   0  0  0  0  0  0  0  0  0  0  0  0
   -8.8224   -2.9399   -3.0744 C   0  0  0  0  0  0  0  0  0  0  0  0
   -9.2034   -2.6958   -4.3323 N   0  0  1  0  0  0  0  0  0  0  0  0
  1  2  1  6  0  0  0
  1  3  1  0  0  0  0
  1  4  2  0  0  0  0
  1  6  1  0  0  0  0
  5  6  1  0  0  0  0
  7  5  1  1  0  0  0
  7  8  1  0  0  0  0
  7  9  1  0  0  0  0
  9 10  1  6  0  0  0
  9 11  1  0  0  0  0
 11 12  1  6  0  0  0
 11 13  1  0  0  0  0
 13  8  1  1  0  0  0
 13 24  1  0  0  0  0
 14 15  1  0  0  0  0
 14 20  1  0  0  0  0
 15 16  1  6  0  0  0
 15 17  1  0  0  0  0
 18 17  1  1  0  0  0
 18 19  1  0  0  0  0
 18 24  1  0  0  0  0
 19 20  1  6  0  0  0
 19 22  1  0  0  0  0
 20 21  2  0  0  0  0
 22 23  1  0  0  0  0
 24 23  1  1  0  0  0
M  CHG  1   3  -1
M  END
>  <CHROM.1>
173.99175871,133.98092179,156.60982895,-77.95954170,-9.25204966,-0.66549798
-4.28500454,-2.01325758,-0.28326080,-2.93422228

>  <Name>
ligand

>  <RI>
0

>  <Rbt.Current_Directory>
/home/itssahil/PROJECTS/Mol_Feturizer/New_Systems/rnas/3SLQ

>  <Rbt.Executable>
rbdock ($Id: //depot/dev/client3/rdock/2013.1/src/exe/rbdock.cxx#4 $)

>  <Rbt.Library>
libRbt.so (2013.1, Build901 2013/11/27)

>  <Rbt.Parameter_File>
/export/apps/rDock/src/rDock_2013.1_src/data/scripts/dock_solv.prm

>  <Rbt.Receptor>
prm/blind_docking_80.prm

>  <SCORE>
-21.1899

>  <SCORE.INTER>
-18.7756

>  <SCORE.INTER.CONST>
1

>  <SCORE.INTER.POLAR>
0

>  <SCORE.INTER.ROT>
4

>  <SCORE.INTER.SOLV>
22.3702

>  <SCORE.INTER.VDW>
-26.2404

>  <SCORE.INTER.norm>
-0.782315

>  <SCORE.INTRA>
-2.41431

>  <SCORE.INTRA.DIHEDRAL>
-5.02681

>  <SCORE.INTRA.DIHEDRAL.0>
13.2525

>  <SCORE.INTRA.POLAR>
0

>  <SCORE.INTRA.POLAR.0>
0

>  <SCORE.INTRA.REPUL>
0

>  <SCORE.INTRA.REPUL.0>
0

>  <SCORE.INTRA.SOLV>
0.616808

>  <SCORE.INTRA.SOLV.lig_0>
-70.7221

>  <SCORE.INTRA.VDW>
-0.209302

>  <SCORE.INTRA.VDW.0>
-1.46337

>  <SCORE.INTRA.norm>
-0.100596

>  <SCORE.RESTR>
0

>  <SCORE.RESTR.CAVITY>
0

>  <SCORE.RESTR.norm>
0

>  <SCORE.SYSTEM>
0

>  <SCORE.SYSTEM.CONST>
0

>  <SCORE.SYSTEM.DIHEDRAL>
0

>  <SCORE.SYSTEM.SOLV>
0

>  <SCORE.SYSTEM.norm>
0

>  <SCORE.heavy>
24

>  <SCORE.norm>
-0.882911

>  <RMSD>
17.215

$$$$
ligand
 OpenBabel11021811483D
libRbt.so/2013.1/901 2013/11/27
 24 26  0  0  0  0  0  0  0  0999 V2000
   -8.1972   -2.0748   -6.1100 P   0  0  1  0  0  0  0  0  0  0  0  0
   -6.7043   -1.8252   -6.1327 O   0  0  0  0  0  0  0  0  0  0  0  0
   -8.8724   -2.2245   -7.4529 O   0  5  0  0  0  0  0  0  0  0  0  0
   -8.6319   -3.1374   -5.1117 O   0  0  0  0  0  0  0  0  0  0  0  0
   -8.5744    0.5987   -6.2630 C   0  0  0  0  0  0  0  0  0  0  0  0
   -8.8188   -0.6598   -5.6114 O   0  0  0  0  0  0  0  0  0  0  0  0
   -9.3288    1.7164   -5.5367 C   0  0  1  0  0  0  0  0  0  0  0  0
  -10.7420    1.4788   -5.5121 O   0  0  0  0  0  0  0  0  0  0  0  0
   -8.9222    1.9233   -4.0877 C   0  0  1  0  0  0  0  0  0  0  0  0
   -7.8683    2.8894   -4.0359 O   0  0  0  0  0  0  0  0  0  0  0  0
  -10.1924    2.4490   -3.4392 C   0  0  1  0  0  0  0  0  0  0  0  0
  -10.3254    3.8595   -3.6651 O   0  0  0  0  0  0  0  0  0  0  0  0
  -11.3055    1.7937   -4.2327 C   0  0  2  0  0  0  0  0  0  0  0  0
  -14.2628   -0.3028   -0.6389 N   0  0  0  0  0  0  0  0  0  0  0  0
  -14.0457    1.0024   -0.9193 C   0  0  1  0  0  0  0  0  0  0  0  0
  -14.6751    1.9483   -0.1860 N   0  0  0  0  0  0  0  0  0  0  0  0
  -13.2107    1.3703   -1.9190 N   0  0  0  0  0  0  0  0  0  0  0  0
  -12.5826    0.4182   -2.6497 C   0  0  1  0  0  0  0  0  0  0  0  0
  -12.7844   -0.9220   -2.3842 C   0  0  2  0  0  0  0  0  0  0  0  0
  -13.6475   -1.2734   -1.3529 C   0  0  0  0  0  0  0  0  0  0  0  0
  -13.8578   -2.4717   -1.0798 O   0  0  0  0  0  0  0  0  0  0  0  0
  -12.0317   -1.6202   -3.2587 N   0  0  0  0  0  0  0  0  0  0  0  0
  -11.3869   -0.7311   -4.0498 C   0  0  0  0  0  0  0  0  0  0  0  0
  -11.7346    0.5014   -3.6664 N   0  0  1  0  0  0  0  0  0  0  0  0
  1  2  1  6  0  0  0
  1  3  1  0  0  0  0
  1  4  2  0  0  0  0
  1  6  1  0  0  0  0
  5  6  1  0  0  0  0
  7  5  1  1  0  0  0
  7  8  1  0  0  0  0
  7  9  1  0  0  0  0
  9 10  1  6  0  0  0
  9 11  1  0  0  0  0
 11 12  1  6  0  0  0
 11 13  1  0  0  0  0
 13  8  1  6  0  0  0
 13 24  1  0  0  0  0
 14 15  1  0  0  0  0
 14 20  1  0  0  0  0
 15 16  1  1  0  0  0
 15 17  1  0  0  0  0
 18 17  1  6  0  0  0
 18 19  1  0  0  0  0
 18 24  1  0  0  0  0
 19 20  1  1  0  0  0
 19 22  1  0  0  0  0
 20 21  2  0  0  0  0
 22 23  1  0  0  0  0
 24 23  1  6  0  0  0
M  CHG  1   3  -1
M  END
>  <CHROM.1>
55.88533354,-59.16734615,179.32246909,-163.29737028,-10.70523094,0.06133221
-3.91854953,0.26924375,-0.68534813,-3.00191678

>  <Name>
ligand

>  <RI>
0

>  <Rbt.Current_Directory>
/home/itssahil/PROJECTS/Mol_Feturizer/New_Systems/rnas/3SLQ

>  <Rbt.Executable>
rbdock ($Id: //depot/dev/client3/rdock/2013.1/src/exe/rbdock.cxx#4 $)

>  <Rbt.Library>
libRbt.so (2013.1, Build901 2013/11/27)

>  <Rbt.Parameter_File>
/export/apps/rDock/src/rDock_2013.1_src/data/scripts/dock_solv.prm

>  <Rbt.Receptor>
prm/blind_docking_80.prm

>  <SCORE>
-21.5596

>  <SCORE.INTER>
-14.7957

>  <SCORE.INTER.CONST>
1

>  <SCORE.INTER.POLAR>
0

>  <SCORE.INTER.ROT>
4

>  <SCORE.INTER.SOLV>
14.4133

>  <SCORE.INTER.VDW>
-20.9349

>  <SCORE.INTER.norm>
-0.616488

>  <SCORE.INTRA>
-6.76391

>  <SCORE.INTRA.DIHEDRAL>
-12.0042

>  <SCORE.INTRA.DIHEDRAL.0>
13.2525

>  <SCORE.INTRA.POLAR>
0

>  <SCORE.INTRA.POLAR.0>
0

>  <SCORE.INTRA.REPUL>
0

>  <SCORE.INTRA.REPUL.0>
0

>  <SCORE.INTRA.SOLV>
0.17922

>  <SCORE.INTRA.SOLV.lig_0>
-70.7221

>  <SCORE.INTRA.VDW>
-0.851433

>  <SCORE.INTRA.VDW.0>
-1.46337

>  <SCORE.INTRA.norm>
-0.28183

>  <SCORE.RESTR>
0

>  <SCORE.RESTR.CAVITY>
0

>  <SCORE.RESTR.norm>
0

>  <SCORE.SYSTEM>
0

>  <SCORE.SYSTEM.CONST>
0

>  <SCORE.SYSTEM.DIHEDRAL>
0

>  <SCORE.SYSTEM.SOLV>
0

>  <SCORE.SYSTEM.norm>
0

>  <SCORE.heavy>
24

>  <SCORE.norm>
-0.898318

>  <RMSD>
17.340

$$$$
ligand
 OpenBabel11021811483D
libRbt.so/2013.1/901 2013/11/27
 24 26  0  0  0  0  0  0  0  0999 V2000
   -8.1733   -2.0988   -6.1388 P   0  0  1  0  0  0  0  0  0  0  0  0
   -6.6797   -1.8624   -6.2087 O   0  0  0  0  0  0  0  0  0  0  0  0
   -8.8918   -2.2421   -7.4598 O   0  5  0  0  0  0  0  0  0  0  0  0
   -8.5857   -3.1577   -5.1273 O   0  0  0  0  0  0  0  0  0  0  0  0
   -8.5217    0.5797   -6.2734 C   0  0  0  0  0  0  0  0  0  0  0  0
   -8.7662   -0.6784   -5.6210 O   0  0  0  0  0  0  0  0  0  0  0  0
   -9.2623    1.7005   -5.5378 C   0  0  1  0  0  0  0  0  0  0  0  0
  -10.6799    1.4897   -5.5313 O   0  0  0  0  0  0  0  0  0  0  0  0
   -8.8672    1.8775   -4.0817 C   0  0  1  0  0  0  0  0  0  0  0  0
   -7.7957    2.8223   -4.0042 O   0  0  0  0  0  0  0  0  0  0  0  0
  -10.1340    2.4175   -3.4383 C   0  0  1  0  0  0  0  0  0  0  0  0
  -10.2377    3.8336   -3.6437 O   0  0  0  0  0  0  0  0  0  0  0  0
  -11.2508    1.7959   -4.2531 C   0  0  2  0  0  0  0  0  0  0  0  0
  -14.2245   -0.2979   -0.6712 N   0  0  0  0  0  0  0  0  0  0  0  0
  -13.9731    1.0067   -0.9244 C   0  0  1  0  0  0  0  0  0  0  0  0
  -14.5660    1.9529   -0.1617 N   0  0  0  0  0  0  0  0  0  0  0  0
  -13.1397    1.3737   -1.9258 N   0  0  0  0  0  0  0  0  0  0  0  0
  -12.5483    0.4212   -2.6860 C   0  0  1  0  0  0  0  0  0  0  0  0
  -12.7856   -0.9185   -2.4488 C   0  0  2  0  0  0  0  0  0  0  0  0
  -13.6461   -1.2689   -1.4149 C   0  0  0  0  0  0  0  0  0  0  0  0
  -13.8878   -2.4667   -1.1668 O   0  0  0  0  0  0  0  0  0  0  0  0
  -12.0640   -1.6175   -3.3485 N   0  0  0  0  0  0  0  0  0  0  0  0
  -11.4032   -0.7291   -4.1270 C   0  0  0  0  0  0  0  0  0  0  0  0
  -11.7104    0.5036   -3.7111 N   0  0  1  0  0  0  0  0  0  0  0  0
  1  2  1  6  0  0  0
  1  3  1  0  0  0  0
  1  4  2  0  0  0  0
  1  6  1  0  0  0  0
  5  6  1  0  0  0  0
  7  5  1  1  0  0  0
  7  8  1  0  0  0  0
  7  9  1  0  0  0  0
  9 10  1  6  0  0  0
  9 11  1  0  0  0  0
 11 12  1  6  0  0  0
 11 13  1  0  0  0  0
 13  8  1  6  0  0  0
 13 24  1  0  0  0  0
 14 15  1  0  0  0  0
 14 20  1  0  0  0  0
 15 16  1  1  0  0  0
 15 17  1  0  0  0  0
 18 17  1  6  0  0  0
 18 19  1  0  0  0  0
 18 24  1  0  0  0  0
 19 20  1  1  0  0  0
 19 22  1  0  0  0  0
 20 21  2  0  0  0  0
 22 23  1  0  0  0  0
 24 23  1  6  0  0  0
M  CHG  1   3  -1
M  END
>  <CHROM.1>
55.31936325,-60.80055449,178.50139508,-164.78222337,-10.66774557,0.04875289
-3.94343488,0.29000254,-0.67882830,-2.97682428

>  <Name>
ligand

>  <RI>
0

>  <Rbt.Current_Directory>
/home/itssahil/PROJECTS/Mol_Feturizer/New_Systems/rnas/3SLQ

>  <Rbt.Executable>
rbdock ($Id: //depot/dev/client3/rdock/2013.1/src/exe/rbdock.cxx#4 $)

>  <Rbt.Library>
libRbt.so (2013.1, Build901 2013/11/27)

>  <Rbt.Parameter_File>
/export/apps/rDock/src/rDock_2013.1_src/data/scripts/dock_solv.prm

>  <Rbt.Receptor>
prm/blind_docking_100.prm

>  <SCORE>
-21.6762

>  <SCORE.INTER>
-14.9263

>  <SCORE.INTER.CONST>
1

>  <SCORE.INTER.POLAR>
0

>  <SCORE.INTER.ROT>
4

>  <SCORE.INTER.SOLV>
14.133

>  <SCORE.INTER.VDW>
-20.9286

>  <SCORE.INTER.norm>
-0.62193

>  <SCORE.INTRA>
-6.74992

>  <SCORE.INTRA.DIHEDRAL>
-11.9884

>  <SCORE.INTRA.DIHEDRAL.0>
13.2525

>  <SCORE.INTRA.POLAR>
0

>  <SCORE.INTRA.POLAR.0>
0

>  <SCORE.INTRA.REPUL>
0

>  <SCORE.INTRA.REPUL.0>
0

>  <SCORE.INTRA.SOLV>
0.158637

>  <SCORE.INTRA.SOLV.lig_0>
-70.7221

>  <SCORE.INTRA.VDW>
-0.835024

>  <SCORE.INTRA.VDW.0>
-1.46337

>  <SCORE.INTRA.norm>
-0.281246

>  <SCORE.RESTR>
0

>  <SCORE.RESTR.CAVITY>
0

>  <SCORE.RESTR.norm>
0

>  <SCORE.SYSTEM>
0

>  <SCORE.SYSTEM.CONST>
0

>  <SCORE.SYSTEM.DIHEDRAL>
0

>  <SCORE.SYSTEM.SOLV>
0

>  <SCORE.SYSTEM.norm>
0

>  <SCORE.heavy>
24

>  <SCORE.norm>
-0.903176

>  <RMSD>
17.348

$$$$
ligand
 OpenBabel11021811483D
libRbt.so/2013.1/901 2013/11/27
 24 26  0  0  0  0  0  0  0  0999 V2000
   -5.7823    2.3332   -4.4665 P   0  0  1  0  0  0  0  0  0  0  0  0
   -5.4130    2.4859   -3.0064 O   0  0  0  0  0  0  0  0  0  0  0  0
   -6.1957    3.5938   -5.1887 O   0  5  0  0  0  0  0  0  0  0  0  0
   -4.8013    1.4910   -5.2682 O   0  0  0  0  0  0  0  0  0  0  0  0
   -7.8506    1.0044   -5.5934 C   0  0  0  0  0  0  0  0  0  0  0  0
   -7.1917    1.5275   -4.4270 O   0  0  0  0  0  0  0  0  0  0  0  0
   -9.1446    0.2935   -5.1859 C   0  0  1  0  0  0  0  0  0  0  0  0
   -9.1774   -1.0628   -5.6476 O   0  0  0  0  0  0  0  0  0  0  0  0
   -9.3892    0.2231   -3.6882 C   0  0  1  0  0  0  0  0  0  0  0  0
  -10.1428    1.3713   -3.2876 O   0  0  0  0  0  0  0  0  0  0  0  0
  -10.1933   -1.0562   -3.5245 C   0  0  1  0  0  0  0  0  0  0  0  0
  -11.5808   -0.8163   -3.7995 O   0  0  0  0  0  0  0  0  0  0  0  0
   -9.6948   -1.9467   -4.6453 C   0  0  2  0  0  0  0  0  0  0  0  0
   -5.4774   -4.2096   -6.4198 N   0  0  0  0  0  0  0  0  0  0  0  0
   -6.3948   -3.4649   -7.0781 C   0  0  1  0  0  0  0  0  0  0  0  0
   -6.2342   -3.2387   -8.4016 N   0  0  0  0  0  0  0  0  0  0  0  0
   -7.4652   -2.9472   -6.4313 N   0  0  0  0  0  0  0  0  0  0  0  0
   -7.6208   -3.1779   -5.1057 C   0  0  1  0  0  0  0  0  0  0  0  0
   -6.7005   -3.9360   -4.4089 C   0  0  2  0  0  0  0  0  0  0  0  0
   -5.6097   -4.4555   -5.0961 C   0  0  0  0  0  0  0  0  0  0  0  0
   -4.7554   -5.1454   -4.5053 O   0  0  0  0  0  0  0  0  0  0  0  0
   -7.1195   -3.9954   -3.1283 N   0  0  0  0  0  0  0  0  0  0  0  0
   -8.2673   -3.2841   -3.0364 C   0  0  0  0  0  0  0  0  0  0  0  0
   -8.5555   -2.7939   -4.2462 N   0  0  1  0  0  0  0  0  0  0  0  0
  1  2  1  1  0  0  0
  1  3  1  0  0  0  0
  1  4  2  0  0  0  0
  1  6  1  0  0  0  0
  5  6  1  0  0  0  0
  7  5  1  1  0  0  0
  7  8  1  0  0  0  0
  7  9  1  0  0  0  0
  9 10  1  6  0  0  0
  9 11  1  0  0  0  0
 11 12  1  6  0  0  0
 11 13  1  0  0  0  0
 13  8  1  6  0  0  0
 13 24  1  0  0  0  0
 14 15  1  0  0  0  0
 14 20  1  0  0  0  0
 15 16  1  6  0  0  0
 15 17  1  0  0  0  0
 18 17  1  1  0  0  0
 18 19  1  0  0  0  0
 18 24  1  0  0  0  0
 19 20  1  6  0  0  0
 19 22  1  0  0  0  0
 20 21  2  0  0  0  0
 22 23  1  0  0  0  0
 24 23  1  1  0  0  0
M  CHG  1   3  -1
M  END
>  <CHROM.1>
-171.90583532,-124.10181163,179.41645336,-34.57464357,-7.43659001,-0.99002448
-4.78292872,-1.65753274,-0.30597989,-2.99944445

>  <Name>
ligand

>  <RI>
0

>  <Rbt.Current_Directory>
/home/itssahil/PROJECTS/Mol_Feturizer/New_Systems/rnas/3SLQ

>  <Rbt.Executable>
rbdock ($Id: //depot/dev/client3/rdock/2013.1/src/exe/rbdock.cxx#4 $)

>  <Rbt.Library>
libRbt.so (2013.1, Build901 2013/11/27)

>  <Rbt.Parameter_File>
/export/apps/rDock/src/rDock_2013.1_src/data/scripts/dock_solv.prm

>  <Rbt.Receptor>
prm/blind_docking_20.prm

>  <SCORE>
-22.6438

>  <SCORE.INTER>
-20.2927

>  <SCORE.INTER.CONST>
1

>  <SCORE.INTER.POLAR>
0

>  <SCORE.INTER.ROT>
4

>  <SCORE.INTER.SOLV>
12.6838

>  <SCORE.INTER.VDW>
-24.0231

>  <SCORE.INTER.norm>
-0.84553

>  <SCORE.INTRA>
-2.35109

>  <SCORE.INTRA.DIHEDRAL>
-6.70395

>  <SCORE.INTRA.DIHEDRAL.0>
13.2525

>  <SCORE.INTRA.POLAR>
0

>  <SCORE.INTRA.POLAR.0>
0

>  <SCORE.INTRA.REPUL>
0

>  <SCORE.INTRA.REPUL.0>
0

>  <SCORE.INTRA.SOLV>
0.786815

>  <SCORE.INTRA.SOLV.lig_0>
-70.7221

>  <SCORE.INTRA.VDW>
0.607473

>  <SCORE.INTRA.VDW.0>
-1.46337

>  <SCORE.INTRA.norm>
-0.0979622

>  <SCORE.RESTR>
0

>  <SCORE.RESTR.CAVITY>
0

>  <SCORE.RESTR.norm>
0

>  <SCORE.SYSTEM>
0

>  <SCORE.SYSTEM.CONST>
0

>  <SCORE.SYSTEM.DIHEDRAL>
0

>  <SCORE.SYSTEM.SOLV>
0

>  <SCORE.SYSTEM.norm>
0

>  <SCORE.heavy>
24

>  <SCORE.norm>
-0.943492

>  <RMSD>
17.360

$$$$
ligand
 OpenBabel11021811483D
libRbt.so/2013.1/901 2013/11/27
 24 26  0  0  0  0  0  0  0  0999 V2000
   -6.3736    1.3854   -5.2245 P   0  0  1  0  0  0  0  0  0  0  0  0
   -6.1513    2.0864   -3.9013 O   0  0  0  0  0  0  0  0  0  0  0  0
   -6.7821    2.2602   -6.3862 O   0  5  0  0  0  0  0  0  0  0  0  0
   -5.2793    0.3941   -5.5912 O   0  0  0  0  0  0  0  0  0  0  0  0
   -9.0094    1.1285   -4.6766 C   0  0  0  0  0  0  0  0  0  0  0  0
   -7.7369    0.5352   -4.9880 O   0  0  0  0  0  0  0  0  0  0  0  0
  -10.1077    0.0622   -4.7280 C   0  0  1  0  0  0  0  0  0  0  0  0
   -9.6910   -1.0994   -5.4569 O   0  0  0  0  0  0  0  0  0  0  0  0
  -10.5664   -0.4469   -3.3722 C   0  0  1  0  0  0  0  0  0  0  0  0
  -11.6611    0.3566   -2.9220 O   0  0  0  0  0  0  0  0  0  0  0  0
  -11.0046   -1.8729   -3.6635 C   0  0  1  0  0  0  0  0  0  0  0  0
  -12.3398   -1.8911   -4.1881 O   0  0  0  0  0  0  0  0  0  0  0  0
  -10.1038   -2.3059   -4.8032 C   0  0  2  0  0  0  0  0  0  0  0  0
   -5.7467   -4.3985   -6.4445 N   0  0  0  0  0  0  0  0  0  0  0  0
   -6.7735   -3.8814   -7.1571 C   0  0  1  0  0  0  0  0  0  0  0  0
   -6.7036   -3.8780   -8.5075 N   0  0  0  0  0  0  0  0  0  0  0  0
   -7.8635   -3.3709   -6.5378 N   0  0  0  0  0  0  0  0  0  0  0  0
   -7.9278   -3.3778   -5.1848 C   0  0  1  0  0  0  0  0  0  0  0  0
   -6.8948   -3.9009   -4.4322 C   0  0  2  0  0  0  0  0  0  0  0  0
   -5.7863   -4.4182   -5.0923 C   0  0  0  0  0  0  0  0  0  0  0  0
   -4.8317   -4.9001   -4.4511 O   0  0  0  0  0  0  0  0  0  0  0  0
   -7.2421   -3.7753   -3.1351 N   0  0  0  0  0  0  0  0  0  0  0  0
   -8.4576   -3.1817   -3.0891 C   0  0  0  0  0  0  0  0  0  0  0  0
   -8.8577   -2.9464   -4.3427 N   0  0  1  0  0  0  0  0  0  0  0  0
  1  2  1  1  0  0  0
  1  3  1  0  0  0  0
  1  4  2  0  0  0  0
  1  6  1  0  0  0  0
  5  6  1  0  0  0  0
  7  5  1  1  0  0  0
  7  8  1  0  0  0  0
  7  9  1  0  0  0  0
  9 10  1  6  0  0  0
  9 11  1  0  0  0  0
 11 12  1  6  0  0  0
 11 13  1  0  0  0  0
 13  8  1  1  0  0  0
 13 24  1  0  0  0  0
 14 15  1  0  0  0  0
 14 20  1  0  0  0  0
 15 16  1  6  0  0  0
 15 17  1  0  0  0  0
 18 17  1  1  0  0  0
 18 19  1  0  0  0  0
 18 24  1  0  0  0  0
 19 20  1  6  0  0  0
 19 22  1  0  0  0  0
 20 21  2  0  0  0  0
 22 23  1  0  0  0  0
 24 23  1  1  0  0  0
M  CHG  1   3  -1
M  END
>  <CHROM.1>
61.57998714,-18.30463405,171.54677884,-63.82311435,-7.99580710,-1.46247795
-4.94063153,-2.17554897,-0.36019332,-3.09023633

>  <Name>
ligand

>  <RI>
0

>  <Rbt.Current_Directory>
/home/itssahil/PROJECTS/Mol_Feturizer/New_Systems/rnas/3SLQ

>  <Rbt.Executable>
rbdock ($Id: //depot/dev/client3/rdock/2013.1/src/exe/rbdock.cxx#4 $)

>  <Rbt.Library>
libRbt.so (2013.1, Build901 2013/11/27)

>  <Rbt.Parameter_File>
/export/apps/rDock/src/rDock_2013.1_src/data/scripts/dock_solv.prm

>  <Rbt.Receptor>
prm/blind_docking_20.prm

>  <SCORE>
-23.2289

>  <SCORE.INTER>
-19.2479

>  <SCORE.INTER.CONST>
1

>  <SCORE.INTER.POLAR>
0

>  <SCORE.INTER.ROT>
4

>  <SCORE.INTER.SOLV>
16.0978

>  <SCORE.INTER.VDW>
-24.4645

>  <SCORE.INTER.norm>
-0.801995

>  <SCORE.INTRA>
-3.98106

>  <SCORE.INTRA.DIHEDRAL>
-7.54964

>  <SCORE.INTRA.DIHEDRAL.0>
13.2525

>  <SCORE.INTRA.POLAR>
0

>  <SCORE.INTRA.POLAR.0>
0

>  <SCORE.INTRA.REPUL>
0

>  <SCORE.INTRA.REPUL.0>
0

>  <SCORE.INTRA.SOLV>
0.140363

>  <SCORE.INTRA.SOLV.lig_0>
-70.7221

>  <SCORE.INTRA.VDW>
-0.276427

>  <SCORE.INTRA.VDW.0>
-1.46337

>  <SCORE.INTRA.norm>
-0.165878

>  <SCORE.RESTR>
0

>  <SCORE.RESTR.CAVITY>
0

>  <SCORE.RESTR.norm>
0

>  <SCORE.SYSTEM>
0

>  <SCORE.SYSTEM.CONST>
0

>  <SCORE.SYSTEM.DIHEDRAL>
0

>  <SCORE.SYSTEM.SOLV>
0

>  <SCORE.SYSTEM.norm>
0

>  <SCORE.heavy>
24

>  <SCORE.norm>
-0.967873

>  <RMSD>
17.392

$$$$
ligand
 OpenBabel11021811483D
libRbt.so/2013.1/901 2013/11/27
 24 26  0  0  0  0  0  0  0  0999 V2000
   -6.4329    1.3618   -5.2302 P   0  0  1  0  0  0  0  0  0  0  0  0
   -5.3858    0.2884   -5.4374 O   0  0  0  0  0  0  0  0  0  0  0  0
   -6.3603    2.1268   -3.9297 O   0  5  0  0  0  0  0  0  0  0  0  0
   -6.6369    2.2682   -6.4350 O   0  0  0  0  0  0  0  0  0  0  0  0
   -9.0645    0.8767   -5.6209 C   0  0  0  0  0  0  0  0  0  0  0  0
   -7.8080    0.5249   -5.0162 O   0  0  0  0  0  0  0  0  0  0  0  0
  -10.1679   -0.0535   -5.1080 C   0  0  1  0  0  0  0  0  0  0  0  0
   -9.9719   -1.4052   -5.5423 O   0  0  0  0  0  0  0  0  0  0  0  0
  -10.2921   -0.1225   -3.5955 C   0  0  1  0  0  0  0  0  0  0  0  0
  -11.2225    0.8739   -3.1614 O   0  0  0  0  0  0  0  0  0  0  0  0
  -10.8237   -1.5254   -3.3514 C   0  0  1  0  0  0  0  0  0  0  0  0
  -12.2469   -1.5615   -3.5291 O   0  0  0  0  0  0  0  0  0  0  0  0
  -10.2414   -2.3395   -4.4897 C   0  0  2  0  0  0  0  0  0  0  0  0
   -5.9299   -4.1190   -6.5637 N   0  0  0  0  0  0  0  0  0  0  0  0
   -7.0295   -3.6139   -7.1681 C   0  0  1  0  0  0  0  0  0  0  0  0
   -7.0613   -3.5312   -8.5174 N   0  0  0  0  0  0  0  0  0  0  0  0
   -8.0918   -3.1935   -6.4422 N   0  0  0  0  0  0  0  0  0  0  0  0
   -8.0541   -3.2796   -5.0909 C   0  0  1  0  0  0  0  0  0  0  0  0
   -6.9450   -3.7925   -4.4476 C   0  0  2  0  0  0  0  0  0  0  0  0
   -5.8670   -4.2166   -5.2158 C   0  0  0  0  0  0  0  0  0  0  0  0
   -4.8462   -4.6861   -4.6753 O   0  0  0  0  0  0  0  0  0  0  0  0
   -7.1993   -3.7575   -3.1236 N   0  0  0  0  0  0  0  0  0  0  0  0
   -8.4334   -3.2281   -2.9545 C   0  0  0  0  0  0  0  0  0  0  0  0
   -8.9366   -2.9426   -4.1596 N   0  0  1  0  0  0  0  0  0  0  0  0
  1  2  1  6  0  0  0
  1  3  1  0  0  0  0
  1  4  2  0  0  0  0
  1  6  1  0  0  0  0
  5  6  1  0  0  0  0
  7  5  1  1  0  0  0
  7  8  1  0  0  0  0
  7  9  1  0  0  0  0
  9 10  1  6  0  0  0
  9 11  1  0  0  0  0
 11 12  1  6  0  0  0
 11 13  1  0  0  0  0
 13  8  1  6  0  0  0
 13 24  1  0  0  0  0
 14 15  1  0  0  0  0
 14 20  1  0  0  0  0
 15 16  1  6  0  0  0
 15 17  1  0  0  0  0
 18 17  1  1  0  0  0
 18 19  1  0  0  0  0
 18 24  1  0  0  0  0
 19 20  1  6  0  0  0
 19 22  1  0  0  0  0
 20 21  2  0  0  0  0
 22 23  1  0  0  0  0
 24 23  1  1  0  0  0
M  CHG  1   3  -1
M  END
>  <CHROM.1>
-136.78180854,-66.38487883,-175.08882600,-40.77686875,-8.04225304,-1.37052190
-4.96147307,-2.16495402,-0.39764219,-3.12065404

>  <Name>
ligand

>  <RI>
0

>  <Rbt.Current_Directory>
/home/itssahil/PROJECTS/Mol_Feturizer/New_Systems/rnas/3SLQ

>  <Rbt.Executable>
rbdock ($Id: //depot/dev/client3/rdock/2013.1/src/exe/rbdock.cxx#4 $)

>  <Rbt.Library>
libRbt.so (2013.1, Build901 2013/11/27)

>  <Rbt.Parameter_File>
/export/apps/rDock/src/rDock_2013.1_src/data/scripts/dock_solv.prm

>  <Rbt.Receptor>
prm/blind_docking_80.prm

>  <SCORE>
-23.0934

>  <SCORE.INTER>
-17.9991

>  <SCORE.INTER.CONST>
1

>  <SCORE.INTER.POLAR>
0

>  <SCORE.INTER.ROT>
4

>  <SCORE.INTER.SOLV>
15.4705

>  <SCORE.INTER.VDW>
-23.4229

>  <SCORE.INTER.norm>
-0.749963

>  <SCORE.INTRA>
-5.09428

>  <SCORE.INTRA.DIHEDRAL>
-9.80103

>  <SCORE.INTRA.DIHEDRAL.0>
13.2525

>  <SCORE.INTRA.POLAR>
0

>  <SCORE.INTRA.POLAR.0>
0

>  <SCORE.INTRA.REPUL>
0

>  <SCORE.INTRA.REPUL.0>
0

>  <SCORE.INTRA.SOLV>
0.594475

>  <SCORE.INTRA.SOLV.lig_0>
-70.7221

>  <SCORE.INTRA.VDW>
-0.491007

>  <SCORE.INTRA.VDW.0>
-1.46337

>  <SCORE.INTRA.norm>
-0.212262

>  <SCORE.RESTR>
0

>  <SCORE.RESTR.CAVITY>
0

>  <SCORE.RESTR.norm>
0

>  <SCORE.SYSTEM>
0

>  <SCORE.SYSTEM.CONST>
0

>  <SCORE.SYSTEM.DIHEDRAL>
0

>  <SCORE.SYSTEM.SOLV>
0

>  <SCORE.SYSTEM.norm>
0

>  <SCORE.heavy>
24

>  <SCORE.norm>
-0.962224

>  <RMSD>
17.408

$$$$
ligand
 OpenBabel11021811483D
libRbt.so/2013.1/901 2013/11/27
 24 26  0  0  0  0  0  0  0  0999 V2000
  -13.5853    0.1029   -3.0055 P   0  0  1  0  0  0  0  0  0  0  0  0
  -14.7757    0.8917   -3.5077 O   0  0  0  0  0  0  0  0  0  0  0  0
  -13.4382   -0.0069   -1.5061 O   0  5  0  0  0  0  0  0  0  0  0  0
  -13.3800   -1.2271   -3.7152 O   0  0  0  0  0  0  0  0  0  0  0  0
  -10.9433    0.6469   -3.1994 C   0  0  0  0  0  0  0  0  0  0  0  0
  -12.3144    1.0462   -3.3690 O   0  0  0  0  0  0  0  0  0  0  0  0
  -10.6063   -0.4853   -4.1743 C   0  0  1  0  0  0  0  0  0  0  0  0
   -9.9997    0.0069   -5.3758 O   0  0  0  0  0  0  0  0  0  0  0  0
   -9.6487   -1.5316   -3.6302 C   0  0  1  0  0  0  0  0  0  0  0  0
  -10.4063   -2.5752   -3.0107 O   0  0  0  0  0  0  0  0  0  0  0  0
   -8.9292   -2.0281   -4.8736 C   0  0  1  0  0  0  0  0  0  0  0  0
   -9.7186   -3.0169   -5.5500 O   0  0  0  0  0  0  0  0  0  0  0  0
   -8.9037   -0.8192   -5.7878 C   0  0  2  0  0  0  0  0  0  0  0  0
   -4.0962   -0.2092   -7.3917 N   0  0  0  0  0  0  0  0  0  0  0  0
   -5.0098   -1.1403   -7.7495 C   0  0  1  0  0  0  0  0  0  0  0  0
   -4.6742   -2.0757   -8.6664 N   0  0  0  0  0  0  0  0  0  0  0  0
   -6.2483   -1.1465   -7.2033 N   0  0  0  0  0  0  0  0  0  0  0  0
   -6.5783   -0.2071   -6.2848 C   0  0  1  0  0  0  0  0  0  0  0  0
   -5.6648    0.7544   -5.8997 C   0  0  2  0  0  0  0  0  0  0  0  0
   -4.4001    0.7394   -6.4762 C   0  0  0  0  0  0  0  0  0  0  0  0
   -3.5453    1.5891   -6.1569 O   0  0  0  0  0  0  0  0  0  0  0  0
   -6.2697    1.5351   -4.9814 N   0  0  0  0  0  0  0  0  0  0  0  0
   -7.5293    1.0703   -4.8101 C   0  0  0  0  0  0  0  0  0  0  0  0
   -7.6993    0.0133   -5.6106 N   0  0  1  0  0  0  0  0  0  0  0  0
  1  2  1  6  0  0  0
  1  3  1  0  0  0  0
  1  4  2  0  0  0  0
  1  6  1  0  0  0  0
  5  6  1  0  0  0  0
  7  5  1  1  0  0  0
  7  8  1  0  0  0  0
  7  9  1  0  0  0  0
  9 10  1  6  0  0  0
  9 11  1  0  0  0  0
 11 12  1  6  0  0  0
 11 13  1  0  0  0  0
 13  8  1  1  0  0  0
 13 24  1  0  0  0  0
 14 15  1  0  0  0  0
 14 20  1  0  0  0  0
 15 16  1  1  0  0  0
 15 17  1  0  0  0  0
 18 17  1  6  0  0  0
 18 19  1  0  0  0  0
 18 24  1  0  0  0  0
 19 20  1  1  0  0  0
 19 22  1  0  0  0  0
 20 21  2  0  0  0  0
 22 23  1  0  0  0  0
 24 23  1  6  0  0  0
M  CHG  1   3  -1
M  END
>  <CHROM.1>
-173.47284910,95.42323656,67.01763585,-156.41786566,-9.08853687,-0.32520869
-4.90645527,-2.99104082,-0.41362090,-2.77716567

>  <Name>
ligand

>  <RI>
0

>  <Rbt.Current_Directory>
/home/itssahil/PROJECTS/Mol_Feturizer/New_Systems/rnas/3SLQ

>  <Rbt.Executable>
rbdock ($Id: //depot/dev/client3/rdock/2013.1/src/exe/rbdock.cxx#4 $)

>  <Rbt.Library>
libRbt.so (2013.1, Build901 2013/11/27)

>  <Rbt.Parameter_File>
/export/apps/rDock/src/rDock_2013.1_src/data/scripts/dock_solv.prm

>  <Rbt.Receptor>
prm/blind_docking_40.prm

>  <SCORE>
-17.0867

>  <SCORE.INTER>
-14.0203

>  <SCORE.INTER.CONST>
1

>  <SCORE.INTER.POLAR>
0

>  <SCORE.INTER.ROT>
4

>  <SCORE.INTER.SOLV>
16.2271

>  <SCORE.INTER.VDW>
-21.0226

>  <SCORE.INTER.norm>
-0.584181

>  <SCORE.INTRA>
-3.06634

>  <SCORE.INTRA.DIHEDRAL>
-8.34443

>  <SCORE.INTRA.DIHEDRAL.0>
13.2525

>  <SCORE.INTRA.POLAR>
0

>  <SCORE.INTRA.POLAR.0>
0

>  <SCORE.INTRA.REPUL>
0

>  <SCORE.INTRA.REPUL.0>
0

>  <SCORE.INTRA.SOLV>
3.55554

>  <SCORE.INTRA.SOLV.lig_0>
-70.7221

>  <SCORE.INTRA.VDW>
-0.671895

>  <SCORE.INTRA.VDW.0>
-1.46337

>  <SCORE.INTRA.norm>
-0.127764

>  <SCORE.RESTR>
0

>  <SCORE.RESTR.CAVITY>
0

>  <SCORE.RESTR.norm>
0

>  <SCORE.SYSTEM>
0

>  <SCORE.SYSTEM.CONST>
0

>  <SCORE.SYSTEM.DIHEDRAL>
0

>  <SCORE.SYSTEM.SOLV>
0

>  <SCORE.SYSTEM.norm>
0

>  <SCORE.heavy>
24

>  <SCORE.norm>
-0.711945

>  <RMSD>
17.422

$$$$
ligand
 OpenBabel11021811483D
libRbt.so/2013.1/901 2013/11/27
 24 26  0  0  0  0  0  0  0  0999 V2000
   -6.3794    1.0081   -5.5907 P   0  0  1  0  0  0  0  0  0  0  0  0
   -6.2282    1.8841   -4.3654 O   0  0  0  0  0  0  0  0  0  0  0  0
   -6.6832    1.7180   -6.8890 O   0  5  0  0  0  0  0  0  0  0  0  0
   -5.2908   -0.0446   -5.7370 O   0  0  0  0  0  0  0  0  0  0  0  0
   -9.0744    0.7849   -5.6108 C   0  0  0  0  0  0  0  0  0  0  0  0
   -7.7788    0.2245   -5.3361 O   0  0  0  0  0  0  0  0  0  0  0  0
  -10.1668   -0.1246   -5.0403 C   0  0  1  0  0  0  0  0  0  0  0  0
  -10.0017   -1.4853   -5.4589 O   0  0  0  0  0  0  0  0  0  0  0  0
  -10.2334   -0.1672   -3.5233 C   0  0  1  0  0  0  0  0  0  0  0  0
  -11.1360    0.8463   -3.0707 O   0  0  0  0  0  0  0  0  0  0  0  0
  -10.7697   -1.5599   -3.2353 C   0  0  1  0  0  0  0  0  0  0  0  0
  -12.1990   -1.5833   -3.3576 O   0  0  0  0  0  0  0  0  0  0  0  0
  -10.2401   -2.3992   -4.3812 C   0  0  2  0  0  0  0  0  0  0  0  0
   -5.9148   -4.0021   -6.5672 N   0  0  0  0  0  0  0  0  0  0  0  0
   -7.0192   -3.4684   -7.1372 C   0  0  1  0  0  0  0  0  0  0  0  0
   -7.0527   -3.2983   -8.4783 N   0  0  0  0  0  0  0  0  0  0  0  0
   -8.0846   -3.1054   -6.3854 N   0  0  0  0  0  0  0  0  0  0  0  0
   -8.0452   -3.2789   -5.0426 C   0  0  1  0  0  0  0  0  0  0  0  0
   -6.9312   -3.8230   -4.4342 C   0  0  2  0  0  0  0  0  0  0  0  0
   -5.8501   -4.1868   -5.2285 C   0  0  0  0  0  0  0  0  0  0  0  0
   -4.8249   -4.6816   -4.7198 O   0  0  0  0  0  0  0  0  0  0  0  0
   -7.1849   -3.8765   -3.1106 N   0  0  0  0  0  0  0  0  0  0  0  0
   -8.4235   -3.3700   -2.9073 C   0  0  0  0  0  0  0  0  0  0  0  0
   -8.9300   -3.0110   -4.0912 N   0  0  1  0  0  0  0  0  0  0  0  0
  1  2  1  1  0  0  0
  1  3  1  0  0  0  0
  1  4  2  0  0  0  0
  1  6  1  0  0  0  0
  5  6  1  0  0  0  0
  7  5  1  1  0  0  0
  7  8  1  0  0  0  0
  7  9  1  0  0  0  0
  9 10  1  6  0  0  0
  9 11  1  0  0  0  0
 11 12  1  6  0  0  0
 11 13  1  0  0  0  0
 13  8  1  6  0  0  0
 13 24  1  0  0  0  0
 14 15  1  0  0  0  0
 14 20  1  0  0  0  0
 15 16  1  6  0  0  0
 15 17  1  0  0  0  0
 18 17  1  1  0  0  0
 18 19  1  0  0  0  0
 18 24  1  0  0  0  0
 19 20  1  6  0  0  0
 19 22  1  0  0  0  0
 20 21  2  0  0  0  0
 22 23  1  0  0  0  0
 24 23  1  1  0  0  0
M  CHG  1   3  -1
M  END
>  <CHROM.1>
81.86157740,-51.37319646,-170.58978594,-35.48709362,-8.01456680,-1.47257768
-5.02241694,-2.52224217,-0.47003017,3.05094336

>  <Name>
ligand

>  <RI>
0

>  <Rbt.Current_Directory>
/home/itssahil/PROJECTS/Mol_Feturizer/New_Systems/rnas/3SLQ

>  <Rbt.Executable>
rbdock ($Id: //depot/dev/client3/rdock/2013.1/src/exe/rbdock.cxx#4 $)

>  <Rbt.Library>
libRbt.so (2013.1, Build901 2013/11/27)

>  <Rbt.Parameter_File>
/export/apps/rDock/src/rDock_2013.1_src/data/scripts/dock_solv.prm

>  <Rbt.Receptor>
prm/blind_docking_80.prm

>  <SCORE>
-23.0203

>  <SCORE.INTER>
-17.0976

>  <SCORE.INTER.CONST>
1

>  <SCORE.INTER.POLAR>
0

>  <SCORE.INTER.ROT>
4

>  <SCORE.INTER.SOLV>
15.0678

>  <SCORE.INTER.VDW>
-22.6877

>  <SCORE.INTER.norm>
-0.712401

>  <SCORE.INTRA>
-5.92264

>  <SCORE.INTRA.DIHEDRAL>
-10.6325

>  <SCORE.INTRA.DIHEDRAL.0>
13.2525

>  <SCORE.INTRA.POLAR>
0

>  <SCORE.INTRA.POLAR.0>
0

>  <SCORE.INTRA.REPUL>
0

>  <SCORE.INTRA.REPUL.0>
0

>  <SCORE.INTRA.SOLV>
0.242765

>  <SCORE.INTRA.SOLV.lig_0>
-70.7221

>  <SCORE.INTRA.VDW>
-0.727781

>  <SCORE.INTRA.VDW.0>
-1.46337

>  <SCORE.INTRA.norm>
-0.246777

>  <SCORE.RESTR>
0

>  <SCORE.RESTR.CAVITY>
0

>  <SCORE.RESTR.norm>
0

>  <SCORE.SYSTEM>
0

>  <SCORE.SYSTEM.CONST>
0

>  <SCORE.SYSTEM.DIHEDRAL>
0

>  <SCORE.SYSTEM.SOLV>
0

>  <SCORE.SYSTEM.norm>
0

>  <SCORE.heavy>
24

>  <SCORE.norm>
-0.959177

>  <RMSD>
17.427

$$$$
ligand
 OpenBabel11021811483D
libRbt.so/2013.1/901 2013/11/27
 24 26  0  0  0  0  0  0  0  0999 V2000
   -6.1966    3.2513   -4.5254 P   0  0  1  0  0  0  0  0  0  0  0  0
   -5.3313    2.5410   -3.5064 O   0  0  0  0  0  0  0  0  0  0  0  0
   -6.8175    4.5559   -4.0846 O   0  5  0  0  0  0  0  0  0  0  0  0
   -5.5778    3.3337   -5.9128 O   0  0  0  0  0  0  0  0  0  0  0  0
   -7.5328    1.0303   -5.2971 C   0  0  0  0  0  0  0  0  0  0  0  0
   -7.5142    2.3087   -4.6387 O   0  0  0  0  0  0  0  0  0  0  0  0
   -8.8748    0.3356   -5.0477 C   0  0  1  0  0  0  0  0  0  0  0  0
   -8.9040   -0.9854   -5.6029 O   0  0  0  0  0  0  0  0  0  0  0  0
   -9.2470    0.1737   -3.5838 C   0  0  1  0  0  0  0  0  0  0  0  0
  -10.0015    1.3162   -3.1688 O   0  0  0  0  0  0  0  0  0  0  0  0
  -10.0954   -1.0874   -3.5756 C   0  0  1  0  0  0  0  0  0  0  0  0
  -11.4479   -0.7857   -3.9472 O   0  0  0  0  0  0  0  0  0  0  0  0
   -9.5273   -1.9169   -4.7100 C   0  0  2  0  0  0  0  0  0  0  0  0
   -5.2558   -4.2200   -6.2932 N   0  0  0  0  0  0  0  0  0  0  0  0
   -6.0966   -3.4076   -6.9732 C   0  0  1  0  0  0  0  0  0  0  0  0
   -5.8274   -3.1118   -8.2650 N   0  0  0  0  0  0  0  0  0  0  0  0
   -7.1977   -2.8908   -6.3793 N   0  0  0  0  0  0  0  0  0  0  0  0
   -7.4622   -3.1912   -5.0853 C   0  0  1  0  0  0  0  0  0  0  0  0
   -6.6219   -4.0194   -4.3675 C   0  0  2  0  0  0  0  0  0  0  0  0
   -5.4975   -4.5364   -5.0002 C   0  0  0  0  0  0  0  0  0  0  0  0
   -4.7127   -5.2882   -4.3889 O   0  0  0  0  0  0  0  0  0  0  0  0
   -7.1403   -4.1373   -3.1280 N   0  0  0  0  0  0  0  0  0  0  0  0
   -8.2697   -3.3929   -3.0807 C   0  0  0  0  0  0  0  0  0  0  0  0
   -8.4485   -2.8247   -4.2774 N   0  0  1  0  0  0  0  0  0  0  0  0
  1  2  1  1  0  0  0
  1  3  1  0  0  0  0
  1  4  2  0  0  0  0
  1  6  1  0  0  0  0
  5  6  1  0  0  0  0
  7  5  1  1  0  0  0
  7  8  1  0  0  0  0
  7  9  1  0  0  0  0
  9 10  1  6  0  0  0
  9 11  1  0  0  0  0
 11 12  1  6  0  0  0
 11 13  1  0  0  0  0
 13  8  1  6  0  0  0
 13 24  1  0  0  0  0
 14 15  1  0  0  0  0
 14 20  1  0  0  0  0
 15 16  1  6  0  0  0
 15 17  1  0  0  0  0
 18 17  1  1  0  0  0
 18 19  1  0  0  0  0
 18 24  1  0  0  0  0
 19 20  1  6  0  0  0
 19 22  1  0  0  0  0
 20 21  2  0  0  0  0
 22 23  1  0  0  0  0
 24 23  1  1  0  0  0
M  CHG  1   3  -1
M  END
>  <CHROM.1>
-73.06703855,-175.72328102,172.20778105,-35.28166209,-7.42203506,-0.75701698
-4.75852686,-1.65710218,-0.38795421,-3.06057880

>  <Name>
ligand

>  <RI>
0

>  <Rbt.Current_Directory>
/home/itssahil/PROJECTS/Mol_Feturizer/New_Systems/rnas/3SLQ

>  <Rbt.Executable>
rbdock ($Id: //depot/dev/client3/rdock/2013.1/src/exe/rbdock.cxx#4 $)

>  <Rbt.Library>
libRbt.so (2013.1, Build901 2013/11/27)

>  <Rbt.Parameter_File>
/export/apps/rDock/src/rDock_2013.1_src/data/scripts/dock_solv.prm

>  <Rbt.Receptor>
prm/blind_docking_20.prm

>  <SCORE>
-25.193

>  <SCORE.INTER>
-19.5708

>  <SCORE.INTER.CONST>
1

>  <SCORE.INTER.POLAR>
0

>  <SCORE.INTER.ROT>
4

>  <SCORE.INTER.SOLV>
14.4825

>  <SCORE.INTER.VDW>
-24.1414

>  <SCORE.INTER.norm>
-0.815449

>  <SCORE.INTRA>
-5.62219

>  <SCORE.INTRA.DIHEDRAL>
-11.4036

>  <SCORE.INTRA.DIHEDRAL.0>
13.2525

>  <SCORE.INTRA.POLAR>
0

>  <SCORE.INTRA.POLAR.0>
0

>  <SCORE.INTRA.REPUL>
0

>  <SCORE.INTRA.REPUL.0>
0

>  <SCORE.INTRA.SOLV>
0.220127

>  <SCORE.INTRA.SOLV.lig_0>
-70.7221

>  <SCORE.INTRA.VDW>
-0.0304663

>  <SCORE.INTRA.VDW.0>
-1.46337

>  <SCORE.INTRA.norm>
-0.234258

>  <SCORE.RESTR>
0

>  <SCORE.RESTR.CAVITY>
0

>  <SCORE.RESTR.norm>
0

>  <SCORE.SYSTEM>
0

>  <SCORE.SYSTEM.CONST>
0

>  <SCORE.SYSTEM.DIHEDRAL>
0

>  <SCORE.SYSTEM.SOLV>
0

>  <SCORE.SYSTEM.norm>
0

>  <SCORE.heavy>
24

>  <SCORE.norm>
-1.04971

>  <RMSD>
17.428

$$$$
ligand
 OpenBabel11021811483D
libRbt.so/2013.1/901 2013/11/27
 24 26  0  0  0  0  0  0  0  0999 V2000
   -6.4285    1.3532   -5.2469 P   0  0  1  0  0  0  0  0  0  0  0  0
   -5.3583    0.3026   -5.4531 O   0  0  0  0  0  0  0  0  0  0  0  0
   -6.3865    2.1047   -3.9372 O   0  5  0  0  0  0  0  0  0  0  0  0
   -6.6354    2.2691   -6.4439 O   0  0  0  0  0  0  0  0  0  0  0  0
   -9.0426    0.8160   -5.6841 C   0  0  0  0  0  0  0  0  0  0  0  0
   -7.7896    0.4877   -5.0591 O   0  0  0  0  0  0  0  0  0  0  0  0
  -10.1450   -0.1077   -5.1575 C   0  0  1  0  0  0  0  0  0  0  0  0
   -9.9523   -1.4640   -5.5788 O   0  0  0  0  0  0  0  0  0  0  0  0
  -10.2634   -0.1612   -3.6439 C   0  0  1  0  0  0  0  0  0  0  0  0
  -11.1909    0.8406   -3.2163 O   0  0  0  0  0  0  0  0  0  0  0  0
  -10.7956   -1.5609   -3.3835 C   0  0  1  0  0  0  0  0  0  0  0  0
  -12.2195   -1.5971   -3.5552 O   0  0  0  0  0  0  0  0  0  0  0  0
  -10.2187   -2.3873   -4.5158 C   0  0  2  0  0  0  0  0  0  0  0  0
   -5.9085   -4.1724   -6.5874 N   0  0  0  0  0  0  0  0  0  0  0  0
   -7.0089   -3.6701   -7.1925 C   0  0  1  0  0  0  0  0  0  0  0  0
   -7.0421   -3.5923   -8.5421 N   0  0  0  0  0  0  0  0  0  0  0  0
   -8.0707   -3.2475   -6.4672 N   0  0  0  0  0  0  0  0  0  0  0  0
   -8.0316   -3.3285   -5.1157 C   0  0  1  0  0  0  0  0  0  0  0  0
   -6.9216   -3.8386   -4.4715 C   0  0  2  0  0  0  0  0  0  0  0  0
   -5.8442   -4.2650   -5.2392 C   0  0  0  0  0  0  0  0  0  0  0  0
   -4.8227   -4.7322   -4.6979 O   0  0  0  0  0  0  0  0  0  0  0  0
   -7.1747   -3.7988   -3.1474 N   0  0  0  0  0  0  0  0  0  0  0  0
   -8.4089   -3.2693   -2.9790 C   0  0  0  0  0  0  0  0  0  0  0  0
   -8.9134   -2.9885   -4.1847 N   0  0  1  0  0  0  0  0  0  0  0  0
  1  2  1  6  0  0  0
  1  3  1  0  0  0  0
  1  4  2  0  0  0  0
  1  6  1  0  0  0  0
  5  6  1  0  0  0  0
  7  5  1  1  0  0  0
  7  8  1  0  0  0  0
  7  9  1  0  0  0  0
  9 10  1  6  0  0  0
  9 11  1  0  0  0  0
 11 12  1  6  0  0  0
 11 13  1  0  0  0  0
 13  8  1  6  0  0  0
 13 24  1  0  0  0  0
 14 15  1  0  0  0  0
 14 20  1  0  0  0  0
 15 16  1  6  0  0  0
 15 17  1  0  0  0  0
 18 17  1  1  0  0  0
 18 19  1  0  0  0  0
 18 24  1  0  0  0  0
 19 20  1  6  0  0  0
 19 22  1  0  0  0  0
 20 21  2  0  0  0  0
 22 23  1  0  0  0  0
 24 23  1  1  0  0  0
M  CHG  1   3  -1
M  END
>  <CHROM.1>
-136.25389390,-67.62554374,-173.17360226,-40.35942978,-8.02353567,-1.40817586
-4.98974813,-2.13501219,-0.39495774,-3.12043396

>  <Name>
ligand

>  <RI>
0

>  <Rbt.Current_Directory>
/home/itssahil/PROJECTS/Mol_Feturizer/New_Systems/rnas/3SLQ

>  <Rbt.Executable>
rbdock ($Id: //depot/dev/client3/rdock/2013.1/src/exe/rbdock.cxx#4 $)

>  <Rbt.Library>
libRbt.so (2013.1, Build901 2013/11/27)

>  <Rbt.Parameter_File>
/export/apps/rDock/src/rDock_2013.1_src/data/scripts/dock_solv.prm

>  <Rbt.Receptor>
prm/blind_docking_80.prm

>  <SCORE>
-22.9745

>  <SCORE.INTER>
-18.1013

>  <SCORE.INTER.CONST>
1

>  <SCORE.INTER.POLAR>
0

>  <SCORE.INTER.ROT>
4

>  <SCORE.INTER.SOLV>
15.564

>  <SCORE.INTER.VDW>
-23.5222

>  <SCORE.INTER.norm>
-0.754221

>  <SCORE.INTRA>
-4.87324

>  <SCORE.INTRA.DIHEDRAL>
-9.60484

>  <SCORE.INTRA.DIHEDRAL.0>
13.2525

>  <SCORE.INTRA.POLAR>
0

>  <SCORE.INTRA.POLAR.0>
0

>  <SCORE.INTRA.REPUL>
0

>  <SCORE.INTRA.REPUL.0>
0

>  <SCORE.INTRA.SOLV>
0.623196

>  <SCORE.INTRA.SOLV.lig_0>
-70.7221

>  <SCORE.INTRA.VDW>
-0.382418

>  <SCORE.INTRA.VDW.0>
-1.46337

>  <SCORE.INTRA.norm>
-0.203052

>  <SCORE.RESTR>
0

>  <SCORE.RESTR.CAVITY>
0

>  <SCORE.RESTR.norm>
0

>  <SCORE.SYSTEM>
0

>  <SCORE.SYSTEM.CONST>
0

>  <SCORE.SYSTEM.DIHEDRAL>
0

>  <SCORE.SYSTEM.SOLV>
0

>  <SCORE.SYSTEM.norm>
0

>  <SCORE.heavy>
24

>  <SCORE.norm>
-0.957272

>  <RMSD>
17.428

$$$$
ligand
 OpenBabel11021811483D
libRbt.so/2013.1/901 2013/11/27
 24 26  0  0  0  0  0  0  0  0999 V2000
   -6.9933    1.0326   -5.9354 P   0  0  1  0  0  0  0  0  0  0  0  0
   -8.1417    0.6900   -6.8603 O   0  0  0  0  0  0  0  0  0  0  0  0
   -5.8083    0.0961   -5.9627 O   0  5  0  0  0  0  0  0  0  0  0  0
   -6.5856    2.4979   -5.9714 O   0  0  0  0  0  0  0  0  0  0  0  0
   -8.8748    1.1799   -3.9985 C   0  0  0  0  0  0  0  0  0  0  0  0
   -7.5864    0.7318   -4.4539 O   0  0  0  0  0  0  0  0  0  0  0  0
   -9.9449    0.1475   -4.3657 C   0  0  1  0  0  0  0  0  0  0  0  0
   -9.4282   -0.8742   -5.2278 O   0  0  0  0  0  0  0  0  0  0  0  0
  -10.5576   -0.5842   -3.1837 C   0  0  1  0  0  0  0  0  0  0  0  0
  -11.7090    0.1385   -2.7380 O   0  0  0  0  0  0  0  0  0  0  0  0
  -10.9389   -1.9348   -3.7674 C   0  0  1  0  0  0  0  0  0  0  0  0
  -12.2005   -1.8513   -4.4452 O   0  0  0  0  0  0  0  0  0  0  0  0
   -9.9014   -2.1720   -4.8468 C   0  0  2  0  0  0  0  0  0  0  0  0
   -5.5564   -4.3798   -6.3645 N   0  0  0  0  0  0  0  0  0  0  0  0
   -6.5186   -3.7798   -7.1019 C   0  0  1  0  0  0  0  0  0  0  0  0
   -6.3742   -3.7111   -8.4446 N   0  0  0  0  0  0  0  0  0  0  0  0
   -7.6176   -3.2511   -6.5148 N   0  0  0  0  0  0  0  0  0  0  0  0
   -7.7568   -3.3236   -5.1693 C   0  0  1  0  0  0  0  0  0  0  0  0
   -6.7909   -3.9319   -4.3921 C   0  0  2  0  0  0  0  0  0  0  0  0
   -5.6714   -4.4662   -5.0193 C   0  0  0  0  0  0  0  0  0  0  0  0
   -4.7757   -5.0242   -4.3551 O   0  0  0  0  0  0  0  0  0  0  0  0
   -7.2035   -3.8564   -3.1103 N   0  0  0  0  0  0  0  0  0  0  0  0
   -8.3924   -3.2097   -3.0971 C   0  0  0  0  0  0  0  0  0  0  0  0
   -8.7119   -2.8926   -4.3558 N   0  0  1  0  0  0  0  0  0  0  0  0
  1  2  1  6  0  0  0
  1  3  1  0  0  0  0
  1  4  2  0  0  0  0
  1  6  1  0  0  0  0
  5  6  1  0  0  0  0
  7  5  1  1  0  0  0
  7  8  1  0  0  0  0
  7  9  1  0  0  0  0
  9 10  1  6  0  0  0
  9 11  1  0  0  0  0
 11 12  1  6  0  0  0
 11 13  1  0  0  0  0
 13  8  1  1  0  0  0
 13 24  1  0  0  0  0
 14 15  1  0  0  0  0
 14 20  1  0  0  0  0
 15 16  1  6  0  0  0
 15 17  1  0  0  0  0
 18 17  1  1  0  0  0
 18 19  1  0  0  0  0
 18 24  1  0  0  0  0
 19 20  1  6  0  0  0
 19 22  1  0  0  0  0
 20 21  2  0  0  0  0
 22 23  1  0  0  0  0
 24 23  1  1  0  0  0
M  CHG  1   3  -1
M  END
>  <CHROM.1>
-47.06297329,-8.78984610,87.89981170,-72.26059959,-8.04633501,-1.53811117
-5.04407033,-2.39606733,-0.51724350,2.95736112

>  <Name>
ligand

>  <RI>
0

>  <Rbt.Current_Directory>
/home/itssahil/PROJECTS/Mol_Feturizer/New_Systems/rnas/3SLQ

>  <Rbt.Executable>
rbdock ($Id: //depot/dev/client3/rdock/2013.1/src/exe/rbdock.cxx#4 $)

>  <Rbt.Library>
libRbt.so (2013.1, Build901 2013/11/27)

>  <Rbt.Parameter_File>
/export/apps/rDock/src/rDock_2013.1_src/data/scripts/dock_solv.prm

>  <Rbt.Receptor>
prm/blind_docking_60.prm

>  <SCORE>
-20.4981

>  <SCORE.INTER>
-18.2915

>  <SCORE.INTER.CONST>
1

>  <SCORE.INTER.POLAR>
0

>  <SCORE.INTER.ROT>
4

>  <SCORE.INTER.SOLV>
14.399

>  <SCORE.INTER.VDW>
-23.2607

>  <SCORE.INTER.norm>
-0.762147

>  <SCORE.INTRA>
-2.20652

>  <SCORE.INTRA.DIHEDRAL>
-3.58807

>  <SCORE.INTRA.DIHEDRAL.0>
13.2525

>  <SCORE.INTRA.POLAR>
0

>  <SCORE.INTRA.POLAR.0>
0

>  <SCORE.INTRA.REPUL>
0

>  <SCORE.INTRA.REPUL.0>
0

>  <SCORE.INTRA.SOLV>
1.29049

>  <SCORE.INTRA.SOLV.lig_0>
-70.7221

>  <SCORE.INTRA.VDW>
-1.05773

>  <SCORE.INTRA.VDW.0>
-1.46337

>  <SCORE.INTRA.norm>
-0.0919385

>  <SCORE.RESTR>
0

>  <SCORE.RESTR.CAVITY>
0

>  <SCORE.RESTR.norm>
0

>  <SCORE.SYSTEM>
0

>  <SCORE.SYSTEM.CONST>
0

>  <SCORE.SYSTEM.DIHEDRAL>
0

>  <SCORE.SYSTEM.SOLV>
0

>  <SCORE.SYSTEM.norm>
0

>  <SCORE.heavy>
24

>  <SCORE.norm>
-0.854085

>  <RMSD>
17.431

$$$$
ligand
 OpenBabel11021811483D
libRbt.so/2013.1/901 2013/11/27
 24 26  0  0  0  0  0  0  0  0999 V2000
   -6.2098    1.0652   -5.5598 P   0  0  1  0  0  0  0  0  0  0  0  0
   -5.2497   -0.0993   -5.6760 O   0  0  0  0  0  0  0  0  0  0  0  0
   -6.0060    1.9869   -4.3805 O   0  5  0  0  0  0  0  0  0  0  0  0
   -6.4303    1.8181   -6.8633 O   0  0  0  0  0  0  0  0  0  0  0  0
   -8.8875    1.0452   -5.1810 C   0  0  0  0  0  0  0  0  0  0  0  0
   -7.6201    0.3658   -5.1608 O   0  0  0  0  0  0  0  0  0  0  0  0
  -10.0213    0.0391   -4.9622 C   0  0  1  0  0  0  0  0  0  0  0  0
   -9.7245   -1.2358   -5.5459 O   0  0  0  0  0  0  0  0  0  0  0  0
  -10.3517   -0.2431   -3.5066 C   0  0  1  0  0  0  0  0  0  0  0  0
  -11.3642    0.6712   -3.0759 O   0  0  0  0  0  0  0  0  0  0  0  0
  -10.8674   -1.6726   -3.5352 C   0  0  1  0  0  0  0  0  0  0  0  0
  -12.2503   -1.7004   -3.9159 O   0  0  0  0  0  0  0  0  0  0  0  0
  -10.1075   -2.3119   -4.6805 C   0  0  2  0  0  0  0  0  0  0  0  0
   -5.7575   -4.3204   -6.4411 N   0  0  0  0  0  0  0  0  0  0  0  0
   -6.8067   -3.8096   -7.1250 C   0  0  1  0  0  0  0  0  0  0  0  0
   -6.7661   -3.7886   -8.4764 N   0  0  0  0  0  0  0  0  0  0  0  0
   -7.8902   -3.3227   -6.4761 N   0  0  0  0  0  0  0  0  0  0  0  0
   -7.9252   -3.3471   -5.1222 C   0  0  1  0  0  0  0  0  0  0  0  0
   -6.8687   -3.8643   -4.3986 C   0  0  2  0  0  0  0  0  0  0  0  0
   -5.7675   -4.3572   -5.0887 C   0  0  0  0  0  0  0  0  0  0  0  0
   -4.7924   -4.8331   -4.4743 O   0  0  0  0  0  0  0  0  0  0  0  0
   -7.1897   -3.7598   -3.0928 N   0  0  0  0  0  0  0  0  0  0  0  0
   -8.4123   -3.1846   -3.0133 C   0  0  0  0  0  0  0  0  0  0  0  0
   -8.8427   -2.9397   -4.2550 N   0  0  1  0  0  0  0  0  0  0  0  0
  1  2  1  6  0  0  0
  1  3  1  0  0  0  0
  1  4  2  0  0  0  0
  1  6  1  0  0  0  0
  5  6  1  0  0  0  0
  7  5  1  1  0  0  0
  7  8  1  0  0  0  0
  7  9  1  0  0  0  0
  9 10  1  6  0  0  0
  9 11  1  0  0  0  0
 11 12  1  6  0  0  0
 11 13  1  0  0  0  0
 13  8  1  6  0  0  0
 13 24  1  0  0  0  0
 14 15  1  0  0  0  0
 14 20  1  0  0  0  0
 15 16  1  6  0  0  0
 15 17  1  0  0  0  0
 18 17  1  1  0  0  0
 18 19  1  0  0  0  0
 18 24  1  0  0  0  0
 19 20  1  6  0  0  0
 19 22  1  0  0  0  0
 20 21  2  0  0  0  0
 22 23  1  0  0  0  0
 24 23  1  1  0  0  0
M  CHG  1   3  -1
M  END
>  <CHROM.1>
-168.04687726,-33.95487622,171.23426115,-52.95727157,-7.91339304,-1.49850666
-5.03257774,-2.37119350,-0.40569956,3.10740815

>  <Name>
ligand

>  <RI>
0

>  <Rbt.Current_Directory>
/home/itssahil/PROJECTS/Mol_Feturizer/New_Systems/rnas/3SLQ

>  <Rbt.Executable>
rbdock ($Id: //depot/dev/client3/rdock/2013.1/src/exe/rbdock.cxx#4 $)

>  <Rbt.Library>
libRbt.so (2013.1, Build901 2013/11/27)

>  <Rbt.Parameter_File>
/export/apps/rDock/src/rDock_2013.1_src/data/scripts/dock_solv.prm

>  <Rbt.Receptor>
prm/blind_docking_20.prm

>  <SCORE>
-23.6257

>  <SCORE.INTER>
-18.4146

>  <SCORE.INTER.CONST>
1

>  <SCORE.INTER.POLAR>
0

>  <SCORE.INTER.ROT>
4

>  <SCORE.INTER.SOLV>
14.8346

>  <SCORE.INTER.VDW>
-23.4879

>  <SCORE.INTER.norm>
-0.767274

>  <SCORE.INTRA>
-5.21117

>  <SCORE.INTRA.DIHEDRAL>
-9.34753

>  <SCORE.INTRA.DIHEDRAL.0>
13.2525

>  <SCORE.INTRA.POLAR>
0

>  <SCORE.INTRA.POLAR.0>
0

>  <SCORE.INTRA.REPUL>
0

>  <SCORE.INTRA.REPUL.0>
0

>  <SCORE.INTRA.SOLV>
0.558239

>  <SCORE.INTRA.SOLV.lig_0>
-70.7221

>  <SCORE.INTRA.VDW>
-0.816526

>  <SCORE.INTRA.VDW.0>
-1.46337

>  <SCORE.INTRA.norm>
-0.217132

>  <SCORE.RESTR>
0

>  <SCORE.RESTR.CAVITY>
0

>  <SCORE.RESTR.norm>
0

>  <SCORE.SYSTEM>
0

>  <SCORE.SYSTEM.CONST>
0

>  <SCORE.SYSTEM.DIHEDRAL>
0

>  <SCORE.SYSTEM.SOLV>
0

>  <SCORE.SYSTEM.norm>
0

>  <SCORE.heavy>
24

>  <SCORE.norm>
-0.984406

>  <RMSD>
17.435

$$$$
ligand
 OpenBabel11021811483D
libRbt.so/2013.1/901 2013/11/27
 24 26  0  0  0  0  0  0  0  0999 V2000
   -6.2950    1.3712   -5.6192 P   0  0  1  0  0  0  0  0  0  0  0  0
   -6.7365    2.3041   -6.7266 O   0  0  0  0  0  0  0  0  0  0  0  0
   -5.3530    0.2588   -6.0155 O   0  5  0  0  0  0  0  0  0  0  0  0
   -5.8617    2.0829   -4.3463 O   0  0  0  0  0  0  0  0  0  0  0  0
   -8.8437    1.1123   -4.7530 C   0  0  0  0  0  0  0  0  0  0  0  0
   -7.6360    0.5254   -5.2679 O   0  0  0  0  0  0  0  0  0  0  0  0
   -9.9697    0.0741   -4.7561 C   0  0  1  0  0  0  0  0  0  0  0  0
   -9.5943   -1.1194   -5.4552 O   0  0  0  0  0  0  0  0  0  0  0  0
  -10.4209   -0.3819   -3.3791 C   0  0  1  0  0  0  0  0  0  0  0  0
  -11.4876    0.4633   -2.9378 O   0  0  0  0  0  0  0  0  0  0  0  0
  -10.9000   -1.8039   -3.6205 C   0  0  1  0  0  0  0  0  0  0  0  0
  -12.2431   -1.8029   -4.1251 O   0  0  0  0  0  0  0  0  0  0  0  0
  -10.0281   -2.2945   -4.7593 C   0  0  2  0  0  0  0  0  0  0  0  0
   -5.6315   -4.3146   -6.3860 N   0  0  0  0  0  0  0  0  0  0  0  0
   -6.6423   -3.7684   -7.0998 C   0  0  1  0  0  0  0  0  0  0  0  0
   -6.5412   -3.7082   -8.4469 N   0  0  0  0  0  0  0  0  0  0  0  0
   -7.7469   -3.2848   -6.4849 N   0  0  0  0  0  0  0  0  0  0  0  0
   -7.8424   -3.3485   -5.1352 C   0  0  1  0  0  0  0  0  0  0  0  0
   -6.8263   -3.9025   -4.3816 C   0  0  2  0  0  0  0  0  0  0  0  0
   -5.7022   -4.3911   -5.0371 C   0  0  0  0  0  0  0  0  0  0  0  0
   -4.7620   -4.8993   -4.3949 O   0  0  0  0  0  0  0  0  0  0  0  0
   -7.2037   -3.8317   -3.0887 N   0  0  0  0  0  0  0  0  0  0  0  0
   -8.4207   -3.2410   -3.0459 C   0  0  0  0  0  0  0  0  0  0  0  0
   -8.7920   -2.9533   -4.2975 N   0  0  1  0  0  0  0  0  0  0  0  0
  1  2  1  6  0  0  0
  1  3  1  0  0  0  0
  1  4  2  0  0  0  0
  1  6  1  0  0  0  0
  5  6  1  0  0  0  0
  7  5  1  1  0  0  0
  7  8  1  0  0  0  0
  7  9  1  0  0  0  0
  9 10  1  6  0  0  0
  9 11  1  0  0  0  0
 11 12  1  6  0  0  0
 11 13  1  0  0  0  0
 13  8  1  6  0  0  0
 13 24  1  0  0  0  0
 14 15  1  0  0  0  0
 14 20  1  0  0  0  0
 15 16  1  6  0  0  0
 15 17  1  0  0  0  0
 18 17  1  1  0  0  0
 18 19  1  0  0  0  0
 18 24  1  0  0  0  0
 19 20  1  6  0  0  0
 19 22  1  0  0  0  0
 20 21  2  0  0  0  0
 22 23  1  0  0  0  0
 24 23  1  1  0  0  0
M  CHG  1   3  -1
M  END
>  <CHROM.1>
-62.85152587,-9.23377609,170.68025989,-58.90029763,-7.89603208,-1.44082007
-5.01950393,-2.23428506,-0.41756737,3.08929257

>  <Name>
ligand

>  <RI>
0

>  <Rbt.Current_Directory>
/home/itssahil/PROJECTS/Mol_Feturizer/New_Systems/rnas/3SLQ

>  <Rbt.Executable>
rbdock ($Id: //depot/dev/client3/rdock/2013.1/src/exe/rbdock.cxx#4 $)

>  <Rbt.Library>
libRbt.so (2013.1, Build901 2013/11/27)

>  <Rbt.Parameter_File>
/export/apps/rDock/src/rDock_2013.1_src/data/scripts/dock_solv.prm

>  <Rbt.Receptor>
prm/blind_docking_20.prm

>  <SCORE>
-22.7263

>  <SCORE.INTER>
-18.9861

>  <SCORE.INTER.CONST>
1

>  <SCORE.INTER.POLAR>
0

>  <SCORE.INTER.ROT>
4

>  <SCORE.INTER.SOLV>
15.8662

>  <SCORE.INTER.VDW>
-24.2128

>  <SCORE.INTER.norm>
-0.791089

>  <SCORE.INTRA>
-3.74015

>  <SCORE.INTRA.DIHEDRAL>
-6.64213

>  <SCORE.INTRA.DIHEDRAL.0>
13.2525

>  <SCORE.INTRA.POLAR>
0

>  <SCORE.INTRA.POLAR.0>
0

>  <SCORE.INTRA.REPUL>
0

>  <SCORE.INTRA.REPUL.0>
0

>  <SCORE.INTRA.SOLV>
0.0175954

>  <SCORE.INTRA.SOLV.lig_0>
-70.7221

>  <SCORE.INTRA.VDW>
-0.427881

>  <SCORE.INTRA.VDW.0>
-1.46337

>  <SCORE.INTRA.norm>
-0.15584

>  <SCORE.RESTR>
0

>  <SCORE.RESTR.CAVITY>
0

>  <SCORE.RESTR.norm>
0

>  <SCORE.SYSTEM>
0

>  <SCORE.SYSTEM.CONST>
0

>  <SCORE.SYSTEM.DIHEDRAL>
0

>  <SCORE.SYSTEM.SOLV>
0

>  <SCORE.SYSTEM.norm>
0

>  <SCORE.heavy>
24

>  <SCORE.norm>
-0.946928

>  <RMSD>
17.445

$$$$
ligand
 OpenBabel11021811483D
libRbt.so/2013.1/901 2013/11/27
 24 26  0  0  0  0  0  0  0  0999 V2000
   -6.3459    0.8915   -5.7943 P   0  0  1  0  0  0  0  0  0  0  0  0
   -5.3836   -0.2761   -5.8411 O   0  0  0  0  0  0  0  0  0  0  0  0
   -6.1338    1.8908   -4.6816 O   0  5  0  0  0  0  0  0  0  0  0  0
   -6.5803    1.5547   -7.1433 O   0  0  0  0  0  0  0  0  0  0  0  0
   -9.0417    0.7908   -5.6052 C   0  0  0  0  0  0  0  0  0  0  0  0
   -7.7505    0.2176   -5.3361 O   0  0  0  0  0  0  0  0  0  0  0  0
  -10.1414   -0.1181   -5.0480 C   0  0  1  0  0  0  0  0  0  0  0  0
   -9.9762   -1.4776   -5.4706 O   0  0  0  0  0  0  0  0  0  0  0  0
  -10.2213   -0.1666   -3.5317 C   0  0  1  0  0  0  0  0  0  0  0  0
  -11.1252    0.8475   -3.0829 O   0  0  0  0  0  0  0  0  0  0  0  0
  -10.7637   -1.5591   -3.2541 C   0  0  1  0  0  0  0  0  0  0  0  0
  -12.1919   -1.5783   -3.3889 O   0  0  0  0  0  0  0  0  0  0  0  0
  -10.2264   -2.3951   -4.3986 C   0  0  2  0  0  0  0  0  0  0  0  0
   -5.8784   -3.9826   -6.5507 N   0  0  0  0  0  0  0  0  0  0  0  0
   -6.9755   -3.4418   -7.1281 C   0  0  1  0  0  0  0  0  0  0  0  0
   -6.9935   -3.2586   -8.4677 N   0  0  0  0  0  0  0  0  0  0  0  0
   -8.0490   -3.0847   -6.3850 N   0  0  0  0  0  0  0  0  0  0  0  0
   -8.0251   -3.2714   -5.0436 C   0  0  1  0  0  0  0  0  0  0  0  0
   -6.9188   -3.8229   -4.4278 C   0  0  2  0  0  0  0  0  0  0  0  0
   -5.8292   -4.1804   -5.2132 C   0  0  0  0  0  0  0  0  0  0  0  0
   -4.8105   -4.6815   -4.6978 O   0  0  0  0  0  0  0  0  0  0  0  0
   -7.1877   -3.8889   -3.1078 N   0  0  0  0  0  0  0  0  0  0  0  0
   -8.4279   -3.3827   -2.9137 C   0  0  0  0  0  0  0  0  0  0  0  0
   -8.9203   -3.0116   -4.0997 N   0  0  1  0  0  0  0  0  0  0  0  0
  1  2  1  6  0  0  0
  1  3  1  0  0  0  0
  1  4  2  0  0  0  0
  1  6  1  0  0  0  0
  5  6  1  0  0  0  0
  7  5  1  1  0  0  0
  7  8  1  0  0  0  0
  7  9  1  0  0  0  0
  9 10  1  6  0  0  0
  9 11  1  0  0  0  0
 11 12  1  6  0  0  0
 11 13  1  0  0  0  0
 13  8  1  6  0  0  0
 13 24  1  0  0  0  0
 14 15  1  0  0  0  0
 14 20  1  0  0  0  0
 15 16  1  6  0  0  0
 15 17  1  0  0  0  0
 18 17  1  1  0  0  0
 18 19  1  0  0  0  0
 18 24  1  0  0  0  0
 19 20  1  6  0  0  0
 19 22  1  0  0  0  0
 20 21  2  0  0  0  0
 22 23  1  0  0  0  0
 24 23  1  1  0  0  0
M  CHG  1   3  -1
M  END
>  <CHROM.1>
-156.57769806,-50.65842725,179.24006351,-35.11670895,-7.99108890,-1.49565276
-5.07211299,-0.50320891,0.48967376,-0.14277914

>  <Name>
ligand

>  <RI>
0

>  <Rbt.Current_Directory>
/home/itssahil/PROJECTS/Mol_Feturizer/New_Systems/rnas/3SLQ

>  <Rbt.Executable>
rbdock ($Id: //depot/dev/client3/rdock/2013.1/src/exe/rbdock.cxx#4 $)

>  <Rbt.Library>
libRbt.so (2013.1, Build901 2013/11/27)

>  <Rbt.Parameter_File>
/export/apps/rDock/src/rDock_2013.1_src/data/scripts/dock_solv.prm

>  <Rbt.Receptor>
prm/blind_docking_20.prm

>  <SCORE>
-23.5377

>  <SCORE.INTER>
-17.2106

>  <SCORE.INTER.CONST>
1

>  <SCORE.INTER.POLAR>
0

>  <SCORE.INTER.ROT>
4

>  <SCORE.INTER.SOLV>
13.6694

>  <SCORE.INTER.VDW>
-22.2969

>  <SCORE.INTER.norm>
-0.717109

>  <SCORE.INTRA>
-6.32703

>  <SCORE.INTRA.DIHEDRAL>
-10.9221

>  <SCORE.INTRA.DIHEDRAL.0>
13.2525

>  <SCORE.INTRA.POLAR>
0

>  <SCORE.INTRA.POLAR.0>
0

>  <SCORE.INTRA.REPUL>
0

>  <SCORE.INTRA.REPUL.0>
0

>  <SCORE.INTRA.SOLV>
0.555763

>  <SCORE.INTRA.SOLV.lig_0>
-70.7221

>  <SCORE.INTRA.VDW>
-1.14384

>  <SCORE.INTRA.VDW.0>
-1.46337

>  <SCORE.INTRA.norm>
-0.263626

>  <SCORE.RESTR>
0

>  <SCORE.RESTR.CAVITY>
0

>  <SCORE.RESTR.norm>
0

>  <SCORE.SYSTEM>
0

>  <SCORE.SYSTEM.CONST>
0

>  <SCORE.SYSTEM.DIHEDRAL>
0

>  <SCORE.SYSTEM.SOLV>
0

>  <SCORE.SYSTEM.norm>
0

>  <SCORE.heavy>
24

>  <SCORE.norm>
-0.980735

>  <RMSD>
17.446

$$$$
ligand
 OpenBabel11021811483D
libRbt.so/2013.1/901 2013/11/27
 24 26  0  0  0  0  0  0  0  0999 V2000
   -6.3218    0.9777   -5.5941 P   0  0  1  0  0  0  0  0  0  0  0  0
   -6.0532    1.8020   -4.3532 O   0  0  0  0  0  0  0  0  0  0  0  0
   -6.6625    1.7466   -6.8489 O   0  5  0  0  0  0  0  0  0  0  0  0
   -5.3012   -0.1238   -5.8384 O   0  0  0  0  0  0  0  0  0  0  0  0
   -9.0232    0.8584   -5.5484 C   0  0  0  0  0  0  0  0  0  0  0  0
   -7.7438    0.2586   -5.2809 O   0  0  0  0  0  0  0  0  0  0  0  0
  -10.1436   -0.0668   -5.0643 C   0  0  1  0  0  0  0  0  0  0  0  0
   -9.9587   -1.4133   -5.5191 O   0  0  0  0  0  0  0  0  0  0  0  0
  -10.2866   -0.1597   -3.5548 C   0  0  1  0  0  0  0  0  0  0  0  0
  -11.2101    0.8404   -3.1147 O   0  0  0  0  0  0  0  0  0  0  0  0
  -10.8378   -1.5599   -3.3407 C   0  0  1  0  0  0  0  0  0  0  0  0
  -12.2591   -1.5758   -3.5356 O   0  0  0  0  0  0  0  0  0  0  0  0
  -10.2518   -2.3619   -4.4858 C   0  0  2  0  0  0  0  0  0  0  0  0
   -5.9145   -4.1079   -6.5342 N   0  0  0  0  0  0  0  0  0  0  0  0
   -6.9982   -3.5742   -7.1426 C   0  0  1  0  0  0  0  0  0  0  0  0
   -7.0032   -3.4468   -8.4888 N   0  0  0  0  0  0  0  0  0  0  0  0
   -8.0712   -3.1690   -6.4238 N   0  0  0  0  0  0  0  0  0  0  0  0
   -8.0605   -3.2997   -5.0756 C   0  0  1  0  0  0  0  0  0  0  0  0
   -6.9681   -3.8428   -4.4283 C   0  0  2  0  0  0  0  0  0  0  0  0
   -5.8786   -4.2503   -5.1893 C   0  0  0  0  0  0  0  0  0  0  0  0
   -4.8722   -4.7458   -4.6450 O   0  0  0  0  0  0  0  0  0  0  0  0
   -7.2479   -3.8491   -3.1090 N   0  0  0  0  0  0  0  0  0  0  0  0
   -8.4810   -3.3154   -2.9463 C   0  0  0  0  0  0  0  0  0  0  0  0
   -8.9584   -2.9863   -4.1508 N   0  0  1  0  0  0  0  0  0  0  0  0
  1  2  1  1  0  0  0
  1  3  1  0  0  0  0
  1  4  2  0  0  0  0
  1  6  1  0  0  0  0
  5  6  1  0  0  0  0
  7  5  1  1  0  0  0
  7  8  1  0  0  0  0
  7  9  1  0  0  0  0
  9 10  1  6  0  0  0
  9 11  1  0  0  0  0
 11 12  1  6  0  0  0
 11 13  1  0  0  0  0
 13  8  1  6  0  0  0
 13 24  1  0  0  0  0
 14 15  1  0  0  0  0
 14 20  1  0  0  0  0
 15 16  1  6  0  0  0
 15 17  1  0  0  0  0
 18 17  1  1  0  0  0
 18 19  1  0  0  0  0
 18 24  1  0  0  0  0
 19 20  1  6  0  0  0
 19 22  1  0  0  0  0
 20 21  2  0  0  0  0
 22 23  1  0  0  0  0
 24 23  1  1  0  0  0
M  CHG  1   3  -1
M  END
>  <CHROM.1>
86.45130033,-48.83496393,-177.11326583,-39.73287371,-8.01294317,-1.48832111
-5.04306311,-2.49152340,-0.44626535,3.06907907

>  <Name>
ligand

>  <RI>
0

>  <Rbt.Current_Directory>
/home/itssahil/PROJECTS/Mol_Feturizer/New_Systems/rnas/3SLQ

>  <Rbt.Executable>
rbdock ($Id: //depot/dev/client3/rdock/2013.1/src/exe/rbdock.cxx#4 $)

>  <Rbt.Library>
libRbt.so (2013.1, Build901 2013/11/27)

>  <Rbt.Parameter_File>
/export/apps/rDock/src/rDock_2013.1_src/data/scripts/dock_solv.prm

>  <Rbt.Receptor>
prm/blind_docking_40.prm

>  <SCORE>
-23.2467

>  <SCORE.INTER>
-17.4857

>  <SCORE.INTER.CONST>
1

>  <SCORE.INTER.POLAR>
0

>  <SCORE.INTER.ROT>
4

>  <SCORE.INTER.SOLV>
14.9437

>  <SCORE.INTER.VDW>
-22.9051

>  <SCORE.INTER.norm>
-0.728572

>  <SCORE.INTRA>
-5.76092

>  <SCORE.INTRA.DIHEDRAL>
-10.5738

>  <SCORE.INTRA.DIHEDRAL.0>
13.2525

>  <SCORE.INTRA.POLAR>
0

>  <SCORE.INTRA.POLAR.0>
0

>  <SCORE.INTRA.REPUL>
0

>  <SCORE.INTRA.REPUL.0>
0

>  <SCORE.INTRA.SOLV>
0.280306

>  <SCORE.INTRA.SOLV.lig_0>
-70.7221

>  <SCORE.INTRA.VDW>
-0.614191

>  <SCORE.INTRA.VDW.0>
-1.46337

>  <SCORE.INTRA.norm>
-0.240038

>  <SCORE.RESTR>
0

>  <SCORE.RESTR.CAVITY>
0

>  <SCORE.RESTR.norm>
0

>  <SCORE.SYSTEM>
0

>  <SCORE.SYSTEM.CONST>
0

>  <SCORE.SYSTEM.DIHEDRAL>
0

>  <SCORE.SYSTEM.SOLV>
0

>  <SCORE.SYSTEM.norm>
0

>  <SCORE.heavy>
24

>  <SCORE.norm>
-0.968611

>  <RMSD>
17.451

$$$$
ligand
 OpenBabel11021811483D
libRbt.so/2013.1/901 2013/11/27
 24 26  0  0  0  0  0  0  0  0999 V2000
   -6.2386    1.1371   -5.4717 P   0  0  1  0  0  0  0  0  0  0  0  0
   -5.9700    1.9444   -4.2197 O   0  0  0  0  0  0  0  0  0  0  0  0
   -6.5921    1.9223   -6.7127 O   0  5  0  0  0  0  0  0  0  0  0  0
   -5.2105    0.0477   -5.7381 O   0  0  0  0  0  0  0  0  0  0  0  0
   -8.9139    1.0885   -5.0792 C   0  0  0  0  0  0  0  0  0  0  0  0
   -7.6531    0.4018   -5.1621 O   0  0  0  0  0  0  0  0  0  0  0  0
  -10.0465    0.0762   -4.8838 C   0  0  1  0  0  0  0  0  0  0  0  0
   -9.7568   -1.1780   -5.5141 O   0  0  0  0  0  0  0  0  0  0  0  0
  -10.3626   -0.2558   -3.4355 C   0  0  1  0  0  0  0  0  0  0  0  0
  -11.3698    0.6438   -2.9634 O   0  0  0  0  0  0  0  0  0  0  0  0
  -10.8800   -1.6831   -3.5083 C   0  0  1  0  0  0  0  0  0  0  0  0
  -12.2667   -1.6969   -3.8758 O   0  0  0  0  0  0  0  0  0  0  0  0
  -10.1323   -2.2830   -4.6825 C   0  0  2  0  0  0  0  0  0  0  0  0
   -5.7984   -4.2248   -6.5544 N   0  0  0  0  0  0  0  0  0  0  0  0
   -6.8536   -3.6892   -7.2096 C   0  0  1  0  0  0  0  0  0  0  0  0
   -6.8249   -3.6184   -8.5597 N   0  0  0  0  0  0  0  0  0  0  0  0
   -7.9312   -3.2267   -6.5336 N   0  0  0  0  0  0  0  0  0  0  0  0
   -7.9542   -3.3010   -5.1813 C   0  0  1  0  0  0  0  0  0  0  0  0
   -6.8915   -3.8445   -4.4866 C   0  0  2  0  0  0  0  0  0  0  0  0
   -5.7965   -4.3115   -5.2042 C   0  0  0  0  0  0  0  0  0  0  0  0
   -4.8162   -4.8096   -4.6164 O   0  0  0  0  0  0  0  0  0  0  0  0
   -7.2009   -3.7883   -3.1752 N   0  0  0  0  0  0  0  0  0  0  0  0
   -8.4226   -3.2165   -3.0637 C   0  0  0  0  0  0  0  0  0  0  0  0
   -8.8639   -2.9260   -4.2916 N   0  0  1  0  0  0  0  0  0  0  0  0
  1  2  1  1  0  0  0
  1  3  1  0  0  0  0
  1  4  2  0  0  0  0
  1  6  1  0  0  0  0
  5  6  1  0  0  0  0
  7  5  1  1  0  0  0
  7  8  1  0  0  0  0
  7  9  1  0  0  0  0
  9 10  1  6  0  0  0
  9 11  1  0  0  0  0
 11 12  1  6  0  0  0
 11 13  1  0  0  0  0
 13  8  1  6  0  0  0
 13 24  1  0  0  0  0
 14 15  1  0  0  0  0
 14 20  1  0  0  0  0
 15 16  1  6  0  0  0
 15 17  1  0  0  0  0
 18 17  1  1  0  0  0
 18 19  1  0  0  0  0
 18 24  1  0  0  0  0
 19 20  1  6  0  0  0
 19 22  1  0  0  0  0
 20 21  2  0  0  0  0
 22 23  1  0  0  0  0
 24 23  1  1  0  0  0
M  CHG  1   3  -1
M  END
>  <CHROM.1>
69.66666009,-31.09252798,175.57380097,-52.79777340,-7.94004726,-1.45490665
-5.02956296,-2.37561462,-0.41337282,-3.14067845

>  <Name>
ligand

>  <RI>
0

>  <Rbt.Current_Directory>
/home/itssahil/PROJECTS/Mol_Feturizer/New_Systems/rnas/3SLQ

>  <Rbt.Executable>
rbdock ($Id: //depot/dev/client3/rdock/2013.1/src/exe/rbdock.cxx#4 $)

>  <Rbt.Library>
libRbt.so (2013.1, Build901 2013/11/27)

>  <Rbt.Parameter_File>
/export/apps/rDock/src/rDock_2013.1_src/data/scripts/dock_solv.prm

>  <Rbt.Receptor>
prm/blind_docking_60.prm

>  <SCORE>
-23.4437

>  <SCORE.INTER>
-18.2022

>  <SCORE.INTER.CONST>
1

>  <SCORE.INTER.POLAR>
0

>  <SCORE.INTER.ROT>
4

>  <SCORE.INTER.SOLV>
15.345

>  <SCORE.INTER.VDW>
-23.5165

>  <SCORE.INTER.norm>
-0.758425

>  <SCORE.INTRA>
-5.24153

>  <SCORE.INTRA.DIHEDRAL>
-9.30934

>  <SCORE.INTRA.DIHEDRAL.0>
13.2525

>  <SCORE.INTRA.POLAR>
0

>  <SCORE.INTRA.POLAR.0>
0

>  <SCORE.INTRA.REPUL>
0

>  <SCORE.INTRA.REPUL.0>
0

>  <SCORE.INTRA.SOLV>
0.135863

>  <SCORE.INTRA.SOLV.lig_0>
-70.7221

>  <SCORE.INTRA.VDW>
-0.654794

>  <SCORE.INTRA.VDW.0>
-1.46337

>  <SCORE.INTRA.norm>
-0.218397

>  <SCORE.RESTR>
0

>  <SCORE.RESTR.CAVITY>
0

>  <SCORE.RESTR.norm>
0

>  <SCORE.SYSTEM>
0

>  <SCORE.SYSTEM.CONST>
0

>  <SCORE.SYSTEM.DIHEDRAL>
0

>  <SCORE.SYSTEM.SOLV>
0

>  <SCORE.SYSTEM.norm>
0

>  <SCORE.heavy>
24

>  <SCORE.norm>
-0.976823

>  <RMSD>
17.451

$$$$
ligand
 OpenBabel11021811483D
libRbt.so/2013.1/901 2013/11/27
 24 26  0  0  0  0  0  0  0  0999 V2000
  -13.2445   -1.2605   -2.6330 P   0  0  1  0  0  0  0  0  0  0  0  0
  -12.7688   -2.4132   -3.4912 O   0  0  0  0  0  0  0  0  0  0  0  0
  -14.3397   -0.3985   -3.2155 O   0  5  0  0  0  0  0  0  0  0  0  0
  -13.5004   -1.6345   -1.1807 O   0  0  0  0  0  0  0  0  0  0  0  0
  -11.5621    0.4905   -3.8236 C   0  0  0  0  0  0  0  0  0  0  0  0
  -11.9958   -0.2224   -2.6523 O   0  0  0  0  0  0  0  0  0  0  0  0
  -10.2842    1.2753   -3.5122 C   0  0  1  0  0  0  0  0  0  0  0  0
   -9.1521    0.4112   -3.3522 O   0  0  0  0  0  0  0  0  0  0  0  0
   -9.8822    2.2862   -4.5725 C   0  0  1  0  0  0  0  0  0  0  0  0
  -10.4808    3.5476   -4.2602 O   0  0  0  0  0  0  0  0  0  0  0  0
   -8.3684    2.3416   -4.4475 C   0  0  1  0  0  0  0  0  0  0  0  0
   -7.9841    3.2198   -3.3801 O   0  0  0  0  0  0  0  0  0  0  0  0
   -7.9882    0.9456   -3.9952 C   0  0  2  0  0  0  0  0  0  0  0  0
   -4.4709   -0.2595   -7.4927 N   0  0  0  0  0  0  0  0  0  0  0  0
   -4.4464    0.7073   -6.5471 C   0  0  1  0  0  0  0  0  0  0  0  0
   -3.3606    1.5073   -6.4496 N   0  0  0  0  0  0  0  0  0  0  0  0
   -5.4899    0.8822   -5.7030 N   0  0  0  0  0  0  0  0  0  0  0  0
   -6.5749    0.0779   -5.8060 C   0  0  1  0  0  0  0  0  0  0  0  0
   -6.6276   -0.9162   -6.7632 C   0  0  2  0  0  0  0  0  0  0  0  0
   -5.5427   -1.0757   -7.6173 C   0  0  0  0  0  0  0  0  0  0  0  0
   -5.5492   -1.9607   -8.4957 O   0  0  0  0  0  0  0  0  0  0  0  0
   -7.8164   -1.5387   -6.6277 N   0  0  0  0  0  0  0  0  0  0  0  0
   -8.4777   -0.9470   -5.6057 C   0  0  0  0  0  0  0  0  0  0  0  0
   -7.7082    0.0313   -5.1180 N   0  0  1  0  0  0  0  0  0  0  0  0
  1  2  1  6  0  0  0
  1  3  1  0  0  0  0
  1  4  2  0  0  0  0
  1  6  1  0  0  0  0
  5  6  1  0  0  0  0
  7  5  1  6  0  0  0
  7  8  1  0  0  0  0
  7  9  1  0  0  0  0
  9 10  1  1  0  0  0
  9 11  1  0  0  0  0
 11 12  1  1  0  0  0
 11 13  1  0  0  0  0
 13  8  1  6  0  0  0
 13 24  1  0  0  0  0
 14 15  1  0  0  0  0
 14 20  1  0  0  0  0
 15 16  1  6  0  0  0
 15 17  1  0  0  0  0
 18 17  1  1  0  0  0
 18 19  1  0  0  0  0
 18 24  1  0  0  0  0
 19 20  1  6  0  0  0
 19 22  1  0  0  0  0
 20 21  2  0  0  0  0
 22 23  1  0  0  0  0
 24 23  1  1  0  0  0
M  CHG  1   3  -1
M  END
>  <CHROM.1>
67.20249424,71.40122647,-174.69709846,-168.41575952,-9.02299182,0.13696090
-4.67083934,3.03827288,0.48583853,0.39118505

>  <Name>
ligand

>  <RI>
0

>  <Rbt.Current_Directory>
/home/itssahil/PROJECTS/Mol_Feturizer/New_Systems/rnas/3SLQ

>  <Rbt.Executable>
rbdock ($Id: //depot/dev/client3/rdock/2013.1/src/exe/rbdock.cxx#4 $)

>  <Rbt.Library>
libRbt.so (2013.1, Build901 2013/11/27)

>  <Rbt.Parameter_File>
/export/apps/rDock/src/rDock_2013.1_src/data/scripts/dock_solv.prm

>  <Rbt.Receptor>
prm/blind_docking_100.prm

>  <SCORE>
-20.091

>  <SCORE.INTER>
-14.2223

>  <SCORE.INTER.CONST>
1

>  <SCORE.INTER.POLAR>
0

>  <SCORE.INTER.ROT>
4

>  <SCORE.INTER.SOLV>
19.0652

>  <SCORE.INTER.VDW>
-22.1033

>  <SCORE.INTER.norm>
-0.592598

>  <SCORE.INTRA>
-5.86867

>  <SCORE.INTRA.DIHEDRAL>
-11.361

>  <SCORE.INTRA.DIHEDRAL.0>
13.2525

>  <SCORE.INTRA.POLAR>
0

>  <SCORE.INTRA.POLAR.0>
0

>  <SCORE.INTRA.REPUL>
0

>  <SCORE.INTRA.REPUL.0>
0

>  <SCORE.INTRA.SOLV>
-0.0364522

>  <SCORE.INTRA.SOLV.lig_0>
-70.7221

>  <SCORE.INTRA.VDW>
-0.169933

>  <SCORE.INTRA.VDW.0>
-1.46337

>  <SCORE.INTRA.norm>
-0.244528

>  <SCORE.RESTR>
0

>  <SCORE.RESTR.CAVITY>
0

>  <SCORE.RESTR.norm>
0

>  <SCORE.SYSTEM>
0

>  <SCORE.SYSTEM.CONST>
0

>  <SCORE.SYSTEM.DIHEDRAL>
0

>  <SCORE.SYSTEM.SOLV>
0

>  <SCORE.SYSTEM.norm>
0

>  <SCORE.heavy>
24

>  <SCORE.norm>
-0.837126

>  <RMSD>
17.461

$$$$
ligand
 OpenBabel11021811483D
libRbt.so/2013.1/901 2013/11/27
 24 26  0  0  0  0  0  0  0  0999 V2000
  -13.5531   -0.8520   -2.6126 P   0  0  1  0  0  0  0  0  0  0  0  0
  -14.5608   -0.1388   -3.4885 O   0  0  0  0  0  0  0  0  0  0  0  0
  -13.8874   -0.9413   -1.1422 O   0  5  0  0  0  0  0  0  0  0  0  0
  -13.0607   -2.1728   -3.1849 O   0  0  0  0  0  0  0  0  0  0  0  0
  -11.7544    0.8256   -3.7369 C   0  0  0  0  0  0  0  0  0  0  0  0
  -12.2851    0.1621   -2.5766 O   0  0  0  0  0  0  0  0  0  0  0  0
  -10.4665    1.5682   -3.3686 C   0  0  1  0  0  0  0  0  0  0  0  0
   -9.3498    0.6771   -3.2546 O   0  0  0  0  0  0  0  0  0  0  0  0
  -10.0396    2.6359   -4.3614 C   0  0  1  0  0  0  0  0  0  0  0  0
  -10.6200    3.8854   -3.9758 O   0  0  0  0  0  0  0  0  0  0  0  0
   -8.5262    2.6581   -4.2227 C   0  0  1  0  0  0  0  0  0  0  0  0
   -8.1361    3.4620   -3.1003 O   0  0  0  0  0  0  0  0  0  0  0  0
   -8.1724    1.2307   -3.8551 C   0  0  2  0  0  0  0  0  0  0  0  0
   -4.5600    0.0091   -7.2485 N   0  0  0  0  0  0  0  0  0  0  0  0
   -4.5166    0.8976   -6.2296 C   0  0  1  0  0  0  0  0  0  0  0  0
   -3.3802    1.5977   -6.0127 N   0  0  0  0  0  0  0  0  0  0  0  0
   -5.5910    1.0929   -5.4298 N   0  0  0  0  0  0  0  0  0  0  0  0
   -6.7266    0.3889   -5.6525 C   0  0  1  0  0  0  0  0  0  0  0  0
   -6.7995   -0.5235   -6.6867 C   0  0  2  0  0  0  0  0  0  0  0  0
   -5.6820   -0.7061   -7.4929 C   0  0  0  0  0  0  0  0  0  0  0  0
   -5.7052   -1.5197   -8.4374 O   0  0  0  0  0  0  0  0  0  0  0  0
   -8.0383   -1.0562   -6.6629 N   0  0  0  0  0  0  0  0  0  0  0  0
   -8.7108   -0.4908   -5.6333 C   0  0  0  0  0  0  0  0  0  0  0  0
   -7.8982    0.3829   -5.0304 N   0  0  1  0  0  0  0  0  0  0  0  0
  1  2  1  6  0  0  0
  1  3  1  0  0  0  0
  1  4  2  0  0  0  0
  1  6  1  0  0  0  0
  5  6  1  0  0  0  0
  7  5  1  6  0  0  0
  7  8  1  0  0  0  0
  7  9  1  0  0  0  0
  9 10  1  1  0  0  0
  9 11  1  0  0  0  0
 11 12  1  1  0  0  0
 11 13  1  0  0  0  0
 13  8  1  6  0  0  0
 13 24  1  0  0  0  0
 14 15  1  0  0  0  0
 14 20  1  0  0  0  0
 15 16  1  6  0  0  0
 15 17  1  0  0  0  0
 18 17  1  1  0  0  0
 18 19  1  0  0  0  0
 18 24  1  0  0  0  0
 19 20  1  6  0  0  0
 19 22  1  0  0  0  0
 20 21  2  0  0  0  0
 22 23  1  0  0  0  0
 24 23  1  1  0  0  0
M  CHG  1   3  -1
M  END
>  <CHROM.1>
-44.79996051,77.40100376,-173.25606567,-163.82701348,-9.21554982,0.47400380
-4.53868047,3.00212236,0.44933392,0.46167918

>  <Name>
ligand

>  <RI>
0

>  <Rbt.Current_Directory>
/home/itssahil/PROJECTS/Mol_Feturizer/New_Systems/rnas/3SLQ

>  <Rbt.Executable>
rbdock ($Id: //depot/dev/client3/rdock/2013.1/src/exe/rbdock.cxx#4 $)

>  <Rbt.Library>
libRbt.so (2013.1, Build901 2013/11/27)

>  <Rbt.Parameter_File>
/export/apps/rDock/src/rDock_2013.1_src/data/scripts/dock_solv.prm

>  <Rbt.Receptor>
prm/blind_docking_40.prm

>  <SCORE>
-20.3253

>  <SCORE.INTER>
-14.746

>  <SCORE.INTER.CONST>
1

>  <SCORE.INTER.POLAR>
0

>  <SCORE.INTER.ROT>
4

>  <SCORE.INTER.SOLV>
18.6064

>  <SCORE.INTER.VDW>
-22.2995

>  <SCORE.INTER.norm>
-0.614416

>  <SCORE.INTRA>
-5.57935

>  <SCORE.INTRA.DIHEDRAL>
-10.431

>  <SCORE.INTRA.DIHEDRAL.0>
13.2525

>  <SCORE.INTRA.POLAR>
0

>  <SCORE.INTRA.POLAR.0>
0

>  <SCORE.INTRA.REPUL>
0

>  <SCORE.INTRA.REPUL.0>
0

>  <SCORE.INTRA.SOLV>
-0.2551

>  <SCORE.INTRA.SOLV.lig_0>
-70.7221

>  <SCORE.INTRA.VDW>
-0.236301

>  <SCORE.INTRA.VDW.0>
-1.46337

>  <SCORE.INTRA.norm>
-0.232473

>  <SCORE.RESTR>
0

>  <SCORE.RESTR.CAVITY>
0

>  <SCORE.RESTR.norm>
0

>  <SCORE.SYSTEM>
0

>  <SCORE.SYSTEM.CONST>
0

>  <SCORE.SYSTEM.DIHEDRAL>
0

>  <SCORE.SYSTEM.SOLV>
0

>  <SCORE.SYSTEM.norm>
0

>  <SCORE.heavy>
24

>  <SCORE.norm>
-0.846889

>  <RMSD>
17.478

$$$$
ligand
 OpenBabel11021811483D
libRbt.so/2013.1/901 2013/11/27
 24 26  0  0  0  0  0  0  0  0999 V2000
   -6.3834    0.9660   -5.7723 P   0  0  1  0  0  0  0  0  0  0  0  0
   -6.7105    1.6813   -7.0657 O   0  0  0  0  0  0  0  0  0  0  0  0
   -5.4696   -0.2319   -5.8812 O   0  5  0  0  0  0  0  0  0  0  0  0
   -6.0003    1.8958   -4.6306 O   0  0  0  0  0  0  0  0  0  0  0  0
   -9.0796    0.7941   -5.6526 C   0  0  0  0  0  0  0  0  0  0  0  0
   -7.7812    0.2479   -5.3628 O   0  0  0  0  0  0  0  0  0  0  0  0
  -10.1678   -0.1121   -5.0691 C   0  0  1  0  0  0  0  0  0  0  0  0
  -10.0058   -1.4752   -5.4811 O   0  0  0  0  0  0  0  0  0  0  0  0
  -10.2234   -0.1462   -3.5513 C   0  0  1  0  0  0  0  0  0  0  0  0
  -11.1227    0.8700   -3.0979 O   0  0  0  0  0  0  0  0  0  0  0  0
  -10.7576   -1.5372   -3.2516 C   0  0  1  0  0  0  0  0  0  0  0  0
  -12.1878   -1.5613   -3.3634 O   0  0  0  0  0  0  0  0  0  0  0  0
  -10.2364   -2.3829   -4.3965 C   0  0  2  0  0  0  0  0  0  0  0  0
   -5.9718   -4.0995   -6.6154 N   0  0  0  0  0  0  0  0  0  0  0  0
   -7.0851   -3.5794   -7.1807 C   0  0  1  0  0  0  0  0  0  0  0  0
   -7.1475   -3.4597   -8.5261 N   0  0  0  0  0  0  0  0  0  0  0  0
   -8.1310   -3.1803   -6.4198 N   0  0  0  0  0  0  0  0  0  0  0  0
   -8.0627   -3.3034   -5.0725 C   0  0  1  0  0  0  0  0  0  0  0  0
   -6.9390   -3.8325   -4.4687 C   0  0  2  0  0  0  0  0  0  0  0  0
   -5.8784   -4.2340   -5.2724 C   0  0  0  0  0  0  0  0  0  0  0  0
   -4.8454   -4.7170   -4.7681 O   0  0  0  0  0  0  0  0  0  0  0  0
   -7.1634   -3.8341   -3.1388 N   0  0  0  0  0  0  0  0  0  0  0  0
   -8.3937   -3.3110   -2.9275 C   0  0  0  0  0  0  0  0  0  0  0  0
   -8.9242   -2.9932   -4.1126 N   0  0  1  0  0  0  0  0  0  0  0  0
  1  2  1  6  0  0  0
  1  3  1  0  0  0  0
  1  4  2  0  0  0  0
  1  6  1  0  0  0  0
  5  6  1  0  0  0  0
  7  5  1  1  0  0  0
  7  8  1  0  0  0  0
  7  9  1  0  0  0  0
  9 10  1  6  0  0  0
  9 11  1  0  0  0  0
 11 12  1  6  0  0  0
 11 13  1  0  0  0  0
 13  8  1  6  0  0  0
 13 24  1  0  0  0  0
 14 15  1  0  0  0  0
 14 20  1  0  0  0  0
 15 16  1  6  0  0  0
 15 17  1  0  0  0  0
 18 17  1  1  0  0  0
 18 19  1  0  0  0  0
 18 24  1  0  0  0  0
 19 20  1  6  0  0  0
 19 22  1  0  0  0  0
 20 21  2  0  0  0  0
 22 23  1  0  0  0  0
 24 23  1  1  0  0  0
M  CHG  1   3  -1
M  END
>  <CHROM.1>
-32.46126629,-52.42241737,-177.45585834,-37.55961575,-8.02312306,-1.49610820
-5.08834215,-2.50872845,-0.48950034,3.03556771

>  <Name>
ligand

>  <RI>
0

>  <Rbt.Current_Directory>
/home/itssahil/PROJECTS/Mol_Feturizer/New_Systems/rnas/3SLQ

>  <Rbt.Executable>
rbdock ($Id: //depot/dev/client3/rdock/2013.1/src/exe/rbdock.cxx#4 $)

>  <Rbt.Library>
libRbt.so (2013.1, Build901 2013/11/27)

>  <Rbt.Parameter_File>
/export/apps/rDock/src/rDock_2013.1_src/data/scripts/dock_solv.prm

>  <Rbt.Receptor>
prm/blind_docking_80.prm

>  <SCORE>
-22.6804

>  <SCORE.INTER>
-16.4692

>  <SCORE.INTER.CONST>
1

>  <SCORE.INTER.POLAR>
0

>  <SCORE.INTER.ROT>
4

>  <SCORE.INTER.SOLV>
15.9897

>  <SCORE.INTER.VDW>
-22.576

>  <SCORE.INTER.norm>
-0.686216

>  <SCORE.INTRA>
-6.21119

>  <SCORE.INTRA.DIHEDRAL>
-10.7472

>  <SCORE.INTRA.DIHEDRAL.0>
13.2525

>  <SCORE.INTRA.POLAR>
0

>  <SCORE.INTRA.POLAR.0>
0

>  <SCORE.INTRA.REPUL>
0

>  <SCORE.INTRA.REPUL.0>
0

>  <SCORE.INTRA.SOLV>
-0.0144683

>  <SCORE.INTRA.SOLV.lig_0>
-70.7221

>  <SCORE.INTRA.VDW>
-0.830335

>  <SCORE.INTRA.VDW.0>
-1.46337

>  <SCORE.INTRA.norm>
-0.2588

>  <SCORE.RESTR>
0

>  <SCORE.RESTR.CAVITY>
0

>  <SCORE.RESTR.norm>
0

>  <SCORE.SYSTEM>
0

>  <SCORE.SYSTEM.CONST>
0

>  <SCORE.SYSTEM.DIHEDRAL>
0

>  <SCORE.SYSTEM.SOLV>
0

>  <SCORE.SYSTEM.norm>
0

>  <SCORE.heavy>
24

>  <SCORE.norm>
-0.945016

>  <RMSD>
17.482

$$$$
ligand
 OpenBabel11021811483D
libRbt.so/2013.1/901 2013/11/27
 24 26  0  0  0  0  0  0  0  0999 V2000
   -7.6722   -1.5346   -7.0256 P   0  0  1  0  0  0  0  0  0  0  0  0
   -6.5774   -2.1900   -6.2111 O   0  0  0  0  0  0  0  0  0  0  0  0
   -7.5375   -1.6275   -8.5273 O   0  5  0  0  0  0  0  0  0  0  0  0
   -9.0788   -1.8523   -6.5407 O   0  0  0  0  0  0  0  0  0  0  0  0
   -7.3526    0.6751   -5.4997 C   0  0  0  0  0  0  0  0  0  0  0  0
   -7.4282    0.0542   -6.7946 O   0  0  0  0  0  0  0  0  0  0  0  0
   -8.7314    0.6585   -4.8329 C   0  0  1  0  0  0  0  0  0  0  0  0
   -8.6830    1.1643   -3.4928 O   0  0  0  0  0  0  0  0  0  0  0  0
   -9.7935    1.4800   -5.5434 C   0  0  1  0  0  0  0  0  0  0  0  0
  -10.4726    0.6440   -6.4850 O   0  0  0  0  0  0  0  0  0  0  0  0
  -10.7156    1.9115   -4.4148 C   0  0  1  0  0  0  0  0  0  0  0  0
  -11.6486    0.8678   -4.1011 O   0  0  0  0  0  0  0  0  0  0  0  0
   -9.7964    2.0225   -3.2146 C   0  0  2  0  0  0  0  0  0  0  0  0
  -10.5422    6.5300   -0.9380 N   0  0  0  0  0  0  0  0  0  0  0  0
  -11.3102    5.4170   -0.9125 C   0  0  1  0  0  0  0  0  0  0  0  0
  -12.4559    5.4223   -0.1941 N   0  0  0  0  0  0  0  0  0  0  0  0
  -10.9476    4.3050   -1.5937 N   0  0  0  0  0  0  0  0  0  0  0  0
   -9.7991    4.3061   -2.3120 C   0  0  1  0  0  0  0  0  0  0  0  0
   -8.9966    5.4291   -2.3571 C   0  0  2  0  0  0  0  0  0  0  0  0
   -9.3909    6.5577   -1.6481 C   0  0  0  0  0  0  0  0  0  0  0  0
   -8.6958    7.5927   -1.6619 O   0  0  0  0  0  0  0  0  0  0  0  0
   -7.9418    5.1349   -3.1444 N   0  0  0  0  0  0  0  0  0  0  0  0
   -8.0870    3.8578   -3.5685 C   0  0  0  0  0  0  0  0  0  0  0  0
   -9.2194    3.3700   -3.0519 N   0  0  1  0  0  0  0  0  0  0  0  0
  1  2  1  1  0  0  0
  1  3  1  0  0  0  0
  1  4  2  0  0  0  0
  1  6  1  0  0  0  0
  5  6  1  0  0  0  0
  7  5  1  6  0  0  0
  7  8  1  0  0  0  0
  7  9  1  0  0  0  0
  9 10  1  6  0  0  0
  9 11  1  0  0  0  0
 11 12  1  1  0  0  0
 11 13  1  0  0  0  0
 13  8  1  6  0  0  0
 13 24  1  0  0  0  0
 14 15  1  0  0  0  0
 14 20  1  0  0  0  0
 15 16  1  6  0  0  0
 15 17  1  0  0  0  0
 18 17  1  1  0  0  0
 18 19  1  0  0  0  0
 18 24  1  0  0  0  0
 19 20  1  6  0  0  0
 19 22  1  0  0  0  0
 20 21  2  0  0  0  0
 22 23  1  0  0  0  0
 24 23  1  1  0  0  0
M  CHG  1   3  -1
M  END
>  <CHROM.1>
-54.42469550,175.04295548,-69.45728669,-153.46187627,-9.17407613,2.16626004
-4.18077510,-1.31113074,0.33440507,0.56853607

>  <Name>
ligand

>  <RI>
0

>  <Rbt.Current_Directory>
/home/itssahil/PROJECTS/Mol_Feturizer/New_Systems/rnas/3SLQ

>  <Rbt.Executable>
rbdock ($Id: //depot/dev/client3/rdock/2013.1/src/exe/rbdock.cxx#4 $)

>  <Rbt.Library>
libRbt.so (2013.1, Build901 2013/11/27)

>  <Rbt.Parameter_File>
/export/apps/rDock/src/rDock_2013.1_src/data/scripts/dock_solv.prm

>  <Rbt.Receptor>
prm/blind_docking_100.prm

>  <SCORE>
-18.584

>  <SCORE.INTER>
-13.4853

>  <SCORE.INTER.CONST>
1

>  <SCORE.INTER.POLAR>
0

>  <SCORE.INTER.ROT>
4

>  <SCORE.INTER.SOLV>
10.3819

>  <SCORE.INTER.VDW>
-18.7175

>  <SCORE.INTER.norm>
-0.561888

>  <SCORE.INTRA>
-5.09867

>  <SCORE.INTRA.DIHEDRAL>
-11.4575

>  <SCORE.INTRA.DIHEDRAL.0>
13.2525

>  <SCORE.INTRA.POLAR>
0

>  <SCORE.INTRA.POLAR.0>
0

>  <SCORE.INTRA.REPUL>
0

>  <SCORE.INTRA.REPUL.0>
0

>  <SCORE.INTRA.SOLV>
3.26007

>  <SCORE.INTRA.SOLV.lig_0>
-70.7221

>  <SCORE.INTRA.VDW>
-0.999943

>  <SCORE.INTRA.VDW.0>
-1.46337

>  <SCORE.INTRA.norm>
-0.212445

>  <SCORE.RESTR>
0

>  <SCORE.RESTR.CAVITY>
0

>  <SCORE.RESTR.norm>
0

>  <SCORE.SYSTEM>
0

>  <SCORE.SYSTEM.CONST>
0

>  <SCORE.SYSTEM.DIHEDRAL>
0

>  <SCORE.SYSTEM.SOLV>
0

>  <SCORE.SYSTEM.norm>
0

>  <SCORE.heavy>
24

>  <SCORE.norm>
-0.774333

>  <RMSD>
17.488

$$$$
ligand
 OpenBabel11021811483D
libRbt.so/2013.1/901 2013/11/27
 24 26  0  0  0  0  0  0  0  0999 V2000
   -8.8114   -2.1822   -6.6711 P   0  0  1  0  0  0  0  0  0  0  0  0
   -9.6709   -3.1911   -5.9396 O   0  0  0  0  0  0  0  0  0  0  0  0
   -7.3389   -2.1865   -6.3340 O   0  5  0  0  0  0  0  0  0  0  0  0
   -9.0716   -2.1178   -8.1687 O   0  0  0  0  0  0  0  0  0  0  0  0
   -8.8399    0.5192   -6.5489 C   0  0  0  0  0  0  0  0  0  0  0  0
   -9.2653   -0.7566   -6.0396 O   0  0  0  0  0  0  0  0  0  0  0  0
   -9.4322    1.6445   -5.6953 C   0  0  1  0  0  0  0  0  0  0  0  0
  -10.8484    1.5002   -5.5290 O   0  0  0  0  0  0  0  0  0  0  0  0
   -8.8626    1.7472   -4.2907 C   0  0  1  0  0  0  0  0  0  0  0  0
   -7.7426    2.6372   -4.3092 O   0  0  0  0  0  0  0  0  0  0  0  0
  -10.0171    2.3209   -3.4857 C   0  0  1  0  0  0  0  0  0  0  0  0
  -10.0716    3.7471   -3.6314 O   0  0  0  0  0  0  0  0  0  0  0  0
  -11.2510    1.7838   -4.1832 C   0  0  2  0  0  0  0  0  0  0  0  0
  -14.2681   -0.2892   -0.6257 N   0  0  0  0  0  0  0  0  0  0  0  0
  -14.0222    1.0142   -0.8905 C   0  0  1  0  0  0  0  0  0  0  0  0
  -14.6347    1.9649   -0.1493 N   0  0  0  0  0  0  0  0  0  0  0  0
  -13.1750    1.3753   -1.8825 N   0  0  0  0  0  0  0  0  0  0  0  0
  -12.5641    0.4182   -2.6211 C   0  0  1  0  0  0  0  0  0  0  0  0
  -12.7954   -0.9202   -2.3715 C   0  0  2  0  0  0  0  0  0  0  0  0
  -13.6703   -1.2647   -1.3478 C   0  0  0  0  0  0  0  0  0  0  0  0
  -13.9072   -2.4612   -1.0891 O   0  0  0  0  0  0  0  0  0  0  0  0
  -12.0537   -1.6245   -3.2506 N   0  0  0  0  0  0  0  0  0  0  0  0
  -11.3867   -0.7406   -4.0289 C   0  0  0  0  0  0  0  0  0  0  0  0
  -11.7100    0.4947   -3.6332 N   0  0  1  0  0  0  0  0  0  0  0  0
  1  2  1  1  0  0  0
  1  3  1  0  0  0  0
  1  4  2  0  0  0  0
  1  6  1  0  0  0  0
  5  6  1  0  0  0  0
  7  5  1  1  0  0  0
  7  8  1  0  0  0  0
  7  9  1  0  0  0  0
  9 10  1  6  0  0  0
  9 11  1  0  0  0  0
 11 12  1  6  0  0  0
 11 13  1  0  0  0  0
 13  8  1  6  0  0  0
 13 24  1  0  0  0  0
 14 15  1  0  0  0  0
 14 20  1  0  0  0  0
 15 16  1  1  0  0  0
 15 17  1  0  0  0  0
 18 17  1  6  0  0  0
 18 19  1  0  0  0  0
 18 24  1  0  0  0  0
 19 20  1  1  0  0  0
 19 22  1  0  0  0  0
 20 21  2  0  0  0  0
 22 23  1  0  0  0  0
 24 23  1  6  0  0  0
M  CHG  1   3  -1
M  END
>  <CHROM.1>
-171.69631552,-50.96526298,-178.71608249,-156.03447835,-10.85367811,0.00282244
-4.09349582,0.40194894,-0.74286306,-2.84223629

>  <Name>
ligand

>  <RI>
0

>  <Rbt.Current_Directory>
/home/itssahil/PROJECTS/Mol_Feturizer/New_Systems/rnas/3SLQ

>  <Rbt.Executable>
rbdock ($Id: //depot/dev/client3/rdock/2013.1/src/exe/rbdock.cxx#4 $)

>  <Rbt.Library>
libRbt.so (2013.1, Build901 2013/11/27)

>  <Rbt.Parameter_File>
/export/apps/rDock/src/rDock_2013.1_src/data/scripts/dock_solv.prm

>  <Rbt.Receptor>
prm/blind_docking_100.prm

>  <SCORE>
-22.2683

>  <SCORE.INTER>
-15.8338

>  <SCORE.INTER.CONST>
1

>  <SCORE.INTER.POLAR>
0

>  <SCORE.INTER.ROT>
4

>  <SCORE.INTER.SOLV>
14.5566

>  <SCORE.INTER.VDW>
-21.6747

>  <SCORE.INTER.norm>
-0.659742

>  <SCORE.INTRA>
-6.43446

>  <SCORE.INTRA.DIHEDRAL>
-11.6216

>  <SCORE.INTRA.DIHEDRAL.0>
13.2525

>  <SCORE.INTRA.POLAR>
0

>  <SCORE.INTRA.POLAR.0>
0

>  <SCORE.INTRA.REPUL>
0

>  <SCORE.INTRA.REPUL.0>
0

>  <SCORE.INTRA.SOLV>
0.600049

>  <SCORE.INTRA.SOLV.lig_0>
-70.7221

>  <SCORE.INTRA.VDW>
-0.923665

>  <SCORE.INTRA.VDW.0>
-1.46337

>  <SCORE.INTRA.norm>
-0.268102

>  <SCORE.RESTR>
0

>  <SCORE.RESTR.CAVITY>
0

>  <SCORE.RESTR.norm>
0

>  <SCORE.SYSTEM>
0

>  <SCORE.SYSTEM.CONST>
0

>  <SCORE.SYSTEM.DIHEDRAL>
0

>  <SCORE.SYSTEM.SOLV>
0

>  <SCORE.SYSTEM.norm>
0

>  <SCORE.heavy>
24

>  <SCORE.norm>
-0.927844

>  <RMSD>
17.494

$$$$
ligand
 OpenBabel11021811483D
libRbt.so/2013.1/901 2013/11/27
 24 26  0  0  0  0  0  0  0  0999 V2000
   -5.1185    1.3118   -6.5076 P   0  0  1  0  0  0  0  0  0  0  0  0
   -4.3707    1.3484   -5.1919 O   0  0  0  0  0  0  0  0  0  0  0  0
   -5.9462    2.5303   -6.8424 O   0  5  0  0  0  0  0  0  0  0  0  0
   -4.2808    0.8293   -7.6824 O   0  0  0  0  0  0  0  0  0  0  0  0
   -7.3431    0.3619   -5.2984 C   0  0  0  0  0  0  0  0  0  0  0  0
   -6.2845    0.2091   -6.2598 O   0  0  0  0  0  0  0  0  0  0  0  0
   -8.0510   -0.9795   -5.0856 C   0  0  1  0  0  0  0  0  0  0  0  0
   -8.7351   -1.0290   -3.8272 O   0  0  0  0  0  0  0  0  0  0  0  0
   -9.0953   -1.3230   -6.1340 C   0  0  1  0  0  0  0  0  0  0  0  0
   -8.4687   -2.0611   -7.1873 O   0  0  0  0  0  0  0  0  0  0  0  0
  -10.0909   -2.1797   -5.3691 C   0  0  1  0  0  0  0  0  0  0  0  0
   -9.6330   -3.5373   -5.2951 O   0  0  0  0  0  0  0  0  0  0  0  0
  -10.0249   -1.6405   -3.9540 C   0  0  2  0  0  0  0  0  0  0  0  0
  -14.1504   -0.4230   -1.2054 N   0  0  0  0  0  0  0  0  0  0  0  0
  -13.4473   -1.5781   -1.2342 C   0  0  1  0  0  0  0  0  0  0  0  0
  -13.8306   -2.6036   -0.4406 N   0  0  0  0  0  0  0  0  0  0  0  0
  -12.3714   -1.7184   -2.0436 N   0  0  0  0  0  0  0  0  0  0  0  0
  -11.9928   -0.6876   -2.8366 C   0  0  1  0  0  0  0  0  0  0  0  0
  -12.6933    0.5026   -2.8288 C   0  0  2  0  0  0  0  0  0  0  0  0
  -13.7938    0.6214   -1.9880 C   0  0  0  0  0  0  0  0  0  0  0  0
  -14.4542    1.6784   -1.9501 O   0  0  0  0  0  0  0  0  0  0  0  0
  -12.0926    1.3255   -3.7125 N   0  0  0  0  0  0  0  0  0  0  0  0
  -11.0418    0.6606   -4.2469 C   0  0  0  0  0  0  0  0  0  0  0  0
  -10.9959   -0.5593   -3.7023 N   0  0  1  0  0  0  0  0  0  0  0  0
  1  2  1  1  0  0  0
  1  3  1  0  0  0  0
  1  4  2  0  0  0  0
  1  6  1  0  0  0  0
  5  6  1  0  0  0  0
  7  5  1  6  0  0  0
  7  8  1  0  0  0  0
  7  9  1  0  0  0  0
  9 10  1  6  0  0  0
  9 11  1  0  0  0  0
 11 12  1  1  0  0  0
 11 13  1  0  0  0  0
 13  8  1  6  0  0  0
 13 24  1  0  0  0  0
 14 15  1  0  0  0  0
 14 20  1  0  0  0  0
 15 16  1  6  0  0  0
 15 17  1  0  0  0  0
 18 17  1  1  0  0  0
 18 19  1  0  0  0  0
 18 24  1  0  0  0  0
 19 20  1  6  0  0  0
 19 22  1  0  0  0  0
 20 21  2  0  0  0  0
 22 23  1  0  0  0  0
 24 23  1  1  0  0  0
M  CHG  1   3  -1
M  END
>  <CHROM.1>
64.00413131,157.79324334,-166.30479547,-129.51242285,-9.53456616,-0.27035521
-4.40471790,0.05632776,0.54904395,0.18246334

>  <Name>
ligand

>  <RI>
0

>  <Rbt.Current_Directory>
/home/itssahil/PROJECTS/Mol_Feturizer/New_Systems/rnas/3SLQ

>  <Rbt.Executable>
rbdock ($Id: //depot/dev/client3/rdock/2013.1/src/exe/rbdock.cxx#4 $)

>  <Rbt.Library>
libRbt.so (2013.1, Build901 2013/11/27)

>  <Rbt.Parameter_File>
/export/apps/rDock/src/rDock_2013.1_src/data/scripts/dock_solv.prm

>  <Rbt.Receptor>
prm/blind_docking_80.prm

>  <SCORE>
-15.0723

>  <SCORE.INTER>
-9.90999

>  <SCORE.INTER.CONST>
1

>  <SCORE.INTER.POLAR>
0

>  <SCORE.INTER.ROT>
4

>  <SCORE.INTER.SOLV>
18.9884

>  <SCORE.INTER.VDW>
-19.2028

>  <SCORE.INTER.norm>
-0.412916

>  <SCORE.INTRA>
-5.16229

>  <SCORE.INTRA.DIHEDRAL>
-9.53265

>  <SCORE.INTRA.DIHEDRAL.0>
13.2525

>  <SCORE.INTRA.POLAR>
0

>  <SCORE.INTRA.POLAR.0>
0

>  <SCORE.INTRA.REPUL>
0

>  <SCORE.INTRA.REPUL.0>
0

>  <SCORE.INTRA.SOLV>
-0.0557683

>  <SCORE.INTRA.SOLV.lig_0>
-70.7221

>  <SCORE.INTRA.VDW>
-0.368078

>  <SCORE.INTRA.VDW.0>
-1.46337

>  <SCORE.INTRA.norm>
-0.215095

>  <SCORE.RESTR>
0

>  <SCORE.RESTR.CAVITY>
0

>  <SCORE.RESTR.norm>
0

>  <SCORE.SYSTEM>
0

>  <SCORE.SYSTEM.CONST>
0

>  <SCORE.SYSTEM.DIHEDRAL>
0

>  <SCORE.SYSTEM.SOLV>
0

>  <SCORE.SYSTEM.norm>
0

>  <SCORE.heavy>
24

>  <SCORE.norm>
-0.628012

>  <RMSD>
17.510

$$$$
ligand
 OpenBabel11021811483D
libRbt.so/2013.1/901 2013/11/27
 24 26  0  0  0  0  0  0  0  0999 V2000
   -8.7950   -2.2133   -6.6886 P   0  0  1  0  0  0  0  0  0  0  0  0
   -9.4831   -2.2060   -8.0370 O   0  0  0  0  0  0  0  0  0  0  0  0
   -9.3522   -3.1654   -5.6568 O   0  5  0  0  0  0  0  0  0  0  0  0
   -7.2763   -2.2564   -6.7690 O   0  0  0  0  0  0  0  0  0  0  0  0
   -8.8973    0.4886   -6.6346 C   0  0  0  0  0  0  0  0  0  0  0  0
   -9.2044   -0.7831   -6.0373 O   0  0  0  0  0  0  0  0  0  0  0  0
   -9.4473    1.6204   -5.7615 C   0  0  1  0  0  0  0  0  0  0  0  0
  -10.8601    1.4973   -5.5545 O   0  0  0  0  0  0  0  0  0  0  0  0
   -8.8357    1.7104   -4.3738 C   0  0  1  0  0  0  0  0  0  0  0  0
   -7.7032    2.5832   -4.4226 O   0  0  0  0  0  0  0  0  0  0  0  0
   -9.9574    2.2994   -3.5342 C   0  0  1  0  0  0  0  0  0  0  0  0
   -9.9943    3.7267   -3.6749 O   0  0  0  0  0  0  0  0  0  0  0  0
  -11.2192    1.7832   -4.1970 C   0  0  2  0  0  0  0  0  0  0  0  0
  -14.2483   -0.2537   -0.6288 N   0  0  0  0  0  0  0  0  0  0  0  0
  -13.9995    1.0469   -0.9043 C   0  0  1  0  0  0  0  0  0  0  0  0
  -14.6120    2.0051   -0.1728 N   0  0  0  0  0  0  0  0  0  0  0  0
  -13.1493    1.3980   -1.8974 N   0  0  0  0  0  0  0  0  0  0  0  0
  -12.5383    0.4335   -2.6262 C   0  0  1  0  0  0  0  0  0  0  0  0
  -12.7726   -0.9024   -2.3656 C   0  0  2  0  0  0  0  0  0  0  0  0
  -13.6506   -1.2364   -1.3411 C   0  0  0  0  0  0  0  0  0  0  0  0
  -13.8902   -2.4303   -1.0726 O   0  0  0  0  0  0  0  0  0  0  0  0
  -12.0301   -1.6156   -3.2368 N   0  0  0  0  0  0  0  0  0  0  0  0
  -11.3597   -0.7396   -4.0211 C   0  0  0  0  0  0  0  0  0  0  0  0
  -11.6817    0.4996   -3.6369 N   0  0  1  0  0  0  0  0  0  0  0  0
  1  2  1  6  0  0  0
  1  3  1  0  0  0  0
  1  4  2  0  0  0  0
  1  6  1  0  0  0  0
  5  6  1  0  0  0  0
  7  5  1  1  0  0  0
  7  8  1  0  0  0  0
  7  9  1  0  0  0  0
  9 10  1  6  0  0  0
  9 11  1  0  0  0  0
 11 12  1  6  0  0  0
 11 13  1  0  0  0  0
 13  8  1  6  0  0  0
 13 24  1  0  0  0  0
 14 15  1  0  0  0  0
 14 20  1  0  0  0  0
 15 16  1  1  0  0  0
 15 17  1  0  0  0  0
 18 17  1  6  0  0  0
 18 19  1  0  0  0  0
 18 24  1  0  0  0  0
 19 20  1  1  0  0  0
 19 22  1  0  0  0  0
 20 21  2  0  0  0  0
 22 23  1  0  0  0  0
 24 23  1  6  0  0  0
M  CHG  1   3  -1
M  END
>  <CHROM.1>
-59.39577132,-57.15540965,179.24004095,-153.97268320,-10.83512522,-0.00573850
-4.11565483,0.40053837,-0.74779380,-2.85545224

>  <Name>
ligand

>  <RI>
0

>  <Rbt.Current_Directory>
/home/itssahil/PROJECTS/Mol_Feturizer/New_Systems/rnas/3SLQ

>  <Rbt.Executable>
rbdock ($Id: //depot/dev/client3/rdock/2013.1/src/exe/rbdock.cxx#4 $)

>  <Rbt.Library>
libRbt.so (2013.1, Build901 2013/11/27)

>  <Rbt.Parameter_File>
/export/apps/rDock/src/rDock_2013.1_src/data/scripts/dock_solv.prm

>  <Rbt.Receptor>
prm/blind_docking_40.prm

>  <SCORE>
-22.4124

>  <SCORE.INTER>
-15.5582

>  <SCORE.INTER.CONST>
1

>  <SCORE.INTER.POLAR>
0

>  <SCORE.INTER.ROT>
4

>  <SCORE.INTER.SOLV>
14.8973

>  <SCORE.INTER.VDW>
-21.6046

>  <SCORE.INTER.norm>
-0.64826

>  <SCORE.INTRA>
-6.85415

>  <SCORE.INTRA.DIHEDRAL>
-11.9988

>  <SCORE.INTRA.DIHEDRAL.0>
13.2525

>  <SCORE.INTRA.POLAR>
0

>  <SCORE.INTRA.POLAR.0>
0

>  <SCORE.INTRA.REPUL>
0

>  <SCORE.INTRA.REPUL.0>
0

>  <SCORE.INTRA.SOLV>
0.279723

>  <SCORE.INTRA.SOLV.lig_0>
-70.7221

>  <SCORE.INTRA.VDW>
-0.994633

>  <SCORE.INTRA.VDW.0>
-1.46337

>  <SCORE.INTRA.norm>
-0.28559

>  <SCORE.RESTR>
0

>  <SCORE.RESTR.CAVITY>
0

>  <SCORE.RESTR.norm>
0

>  <SCORE.SYSTEM>
0

>  <SCORE.SYSTEM.CONST>
0

>  <SCORE.SYSTEM.DIHEDRAL>
0

>  <SCORE.SYSTEM.SOLV>
0

>  <SCORE.SYSTEM.norm>
0

>  <SCORE.heavy>
24

>  <SCORE.norm>
-0.93385

>  <RMSD>
17.512

$$$$
ligand
 OpenBabel11021811483D
libRbt.so/2013.1/901 2013/11/27
 24 26  0  0  0  0  0  0  0  0999 V2000
   -8.8475   -2.1881   -6.6902 P   0  0  1  0  0  0  0  0  0  0  0  0
   -9.7310   -3.1901   -5.9782 O   0  0  0  0  0  0  0  0  0  0  0  0
   -7.3785   -2.2218   -6.3400 O   0  5  0  0  0  0  0  0  0  0  0  0
   -9.0927   -2.1020   -8.1892 O   0  0  0  0  0  0  0  0  0  0  0  0
   -8.8367    0.5122   -6.5420 C   0  0  0  0  0  0  0  0  0  0  0  0
   -9.2825   -0.7621   -6.0463 O   0  0  0  0  0  0  0  0  0  0  0  0
   -9.4383    1.6391   -5.6970 C   0  0  1  0  0  0  0  0  0  0  0  0
  -10.8587    1.5048   -5.5606 O   0  0  0  0  0  0  0  0  0  0  0  0
   -8.8972    1.7328   -4.2806 C   0  0  1  0  0  0  0  0  0  0  0  0
   -7.7705    2.6145   -4.2727 O   0  0  0  0  0  0  0  0  0  0  0  0
  -10.0639    2.3125   -3.4977 C   0  0  1  0  0  0  0  0  0  0  0  0
  -10.1048    3.7396   -3.6396 O   0  0  0  0  0  0  0  0  0  0  0  0
  -11.2871    1.7870   -4.2226 C   0  0  2  0  0  0  0  0  0  0  0  0
  -14.2693   -0.2775   -0.6309 N   0  0  0  0  0  0  0  0  0  0  0  0
  -13.9949    1.0240   -0.8761 C   0  0  1  0  0  0  0  0  0  0  0  0
  -14.5627    1.9753   -0.1007 N   0  0  0  0  0  0  0  0  0  0  0  0
  -13.1633    1.3828   -1.8820 N   0  0  0  0  0  0  0  0  0  0  0  0
  -12.5972    0.4251   -2.6548 C   0  0  1  0  0  0  0  0  0  0  0  0
  -12.8584   -0.9116   -2.4259 C   0  0  2  0  0  0  0  0  0  0  0  0
  -13.7165   -1.2535   -1.3873 C   0  0  0  0  0  0  0  0  0  0  0  0
  -13.9792   -2.4484   -1.1463 O   0  0  0  0  0  0  0  0  0  0  0  0
  -12.1584   -1.6172   -3.3375 N   0  0  0  0  0  0  0  0  0  0  0  0
  -11.4873   -0.7356   -4.1149 C   0  0  0  0  0  0  0  0  0  0  0  0
  -11.7669    0.4995   -3.6867 N   0  0  1  0  0  0  0  0  0  0  0  0
  1  2  1  1  0  0  0
  1  3  1  0  0  0  0
  1  4  2  0  0  0  0
  1  6  1  0  0  0  0
  5  6  1  0  0  0  0
  7  5  1  1  0  0  0
  7  8  1  0  0  0  0
  7  9  1  0  0  0  0
  9 10  1  6  0  0  0
  9 11  1  0  0  0  0
 11 12  1  6  0  0  0
 11 13  1  0  0  0  0
 13  8  1  6  0  0  0
 13 24  1  0  0  0  0
 14 15  1  0  0  0  0
 14 20  1  0  0  0  0
 15 16  1  1  0  0  0
 15 17  1  0  0  0  0
 18 17  1  6  0  0  0
 18 19  1  0  0  0  0
 18 24  1  0  0  0  0
 19 20  1  1  0  0  0
 19 22  1  0  0  0  0
 20 21  2  0  0  0  0
 22 23  1  0  0  0  0
 24 23  1  6  0  0  0
M  CHG  1   3  -1
M  END
>  <CHROM.1>
-171.30691599,-50.94645257,-179.87215515,-159.05543423,-10.88431803,0.00252135
-4.11297246,0.41798881,-0.73990248,-2.82705084

>  <Name>
ligand

>  <RI>
0

>  <Rbt.Current_Directory>
/home/itssahil/PROJECTS/Mol_Feturizer/New_Systems/rnas/3SLQ

>  <Rbt.Executable>
rbdock ($Id: //depot/dev/client3/rdock/2013.1/src/exe/rbdock.cxx#4 $)

>  <Rbt.Library>
libRbt.so (2013.1, Build901 2013/11/27)

>  <Rbt.Parameter_File>
/export/apps/rDock/src/rDock_2013.1_src/data/scripts/dock_solv.prm

>  <Rbt.Receptor>
prm/blind_docking_60.prm

>  <SCORE>
-22.3401

>  <SCORE.INTER>
-15.9166

>  <SCORE.INTER.CONST>
1

>  <SCORE.INTER.POLAR>
0

>  <SCORE.INTER.ROT>
4

>  <SCORE.INTER.SOLV>
14.3958

>  <SCORE.INTER.VDW>
-21.6764

>  <SCORE.INTER.norm>
-0.663193

>  <SCORE.INTRA>
-6.42349

>  <SCORE.INTRA.DIHEDRAL>
-11.6192

>  <SCORE.INTRA.DIHEDRAL.0>
13.2525

>  <SCORE.INTRA.POLAR>
0

>  <SCORE.INTRA.POLAR.0>
0

>  <SCORE.INTRA.REPUL>
0

>  <SCORE.INTRA.REPUL.0>
0

>  <SCORE.INTRA.SOLV>
0.591434

>  <SCORE.INTRA.SOLV.lig_0>
-70.7221

>  <SCORE.INTRA.VDW>
-0.909612

>  <SCORE.INTRA.VDW.0>
-1.46337

>  <SCORE.INTRA.norm>
-0.267646

>  <SCORE.RESTR>
0

>  <SCORE.RESTR.CAVITY>
0

>  <SCORE.RESTR.norm>
0

>  <SCORE.SYSTEM>
0

>  <SCORE.SYSTEM.CONST>
0

>  <SCORE.SYSTEM.DIHEDRAL>
0

>  <SCORE.SYSTEM.SOLV>
0

>  <SCORE.SYSTEM.norm>
0

>  <SCORE.heavy>
24

>  <SCORE.norm>
-0.930839

>  <RMSD>
17.518

$$$$
ligand
 OpenBabel11021811483D
libRbt.so/2013.1/901 2013/11/27
 24 26  0  0  0  0  0  0  0  0999 V2000
   -8.8147   -2.1622   -6.6732 P   0  0  1  0  0  0  0  0  0  0  0  0
   -9.4661   -2.1194   -8.0390 O   0  0  0  0  0  0  0  0  0  0  0  0
   -9.4129   -3.1254   -5.6751 O   0  5  0  0  0  0  0  0  0  0  0  0
   -7.2952   -2.2261   -6.7139 O   0  0  0  0  0  0  0  0  0  0  0  0
   -8.8435    0.5391   -6.5469 C   0  0  0  0  0  0  0  0  0  0  0  0
   -9.2212   -0.7387   -6.0057 O   0  0  0  0  0  0  0  0  0  0  0  0
   -9.4362    1.6628   -5.6914 C   0  0  1  0  0  0  0  0  0  0  0  0
  -10.8561    1.5322   -5.5468 O   0  0  0  0  0  0  0  0  0  0  0  0
   -8.8859    1.7463   -4.2779 C   0  0  1  0  0  0  0  0  0  0  0  0
   -7.7563    2.6242   -4.2718 O   0  0  0  0  0  0  0  0  0  0  0  0
  -10.0458    2.3250   -3.4841 C   0  0  1  0  0  0  0  0  0  0  0  0
  -10.0830    3.7530   -3.6173 O   0  0  0  0  0  0  0  0  0  0  0  0
  -11.2751    1.8077   -4.2045 C   0  0  2  0  0  0  0  0  0  0  0  0
  -14.2716   -0.2677   -0.6309 N   0  0  0  0  0  0  0  0  0  0  0  0
  -13.9978    1.0347   -0.8723 C   0  0  1  0  0  0  0  0  0  0  0  0
  -14.5706    1.9838   -0.0979 N   0  0  0  0  0  0  0  0  0  0  0  0
  -13.1620    1.3965   -1.8736 N   0  0  0  0  0  0  0  0  0  0  0  0
  -12.5908    0.4410   -2.6455 C   0  0  1  0  0  0  0  0  0  0  0  0
  -12.8513   -0.8964   -2.4204 C   0  0  2  0  0  0  0  0  0  0  0  0
  -13.7138   -1.2415   -1.3865 C   0  0  0  0  0  0  0  0  0  0  0  0
  -13.9760   -2.4372   -1.1490 O   0  0  0  0  0  0  0  0  0  0  0  0
  -12.1459   -1.5993   -3.3299 N   0  0  0  0  0  0  0  0  0  0  0  0
  -11.4724   -0.7154   -4.1025 C   0  0  0  0  0  0  0  0  0  0  0  0
  -11.7558    0.5186   -3.6733 N   0  0  1  0  0  0  0  0  0  0  0  0
  1  2  1  6  0  0  0
  1  3  1  0  0  0  0
  1  4  2  0  0  0  0
  1  6  1  0  0  0  0
  5  6  1  0  0  0  0
  7  5  1  1  0  0  0
  7  8  1  0  0  0  0
  7  9  1  0  0  0  0
  9 10  1  6  0  0  0
  9 11  1  0  0  0  0
 11 12  1  6  0  0  0
 11 13  1  0  0  0  0
 13  8  1  6  0  0  0
 13 24  1  0  0  0  0
 14 15  1  0  0  0  0
 14 20  1  0  0  0  0
 15 16  1  1  0  0  0
 15 17  1  0  0  0  0
 18 17  1  6  0  0  0
 18 19  1  0  0  0  0
 18 24  1  0  0  0  0
 19 20  1  1  0  0  0
 19 22  1  0  0  0  0
 20 21  2  0  0  0  0
 22 23  1  0  0  0  0
 24 23  1  6  0  0  0
M  CHG  1   3  -1
M  END
>  <CHROM.1>
-61.47211889,-54.57181936,178.07167501,-158.32898706,-10.87270620,0.01941089
-4.10091825,0.40958554,-0.73833487,-2.83567924

>  <Name>
ligand

>  <RI>
0

>  <Rbt.Current_Directory>
/home/itssahil/PROJECTS/Mol_Feturizer/New_Systems/rnas/3SLQ

>  <Rbt.Executable>
rbdock ($Id: //depot/dev/client3/rdock/2013.1/src/exe/rbdock.cxx#4 $)

>  <Rbt.Library>
libRbt.so (2013.1, Build901 2013/11/27)

>  <Rbt.Parameter_File>
/export/apps/rDock/src/rDock_2013.1_src/data/scripts/dock_solv.prm

>  <Rbt.Receptor>
prm/blind_docking_80.prm

>  <SCORE>
-22.4308

>  <SCORE.INTER>
-15.6474

>  <SCORE.INTER.CONST>
1

>  <SCORE.INTER.POLAR>
0

>  <SCORE.INTER.ROT>
4

>  <SCORE.INTER.SOLV>
14.5953

>  <SCORE.INTER.VDW>
-21.5633

>  <SCORE.INTER.norm>
-0.651974

>  <SCORE.INTRA>
-6.78339

>  <SCORE.INTRA.DIHEDRAL>
-11.906

>  <SCORE.INTRA.DIHEDRAL.0>
13.2525

>  <SCORE.INTRA.POLAR>
0

>  <SCORE.INTRA.POLAR.0>
0

>  <SCORE.INTRA.REPUL>
0

>  <SCORE.INTRA.REPUL.0>
0

>  <SCORE.INTRA.SOLV>
0.302581

>  <SCORE.INTRA.SOLV.lig_0>
-70.7221

>  <SCORE.INTRA.VDW>
-0.981671

>  <SCORE.INTRA.VDW.0>
-1.46337

>  <SCORE.INTRA.norm>
-0.282641

>  <SCORE.RESTR>
0

>  <SCORE.RESTR.CAVITY>
0

>  <SCORE.RESTR.norm>
0

>  <SCORE.SYSTEM>
0

>  <SCORE.SYSTEM.CONST>
0

>  <SCORE.SYSTEM.DIHEDRAL>
0

>  <SCORE.SYSTEM.SOLV>
0

>  <SCORE.SYSTEM.norm>
0

>  <SCORE.heavy>
24

>  <SCORE.norm>
-0.934615

>  <RMSD>
17.520

$$$$
ligand
 OpenBabel11021811483D
libRbt.so/2013.1/901 2013/11/27
 24 26  0  0  0  0  0  0  0  0999 V2000
   -6.9190   -3.2571   -5.8273 P   0  0  1  0  0  0  0  0  0  0  0  0
   -6.3171   -1.8747   -5.9626 O   0  0  0  0  0  0  0  0  0  0  0  0
   -7.2941   -3.9539   -7.1140 O   0  5  0  0  0  0  0  0  0  0  0  0
   -6.1715   -4.1658   -4.8628 O   0  0  0  0  0  0  0  0  0  0  0  0
   -8.6767   -3.0402   -3.7835 C   0  0  0  0  0  0  0  0  0  0  0  0
   -8.3870   -2.9796   -5.1908 O   0  0  0  0  0  0  0  0  0  0  0  0
   -9.4494   -1.7886   -3.3565 C   0  0  1  0  0  0  0  0  0  0  0  0
   -8.7131   -0.5886   -3.6247 O   0  0  0  0  0  0  0  0  0  0  0  0
  -10.7944   -1.6058   -4.0385 C   0  0  1  0  0  0  0  0  0  0  0  0
  -11.8042   -2.2411   -3.2489 O   0  0  0  0  0  0  0  0  0  0  0  0
  -10.9729   -0.0965   -4.0620 C   0  0  1  0  0  0  0  0  0  0  0  0
  -11.4811    0.3691   -2.8038 O   0  0  0  0  0  0  0  0  0  0  0  0
   -9.5575    0.4368   -4.1622 C   0  0  2  0  0  0  0  0  0  0  0  0
   -6.1515    2.9078   -7.0518 N   0  0  0  0  0  0  0  0  0  0  0  0
   -6.3435    2.9618   -5.7140 C   0  0  1  0  0  0  0  0  0  0  0  0
   -5.5504    3.7614   -4.9655 N   0  0  0  0  0  0  0  0  0  0  0  0
   -7.3146    2.2297   -5.1199 N   0  0  0  0  0  0  0  0  0  0  0  0
   -8.1062    1.4311   -5.8752 C   0  0  1  0  0  0  0  0  0  0  0  0
   -7.9335    1.3578   -7.2434 C   0  0  2  0  0  0  0  0  0  0  0  0
   -6.9287    2.1190   -7.8290 C   0  0  0  0  0  0  0  0  0  0  0  0
   -6.7389    2.0825   -9.0608 O   0  0  0  0  0  0  0  0  0  0  0  0
   -8.8587    0.4985   -7.7173 N   0  0  0  0  0  0  0  0  0  0  0  0
   -9.5798    0.0469   -6.6647 C   0  0  0  0  0  0  0  0  0  0  0  0
   -9.1078    0.6227   -5.5544 N   0  0  1  0  0  0  0  0  0  0  0  0
  1  2  1  6  0  0  0
  1  3  1  0  0  0  0
  1  4  2  0  0  0  0
  1  6  1  0  0  0  0
  5  6  1  0  0  0  0
  7  5  1  6  0  0  0
  7  8  1  0  0  0  0
  7  9  1  0  0  0  0
  9 10  1  1  0  0  0
  9 11  1  0  0  0  0
 11 12  1  1  0  0  0
 11 13  1  0  0  0  0
 13  8  1  6  0  0  0
 13 24  1  0  0  0  0
 14 15  1  0  0  0  0
 14 20  1  0  0  0  0
 15 16  1  6  0  0  0
 15 17  1  0  0  0  0
 18 17  1  1  0  0  0
 18 19  1  0  0  0  0
 18 24  1  0  0  0  0
 19 20  1  6  0  0  0
 19 22  1  0  0  0  0
 20 21  2  0  0  0  0
 22 23  1  0  0  0  0
 24 23  1  1  0  0  0
M  CHG  1   3  -1
M  END
>  <CHROM.1>
-95.19387631,-59.06109146,131.32068937,-85.78821622,-8.22857595,-0.45467304
-5.44258969,-2.08075524,0.66525593,-0.13254378

>  <Name>
ligand

>  <RI>
0

>  <Rbt.Current_Directory>
/home/itssahil/PROJECTS/Mol_Feturizer/New_Systems/rnas/3SLQ

>  <Rbt.Executable>
rbdock ($Id: //depot/dev/client3/rdock/2013.1/src/exe/rbdock.cxx#4 $)

>  <Rbt.Library>
libRbt.so (2013.1, Build901 2013/11/27)

>  <Rbt.Parameter_File>
/export/apps/rDock/src/rDock_2013.1_src/data/scripts/dock_solv.prm

>  <Rbt.Receptor>
prm/blind_docking_60.prm

>  <SCORE>
-16.0466

>  <SCORE.INTER>
-12.8948

>  <SCORE.INTER.CONST>
1

>  <SCORE.INTER.POLAR>
0

>  <SCORE.INTER.ROT>
4

>  <SCORE.INTER.SOLV>
16.8426

>  <SCORE.INTER.VDW>
-20.4774

>  <SCORE.INTER.norm>
-0.537285

>  <SCORE.INTRA>
-3.15175

>  <SCORE.INTRA.DIHEDRAL>
-3.9652

>  <SCORE.INTRA.DIHEDRAL.0>
13.2525

>  <SCORE.INTRA.POLAR>
0

>  <SCORE.INTRA.POLAR.0>
0

>  <SCORE.INTRA.REPUL>
0

>  <SCORE.INTRA.REPUL.0>
0

>  <SCORE.INTRA.SOLV>
0.497851

>  <SCORE.INTRA.SOLV.lig_0>
-70.7221

>  <SCORE.INTRA.VDW>
-1.41808

>  <SCORE.INTRA.VDW.0>
-1.46337

>  <SCORE.INTRA.norm>
-0.131323

>  <SCORE.RESTR>
0

>  <SCORE.RESTR.CAVITY>
0

>  <SCORE.RESTR.norm>
0

>  <SCORE.SYSTEM>
0

>  <SCORE.SYSTEM.CONST>
0

>  <SCORE.SYSTEM.DIHEDRAL>
0

>  <SCORE.SYSTEM.SOLV>
0

>  <SCORE.SYSTEM.norm>
0

>  <SCORE.heavy>
24

>  <SCORE.norm>
-0.668608

>  <RMSD>
17.544

$$$$
ligand
 OpenBabel11021811483D
libRbt.so/2013.1/901 2013/11/27
 24 26  0  0  0  0  0  0  0  0999 V2000
   -7.8415   -1.6684   -7.6636 P   0  0  1  0  0  0  0  0  0  0  0  0
   -8.5356   -2.8541   -7.0280 O   0  0  0  0  0  0  0  0  0  0  0  0
   -6.3925   -1.4609   -7.2908 O   0  5  0  0  0  0  0  0  0  0  0  0
   -8.0888   -1.5350   -9.1588 O   0  0  0  0  0  0  0  0  0  0  0  0
   -8.4020   -0.0877   -5.5421 C   0  0  0  0  0  0  0  0  0  0  0  0
   -8.5291   -0.3856   -6.9433 O   0  0  0  0  0  0  0  0  0  0  0  0
   -9.2808    1.1144   -5.1835 C   0  0  1  0  0  0  0  0  0  0  0  0
  -10.6759    0.8167   -5.3218 O   0  0  0  0  0  0  0  0  0  0  0  0
   -9.1097    1.6288   -3.7644 C   0  0  1  0  0  0  0  0  0  0  0  0
   -8.0944    2.6367   -3.7563 O   0  0  0  0  0  0  0  0  0  0  0  0
  -10.4750    2.2105   -3.4358 C   0  0  1  0  0  0  0  0  0  0  0  0
  -10.5963    3.5383   -3.9655 O   0  0  0  0  0  0  0  0  0  0  0  0
  -11.4382    1.3544   -4.2340 C   0  0  2  0  0  0  0  0  0  0  0  0
  -14.3569   -0.0278   -0.2809 N   0  0  0  0  0  0  0  0  0  0  0  0
  -14.0645    1.2098   -0.7418 C   0  0  1  0  0  0  0  0  0  0  0  0
  -14.5916    2.2876   -0.1182 N   0  0  0  0  0  0  0  0  0  0  0  0
  -13.2549    1.3805   -1.8131 N   0  0  0  0  0  0  0  0  0  0  0  0
  -12.7295    0.2968   -2.4331 C   0  0  1  0  0  0  0  0  0  0  0  0
  -13.0098   -0.9783   -1.9829 C   0  0  2  0  0  0  0  0  0  0  0  0
  -13.8446   -1.1265   -0.8814 C   0  0  0  0  0  0  0  0  0  0  0  0
  -14.1233   -2.2598   -0.4424 O   0  0  0  0  0  0  0  0  0  0  0  0
  -12.3496   -1.8391   -2.7842 N   0  0  0  0  0  0  0  0  0  0  0  0
  -11.6839   -1.1116   -3.7114 C   0  0  0  0  0  0  0  0  0  0  0  0
  -11.9274    0.1829   -3.4836 N   0  0  1  0  0  0  0  0  0  0  0  0
  1  2  1  1  0  0  0
  1  3  1  0  0  0  0
  1  4  2  0  0  0  0
  1  6  1  0  0  0  0
  5  6  1  0  0  0  0
  7  5  1  1  0  0  0
  7  8  1  0  0  0  0
  7  9  1  0  0  0  0
  9 10  1  6  0  0  0
  9 11  1  0  0  0  0
 11 12  1  6  0  0  0
 11 13  1  0  0  0  0
 13  8  1  6  0  0  0
 13 24  1  0  0  0  0
 14 15  1  0  0  0  0
 14 20  1  0  0  0  0
 15 16  1  1  0  0  0
 15 17  1  0  0  0  0
 18 17  1  6  0  0  0
 18 19  1  0  0  0  0
 18 24  1  0  0  0  0
 19 20  1  1  0  0  0
 19 22  1  0  0  0  0
 20 21  2  0  0  0  0
 22 23  1  0  0  0  0
 24 23  1  6  0  0  0
M  CHG  1   3  -1
M  END
>  <CHROM.1>
65.08164456,66.36655062,-174.76282282,-176.82180909,-10.70460521,0.03495278
-4.13849901,0.38982931,-0.75519147,-2.82186023

>  <Name>
ligand

>  <RI>
0

>  <Rbt.Current_Directory>
/home/itssahil/PROJECTS/Mol_Feturizer/New_Systems/rnas/3SLQ

>  <Rbt.Executable>
rbdock ($Id: //depot/dev/client3/rdock/2013.1/src/exe/rbdock.cxx#4 $)

>  <Rbt.Library>
libRbt.so (2013.1, Build901 2013/11/27)

>  <Rbt.Parameter_File>
/export/apps/rDock/src/rDock_2013.1_src/data/scripts/dock_solv.prm

>  <Rbt.Receptor>
prm/blind_docking_60.prm

>  <SCORE>
-21.0501

>  <SCORE.INTER>
-15.0406

>  <SCORE.INTER.CONST>
1

>  <SCORE.INTER.POLAR>
0

>  <SCORE.INTER.ROT>
4

>  <SCORE.INTER.SOLV>
11.0939

>  <SCORE.INTER.VDW>
-19.9917

>  <SCORE.INTER.norm>
-0.626692

>  <SCORE.INTRA>
-6.00948

>  <SCORE.INTRA.DIHEDRAL>
-11.7258

>  <SCORE.INTRA.DIHEDRAL.0>
13.2525

>  <SCORE.INTRA.POLAR>
0

>  <SCORE.INTRA.POLAR.0>
0

>  <SCORE.INTRA.REPUL>
0

>  <SCORE.INTRA.REPUL.0>
0

>  <SCORE.INTRA.SOLV>
-0.0287253

>  <SCORE.INTRA.SOLV.lig_0>
-70.7221

>  <SCORE.INTRA.VDW>
-0.132213

>  <SCORE.INTRA.VDW.0>
-1.46337

>  <SCORE.INTRA.norm>
-0.250395

>  <SCORE.RESTR>
0

>  <SCORE.RESTR.CAVITY>
0

>  <SCORE.RESTR.norm>
0

>  <SCORE.SYSTEM>
0

>  <SCORE.SYSTEM.CONST>
0

>  <SCORE.SYSTEM.DIHEDRAL>
0

>  <SCORE.SYSTEM.SOLV>
0

>  <SCORE.SYSTEM.norm>
0

>  <SCORE.heavy>
24

>  <SCORE.norm>
-0.877087

>  <RMSD>
17.570

$$$$
ligand
 OpenBabel11021811483D
libRbt.so/2013.1/901 2013/11/27
 24 26  0  0  0  0  0  0  0  0999 V2000
   -6.0046    1.3678   -5.5839 P   0  0  1  0  0  0  0  0  0  0  0  0
   -5.5323    1.9096   -4.2516 O   0  0  0  0  0  0  0  0  0  0  0  0
   -6.4171    2.3912   -6.6155 O   0  5  0  0  0  0  0  0  0  0  0  0
   -5.1126    0.2784   -6.1603 O   0  0  0  0  0  0  0  0  0  0  0  0
   -8.5259    0.5877   -6.1740 C   0  0  0  0  0  0  0  0  0  0  0  0
   -7.4379    0.6869   -5.2387 O   0  0  0  0  0  0  0  0  0  0  0  0
   -9.7116   -0.1276   -5.5198 C   0  0  1  0  0  0  0  0  0  0  0  0
   -9.6824   -1.5402   -5.7604 O   0  0  0  0  0  0  0  0  0  0  0  0
   -9.7982    0.0298   -4.0113 C   0  0  1  0  0  0  0  0  0  0  0  0
  -10.5969    1.1781   -3.7107 O   0  0  0  0  0  0  0  0  0  0  0  0
  -10.4773   -1.2541   -3.5636 C   0  0  1  0  0  0  0  0  0  0  0  0
  -11.9001   -1.1494   -3.7154 O   0  0  0  0  0  0  0  0  0  0  0  0
  -10.0245   -2.2810   -4.5824 C   0  0  2  0  0  0  0  0  0  0  0  0
   -5.7523   -4.3711   -6.4364 N   0  0  0  0  0  0  0  0  0  0  0  0
   -6.7782   -3.7852   -7.0950 C   0  0  1  0  0  0  0  0  0  0  0  0
   -6.7325   -3.6983   -8.4437 N   0  0  0  0  0  0  0  0  0  0  0  0
   -7.8435   -3.2885   -6.4238 N   0  0  0  0  0  0  0  0  0  0  0  0
   -7.8837   -3.3792   -5.0729 C   0  0  1  0  0  0  0  0  0  0  0  0
   -6.8510   -3.9737   -4.3749 C   0  0  2  0  0  0  0  0  0  0  0  0
   -5.7681   -4.4751   -5.0876 C   0  0  0  0  0  0  0  0  0  0  0  0
   -4.8147   -5.0196   -4.4967 O   0  0  0  0  0  0  0  0  0  0  0  0
   -7.1717   -3.9220   -3.0659 N   0  0  0  0  0  0  0  0  0  0  0  0
   -8.3706   -3.3031   -2.9591 C   0  0  0  0  0  0  0  0  0  0  0  0
   -8.7870   -2.9794   -4.1874 N   0  0  1  0  0  0  0  0  0  0  0  0
  1  2  1  1  0  0  0
  1  3  1  0  0  0  0
  1  4  2  0  0  0  0
  1  6  1  0  0  0  0
  5  6  1  0  0  0  0
  7  5  1  1  0  0  0
  7  8  1  0  0  0  0
  7  9  1  0  0  0  0
  9 10  1  6  0  0  0
  9 11  1  0  0  0  0
 11 12  1  6  0  0  0
 11 13  1  0  0  0  0
 13  8  1  6  0  0  0
 13 24  1  0  0  0  0
 14 15  1  0  0  0  0
 14 20  1  0  0  0  0
 15 16  1  6  0  0  0
 15 17  1  0  0  0  0
 18 17  1  1  0  0  0
 18 19  1  0  0  0  0
 18 24  1  0  0  0  0
 19 20  1  6  0  0  0
 19 22  1  0  0  0  0
 20 21  2  0  0  0  0
 22 23  1  0  0  0  0
 24 23  1  1  0  0  0
M  CHG  1   3  -1
M  END
>  <CHROM.1>
150.31865007,-92.29599294,179.17326254,-31.15468642,-7.73403842,-1.40748011
-5.13625601,-1.90046140,-0.39255549,3.08080833

>  <Name>
ligand

>  <RI>
0

>  <Rbt.Current_Directory>
/home/itssahil/PROJECTS/Mol_Feturizer/New_Systems/rnas/3SLQ

>  <Rbt.Executable>
rbdock ($Id: //depot/dev/client3/rdock/2013.1/src/exe/rbdock.cxx#4 $)

>  <Rbt.Library>
libRbt.so (2013.1, Build901 2013/11/27)

>  <Rbt.Parameter_File>
/export/apps/rDock/src/rDock_2013.1_src/data/scripts/dock_solv.prm

>  <Rbt.Receptor>
prm/blind_docking_60.prm

>  <SCORE>
-21.4361

>  <SCORE.INTER>
-18.3524

>  <SCORE.INTER.CONST>
1

>  <SCORE.INTER.POLAR>
0

>  <SCORE.INTER.ROT>
4

>  <SCORE.INTER.SOLV>
14.0211

>  <SCORE.INTER.VDW>
-23.1753

>  <SCORE.INTER.norm>
-0.764685

>  <SCORE.INTRA>
-3.08369

>  <SCORE.INTRA.DIHEDRAL>
-7.89377

>  <SCORE.INTRA.DIHEDRAL.0>
13.2525

>  <SCORE.INTRA.POLAR>
0

>  <SCORE.INTRA.POLAR.0>
0

>  <SCORE.INTRA.REPUL>
0

>  <SCORE.INTRA.REPUL.0>
0

>  <SCORE.INTRA.SOLV>
0.694505

>  <SCORE.INTRA.SOLV.lig_0>
-70.7221

>  <SCORE.INTRA.VDW>
0.515947

>  <SCORE.INTRA.VDW.0>
-1.46337

>  <SCORE.INTRA.norm>
-0.128487

>  <SCORE.RESTR>
0

>  <SCORE.RESTR.CAVITY>
0

>  <SCORE.RESTR.norm>
0

>  <SCORE.SYSTEM>
0

>  <SCORE.SYSTEM.CONST>
0

>  <SCORE.SYSTEM.DIHEDRAL>
0

>  <SCORE.SYSTEM.SOLV>
0

>  <SCORE.SYSTEM.norm>
0

>  <SCORE.heavy>
24

>  <SCORE.norm>
-0.893172

>  <RMSD>
17.573

$$$$
ligand
 OpenBabel11021811483D
libRbt.so/2013.1/901 2013/11/27
 24 26  0  0  0  0  0  0  0  0999 V2000
   -6.2263    0.8339   -6.0680 P   0  0  1  0  0  0  0  0  0  0  0  0
   -5.7207    1.5575   -4.8382 O   0  0  0  0  0  0  0  0  0  0  0  0
   -6.6831    1.7024   -7.2163 O   0  5  0  0  0  0  0  0  0  0  0  0
   -5.3383   -0.3166   -6.5180 O   0  0  0  0  0  0  0  0  0  0  0  0
   -8.8585    0.9467   -5.4578 C   0  0  0  0  0  0  0  0  0  0  0  0
   -7.6396    0.1946   -5.5873 O   0  0  0  0  0  0  0  0  0  0  0  0
  -10.0027    0.0169   -5.0431 C   0  0  1  0  0  0  0  0  0  0  0  0
   -9.8201   -1.3125   -5.5467 O   0  0  0  0  0  0  0  0  0  0  0  0
  -10.1898   -0.1347   -3.5432 C   0  0  1  0  0  0  0  0  0  0  0  0
  -11.1141    0.8585   -3.0892 O   0  0  0  0  0  0  0  0  0  0  0  0
  -10.7627   -1.5354   -3.4015 C   0  0  1  0  0  0  0  0  0  0  0  0
  -12.1779   -1.5257   -3.6367 O   0  0  0  0  0  0  0  0  0  0  0  0
  -10.1533   -2.2980   -4.5611 C   0  0  2  0  0  0  0  0  0  0  0  0
   -5.8763   -4.2172   -6.5812 N   0  0  0  0  0  0  0  0  0  0  0  0
   -6.9466   -3.6670   -7.1986 C   0  0  1  0  0  0  0  0  0  0  0  0
   -6.9532   -3.5718   -8.5475 N   0  0  0  0  0  0  0  0  0  0  0  0
   -8.0046   -3.2139   -6.4863 N   0  0  0  0  0  0  0  0  0  0  0  0
   -7.9923   -3.3127   -5.1354 C   0  0  1  0  0  0  0  0  0  0  0  0
   -6.9135   -3.8715   -4.4789 C   0  0  2  0  0  0  0  0  0  0  0  0
   -5.8392   -4.3284   -5.2333 C   0  0  0  0  0  0  0  0  0  0  0  0
   -4.8453   -4.8397   -4.6806 O   0  0  0  0  0  0  0  0  0  0  0  0
   -7.1881   -3.8382   -3.1589 N   0  0  0  0  0  0  0  0  0  0  0  0
   -8.4047   -3.2653   -3.0050 C   0  0  0  0  0  0  0  0  0  0  0  0
   -8.8771   -2.9514   -4.2155 N   0  0  1  0  0  0  0  0  0  0  0  0
  1  2  1  1  0  0  0
  1  3  1  0  0  0  0
  1  4  2  0  0  0  0
  1  6  1  0  0  0  0
  5  6  1  0  0  0  0
  7  5  1  1  0  0  0
  7  8  1  0  0  0  0
  7  9  1  0  0  0  0
  9 10  1  6  0  0  0
  9 11  1  0  0  0  0
 11 12  1  6  0  0  0
 11 13  1  0  0  0  0
 13  8  1  6  0  0  0
 13 24  1  0  0  0  0
 14 15  1  0  0  0  0
 14 20  1  0  0  0  0
 15 16  1  6  0  0  0
 15 17  1  0  0  0  0
 18 17  1  1  0  0  0
 18 19  1  0  0  0  0
 18 24  1  0  0  0  0
 19 20  1  6  0  0  0
 19 22  1  0  0  0  0
 20 21  2  0  0  0  0
 22 23  1  0  0  0  0
 24 23  1  1  0  0  0
M  CHG  1   3  -1
M  END
>  <CHROM.1>
77.58726011,-30.54751388,177.55488357,-43.95599318,-7.92903329,-1.52602623
-5.19391369,-0.54697220,0.50765593,-0.15156364

>  <Name>
ligand

>  <RI>
0

>  <Rbt.Current_Directory>
/home/itssahil/PROJECTS/Mol_Feturizer/New_Systems/rnas/3SLQ

>  <Rbt.Executable>
rbdock ($Id: //depot/dev/client3/rdock/2013.1/src/exe/rbdock.cxx#4 $)

>  <Rbt.Library>
libRbt.so (2013.1, Build901 2013/11/27)

>  <Rbt.Parameter_File>
/export/apps/rDock/src/rDock_2013.1_src/data/scripts/dock_solv.prm

>  <Rbt.Receptor>
prm/blind_docking_40.prm

>  <SCORE>
-23.0489

>  <SCORE.INTER>
-18.2321

>  <SCORE.INTER.CONST>
1

>  <SCORE.INTER.POLAR>
0

>  <SCORE.INTER.ROT>
4

>  <SCORE.INTER.SOLV>
13.6852

>  <SCORE.INTER.VDW>
-22.9831

>  <SCORE.INTER.norm>
-0.759671

>  <SCORE.INTRA>
-4.81678

>  <SCORE.INTRA.DIHEDRAL>
-8.96861

>  <SCORE.INTRA.DIHEDRAL.0>
13.2525

>  <SCORE.INTRA.POLAR>
0

>  <SCORE.INTRA.POLAR.0>
0

>  <SCORE.INTRA.REPUL>
0

>  <SCORE.INTRA.REPUL.0>
0

>  <SCORE.INTRA.SOLV>
0.91237

>  <SCORE.INTRA.SOLV.lig_0>
-70.7221

>  <SCORE.INTRA.VDW>
-0.788659

>  <SCORE.INTRA.VDW.0>
-1.46337

>  <SCORE.INTRA.norm>
-0.200699

>  <SCORE.RESTR>
0

>  <SCORE.RESTR.CAVITY>
0

>  <SCORE.RESTR.norm>
0

>  <SCORE.SYSTEM>
0

>  <SCORE.SYSTEM.CONST>
0

>  <SCORE.SYSTEM.DIHEDRAL>
0

>  <SCORE.SYSTEM.SOLV>
0

>  <SCORE.SYSTEM.norm>
0

>  <SCORE.heavy>
24

>  <SCORE.norm>
-0.96037

>  <RMSD>
17.576

$$$$
ligand
 OpenBabel11021811483D
libRbt.so/2013.1/901 2013/11/27
 24 26  0  0  0  0  0  0  0  0999 V2000
  -13.2949   -0.8872   -2.7913 P   0  0  1  0  0  0  0  0  0  0  0  0
  -12.9688   -2.2133   -3.4445 O   0  0  0  0  0  0  0  0  0  0  0  0
  -14.4459   -0.1114   -3.3874 O   0  5  0  0  0  0  0  0  0  0  0  0
  -13.3471   -0.9419   -1.2718 O   0  0  0  0  0  0  0  0  0  0  0  0
  -10.7176   -0.4264   -3.4688 C   0  0  0  0  0  0  0  0  0  0  0  0
  -12.0425    0.0632   -3.1983 O   0  0  0  0  0  0  0  0  0  0  0  0
   -9.7214    0.7369   -3.4633 C   0  0  1  0  0  0  0  0  0  0  0  0
   -8.3638    0.2780   -3.4866 O   0  0  0  0  0  0  0  0  0  0  0  0
   -9.8512    1.6935   -4.6363 C   0  0  1  0  0  0  0  0  0  0  0  0
  -10.7554    2.7433   -4.2798 O   0  0  0  0  0  0  0  0  0  0  0  0
   -8.4357    2.2158   -4.8205 C   0  0  1  0  0  0  0  0  0  0  0  0
   -8.1711    3.2852   -3.9015 O   0  0  0  0  0  0  0  0  0  0  0  0
   -7.5599    1.0605   -4.3781 C   0  0  2  0  0  0  0  0  0  0  0  0
   -3.7874   -0.1744   -7.5875 N   0  0  0  0  0  0  0  0  0  0  0  0
   -3.8253    0.7844   -6.6343 C   0  0  1  0  0  0  0  0  0  0  0  0
   -2.7388    1.5659   -6.4411 N   0  0  0  0  0  0  0  0  0  0  0  0
   -4.9315    0.9697   -5.8766 N   0  0  0  0  0  0  0  0  0  0  0  0
   -6.0169    0.1840   -6.0752 C   0  0  1  0  0  0  0  0  0  0  0  0
   -6.0066   -0.8015   -7.0426 C   0  0  2  0  0  0  0  0  0  0  0  0
   -4.8580   -0.9720   -7.8066 C   0  0  0  0  0  0  0  0  0  0  0  0
   -4.8065   -1.8499   -8.6906 O   0  0  0  0  0  0  0  0  0  0  0  0
   -7.2120   -1.4056   -7.0103 N   0  0  0  0  0  0  0  0  0  0  0  0
   -7.9454   -0.8112   -6.0403 C   0  0  0  0  0  0  0  0  0  0  0  0
   -7.2032    0.1505   -5.4825 N   0  0  1  0  0  0  0  0  0  0  0  0
  1  2  1  6  0  0  0
  1  3  1  0  0  0  0
  1  4  2  0  0  0  0
  1  6  1  0  0  0  0
  5  6  1  0  0  0  0
  7  5  1  6  0  0  0
  7  8  1  0  0  0  0
  7  9  1  0  0  0  0
  9 10  1  1  0  0  0
  9 11  1  0  0  0  0
 11 12  1  1  0  0  0
 11 13  1  0  0  0  0
 13  8  1  1  0  0  0
 13 24  1  0  0  0  0
 14 15  1  0  0  0  0
 14 20  1  0  0  0  0
 15 16  1  6  0  0  0
 15 17  1  0  0  0  0
 18 17  1  1  0  0  0
 18 19  1  0  0  0  0
 18 24  1  0  0  0  0
 19 20  1  6  0  0  0
 19 22  1  0  0  0  0
 20 21  2  0  0  0  0
 22 23  1  0  0  0  0
 24 23  1  1  0  0  0
M  CHG  1   3  -1
M  END
>  <CHROM.1>
-28.05988168,169.46977803,-165.51249762,-143.15351396,-8.70056691,0.16039132
-4.85473956,2.99259903,0.44463239,0.44546318

>  <Name>
ligand

>  <RI>
0

>  <Rbt.Current_Directory>
/home/itssahil/PROJECTS/Mol_Feturizer/New_Systems/rnas/3SLQ

>  <Rbt.Executable>
rbdock ($Id: //depot/dev/client3/rdock/2013.1/src/exe/rbdock.cxx#4 $)

>  <Rbt.Library>
libRbt.so (2013.1, Build901 2013/11/27)

>  <Rbt.Parameter_File>
/export/apps/rDock/src/rDock_2013.1_src/data/scripts/dock_solv.prm

>  <Rbt.Receptor>
prm/blind_docking_40.prm

>  <SCORE>
-18.6499

>  <SCORE.INTER>
-13.7143

>  <SCORE.INTER.CONST>
1

>  <SCORE.INTER.POLAR>
0

>  <SCORE.INTER.ROT>
4

>  <SCORE.INTER.SOLV>
18.1274

>  <SCORE.INTER.VDW>
-21.452

>  <SCORE.INTER.norm>
-0.571428

>  <SCORE.INTRA>
-4.93563

>  <SCORE.INTRA.DIHEDRAL>
-9.32726

>  <SCORE.INTRA.DIHEDRAL.0>
13.2525

>  <SCORE.INTRA.POLAR>
0

>  <SCORE.INTRA.POLAR.0>
0

>  <SCORE.INTRA.REPUL>
0

>  <SCORE.INTRA.REPUL.0>
0

>  <SCORE.INTRA.SOLV>
-0.201084

>  <SCORE.INTRA.SOLV.lig_0>
-70.7221

>  <SCORE.INTRA.VDW>
-0.171464

>  <SCORE.INTRA.VDW.0>
-1.46337

>  <SCORE.INTRA.norm>
-0.205651

>  <SCORE.RESTR>
0

>  <SCORE.RESTR.CAVITY>
0

>  <SCORE.RESTR.norm>
0

>  <SCORE.SYSTEM>
0

>  <SCORE.SYSTEM.CONST>
0

>  <SCORE.SYSTEM.DIHEDRAL>
0

>  <SCORE.SYSTEM.SOLV>
0

>  <SCORE.SYSTEM.norm>
0

>  <SCORE.heavy>
24

>  <SCORE.norm>
-0.77708

>  <RMSD>
17.582

$$$$
ligand
 OpenBabel11021811483D
libRbt.so/2013.1/901 2013/11/27
 24 26  0  0  0  0  0  0  0  0999 V2000
   -8.0814   -1.7189   -7.6252 P   0  0  1  0  0  0  0  0  0  0  0  0
   -8.9182   -1.9134   -8.8716 O   0  0  0  0  0  0  0  0  0  0  0  0
   -8.2055   -2.7842   -6.5614 O   0  5  0  0  0  0  0  0  0  0  0  0
   -6.6366   -1.3319   -7.9039 O   0  0  0  0  0  0  0  0  0  0  0  0
   -8.3974    0.0236   -5.5813 C   0  0  0  0  0  0  0  0  0  0  0  0
   -8.7843   -0.4591   -6.8796 O   0  0  0  0  0  0  0  0  0  0  0  0
   -9.2740    1.2157   -5.1864 C   0  0  1  0  0  0  0  0  0  0  0  0
  -10.6699    0.9212   -5.3235 O   0  0  0  0  0  0  0  0  0  0  0  0
   -9.0941    1.6935   -3.7556 C   0  0  1  0  0  0  0  0  0  0  0  0
   -8.0790    2.7012   -3.7281 O   0  0  0  0  0  0  0  0  0  0  0  0
  -10.4574    2.2661   -3.4036 C   0  0  1  0  0  0  0  0  0  0  0  0
  -10.5823    3.6070   -3.8982 O   0  0  0  0  0  0  0  0  0  0  0  0
  -11.4255    1.4305   -4.2175 C   0  0  2  0  0  0  0  0  0  0  0  0
  -14.3633   -0.0565   -0.3169 N   0  0  0  0  0  0  0  0  0  0  0  0
  -14.0788    1.1925   -0.7509 C   0  0  1  0  0  0  0  0  0  0  0  0
  -14.6212    2.2529   -0.1107 N   0  0  0  0  0  0  0  0  0  0  0  0
  -13.2621    1.3919   -1.8118 N   0  0  0  0  0  0  0  0  0  0  0  0
  -12.7214    0.3256   -2.4486 C   0  0  1  0  0  0  0  0  0  0  0  0
  -12.9933   -0.9607   -2.0259 C   0  0  2  0  0  0  0  0  0  0  0  0
  -13.8357   -1.1384   -0.9346 C   0  0  0  0  0  0  0  0  0  0  0  0
  -14.1073   -2.2826   -0.5202 O   0  0  0  0  0  0  0  0  0  0  0  0
  -12.3184   -1.7993   -2.8384 N   0  0  0  0  0  0  0  0  0  0  0  0
  -11.6521   -1.0476   -3.7455 C   0  0  0  0  0  0  0  0  0  0  0  0
  -11.9097    0.2399   -3.4943 N   0  0  1  0  0  0  0  0  0  0  0  0
  1  2  1  6  0  0  0
  1  3  1  0  0  0  0
  1  4  2  0  0  0  0
  1  6  1  0  0  0  0
  5  6  1  0  0  0  0
  7  5  1  1  0  0  0
  7  8  1  0  0  0  0
  7  9  1  0  0  0  0
  9 10  1  6  0  0  0
  9 11  1  0  0  0  0
 11 12  1  6  0  0  0
 11 13  1  0  0  0  0
 13  8  1  6  0  0  0
 13 24  1  0  0  0  0
 14 15  1  0  0  0  0
 14 20  1  0  0  0  0
 15 16  1  1  0  0  0
 15 17  1  0  0  0  0
 18 17  1  6  0  0  0
 18 19  1  0  0  0  0
 18 24  1  0  0  0  0
 19 20  1  1  0  0  0
 19 22  1  0  0  0  0
 20 21  2  0  0  0  0
 22 23  1  0  0  0  0
 24 23  1  6  0  0  0
M  CHG  1   3  -1
M  END
>  <CHROM.1>
174.54320712,51.42143067,-179.73294451,-175.77655645,-10.76412918,0.04864291
-4.13364685,0.42245087,-0.75650598,-2.79165131

>  <Name>
ligand

>  <RI>
0

>  <Rbt.Current_Directory>
/home/itssahil/PROJECTS/Mol_Feturizer/New_Systems/rnas/3SLQ

>  <Rbt.Executable>
rbdock ($Id: //depot/dev/client3/rdock/2013.1/src/exe/rbdock.cxx#4 $)

>  <Rbt.Library>
libRbt.so (2013.1, Build901 2013/11/27)

>  <Rbt.Parameter_File>
/export/apps/rDock/src/rDock_2013.1_src/data/scripts/dock_solv.prm

>  <Rbt.Receptor>
prm/blind_docking_60.prm

>  <SCORE>
-20.9221

>  <SCORE.INTER>
-15.156

>  <SCORE.INTER.CONST>
1

>  <SCORE.INTER.POLAR>
0

>  <SCORE.INTER.ROT>
4

>  <SCORE.INTER.SOLV>
11.2626

>  <SCORE.INTER.VDW>
-20.1249

>  <SCORE.INTER.norm>
-0.631501

>  <SCORE.INTRA>
-5.76606

>  <SCORE.INTRA.DIHEDRAL>
-11.7362

>  <SCORE.INTRA.DIHEDRAL.0>
13.2525

>  <SCORE.INTRA.POLAR>
0

>  <SCORE.INTRA.POLAR.0>
0

>  <SCORE.INTRA.REPUL>
0

>  <SCORE.INTRA.REPUL.0>
0

>  <SCORE.INTRA.SOLV>
0.508356

>  <SCORE.INTRA.SOLV.lig_0>
-70.7221

>  <SCORE.INTRA.VDW>
-0.152146

>  <SCORE.INTRA.VDW.0>
-1.46337

>  <SCORE.INTRA.norm>
-0.240253

>  <SCORE.RESTR>
0

>  <SCORE.RESTR.CAVITY>
0

>  <SCORE.RESTR.norm>
0

>  <SCORE.SYSTEM>
0

>  <SCORE.SYSTEM.CONST>
0

>  <SCORE.SYSTEM.DIHEDRAL>
0

>  <SCORE.SYSTEM.SOLV>
0

>  <SCORE.SYSTEM.norm>
0

>  <SCORE.heavy>
24

>  <SCORE.norm>
-0.871753

>  <RMSD>
17.583

$$$$
ligand
 OpenBabel11021811483D
libRbt.so/2013.1/901 2013/11/27
 24 26  0  0  0  0  0  0  0  0999 V2000
   -7.8522   -1.5712   -7.6802 P   0  0  1  0  0  0  0  0  0  0  0  0
   -8.4728   -2.7716   -6.9980 O   0  0  0  0  0  0  0  0  0  0  0  0
   -6.3952   -1.3087   -7.3802 O   0  5  0  0  0  0  0  0  0  0  0  0
   -8.1753   -1.4664   -9.1632 O   0  0  0  0  0  0  0  0  0  0  0  0
   -8.3490    0.0298   -5.5580 C   0  0  0  0  0  0  0  0  0  0  0  0
   -8.5494   -0.3035   -6.9426 O   0  0  0  0  0  0  0  0  0  0  0  0
   -9.2359    1.2182   -5.1748 C   0  0  1  0  0  0  0  0  0  0  0  0
  -10.6286    0.9180   -5.3312 O   0  0  0  0  0  0  0  0  0  0  0  0
   -9.0778    1.6962   -3.7415 C   0  0  1  0  0  0  0  0  0  0  0  0
   -8.0672    2.7081   -3.6997 O   0  0  0  0  0  0  0  0  0  0  0  0
  -10.4481    2.2630   -3.4081 C   0  0  1  0  0  0  0  0  0  0  0  0
  -10.5716    3.6036   -3.9039 O   0  0  0  0  0  0  0  0  0  0  0  0
  -11.4014    1.4238   -4.2356 C   0  0  2  0  0  0  0  0  0  0  0  0
  -14.3620   -0.0751   -0.3568 N   0  0  0  0  0  0  0  0  0  0  0  0
  -14.0740    1.1753   -0.7846 C   0  0  1  0  0  0  0  0  0  0  0  0
  -14.6190    2.2338   -0.1434 N   0  0  0  0  0  0  0  0  0  0  0  0
  -13.2513    1.3778   -1.8402 N   0  0  0  0  0  0  0  0  0  0  0  0
  -12.7080    0.3135   -2.4780 C   0  0  1  0  0  0  0  0  0  0  0  0
  -12.9834   -0.9742   -2.0616 C   0  0  2  0  0  0  0  0  0  0  0  0
  -13.8319   -1.1552   -0.9756 C   0  0  0  0  0  0  0  0  0  0  0  0
  -14.1068   -2.3007   -0.5670 O   0  0  0  0  0  0  0  0  0  0  0  0
  -12.3048   -1.8103   -2.8735 N   0  0  0  0  0  0  0  0  0  0  0  0
  -11.6328   -1.0558   -3.7741 C   0  0  0  0  0  0  0  0  0  0  0  0
  -11.8907    0.2309   -3.5195 N   0  0  1  0  0  0  0  0  0  0  0  0
  1  2  1  1  0  0  0
  1  3  1  0  0  0  0
  1  4  2  0  0  0  0
  1  6  1  0  0  0  0
  5  6  1  0  0  0  0
  7  5  1  1  0  0  0
  7  8  1  0  0  0  0
  7  9  1  0  0  0  0
  9 10  1  6  0  0  0
  9 11  1  0  0  0  0
 11 12  1  6  0  0  0
 11 13  1  0  0  0  0
 13  8  1  6  0  0  0
 13 24  1  0  0  0  0
 14 15  1  0  0  0  0
 14 20  1  0  0  0  0
 15 16  1  1  0  0  0
 15 17  1  0  0  0  0
 18 17  1  6  0  0  0
 18 19  1  0  0  0  0
 18 24  1  0  0  0  0
 19 20  1  1  0  0  0
 19 22  1  0  0  0  0
 20 21  2  0  0  0  0
 22 23  1  0  0  0  0
 24 23  1  6  0  0  0
M  CHG  1   3  -1
M  END
>  <CHROM.1>
66.12519519,61.54616352,-175.84051395,-176.36355481,-10.68966782,0.08444101
-4.16295458,0.39258337,-0.74809571,-2.79882615

>  <Name>
ligand

>  <RI>
0

>  <Rbt.Current_Directory>
/home/itssahil/PROJECTS/Mol_Feturizer/New_Systems/rnas/3SLQ

>  <Rbt.Executable>
rbdock ($Id: //depot/dev/client3/rdock/2013.1/src/exe/rbdock.cxx#4 $)

>  <Rbt.Library>
libRbt.so (2013.1, Build901 2013/11/27)

>  <Rbt.Parameter_File>
/export/apps/rDock/src/rDock_2013.1_src/data/scripts/dock_solv.prm

>  <Rbt.Receptor>
prm/blind_docking_40.prm

>  <SCORE>
-21.0122

>  <SCORE.INTER>
-14.9194

>  <SCORE.INTER.CONST>
1

>  <SCORE.INTER.POLAR>
0

>  <SCORE.INTER.ROT>
4

>  <SCORE.INTER.SOLV>
11.4736

>  <SCORE.INTER.VDW>
-20.0375

>  <SCORE.INTER.norm>
-0.621643

>  <SCORE.INTRA>
-6.09273

>  <SCORE.INTRA.DIHEDRAL>
-11.8916

>  <SCORE.INTRA.DIHEDRAL.0>
13.2525

>  <SCORE.INTRA.POLAR>
0

>  <SCORE.INTRA.POLAR.0>
0

>  <SCORE.INTRA.REPUL>
0

>  <SCORE.INTRA.REPUL.0>
0

>  <SCORE.INTRA.SOLV>
-0.00122105

>  <SCORE.INTRA.SOLV.lig_0>
-70.7221

>  <SCORE.INTRA.VDW>
-0.146322

>  <SCORE.INTRA.VDW.0>
-1.46337

>  <SCORE.INTRA.norm>
-0.253864

>  <SCORE.RESTR>
0

>  <SCORE.RESTR.CAVITY>
0

>  <SCORE.RESTR.norm>
0

>  <SCORE.SYSTEM>
0

>  <SCORE.SYSTEM.CONST>
0

>  <SCORE.SYSTEM.DIHEDRAL>
0

>  <SCORE.SYSTEM.SOLV>
0

>  <SCORE.SYSTEM.norm>
0

>  <SCORE.heavy>
24

>  <SCORE.norm>
-0.875507

>  <RMSD>
17.603

$$$$
ligand
 OpenBabel11021811483D
libRbt.so/2013.1/901 2013/11/27
 24 26  0  0  0  0  0  0  0  0999 V2000
   -6.2894   -0.5543   -7.1803 P   0  0  1  0  0  0  0  0  0  0  0  0
   -6.2930   -1.7735   -6.2830 O   0  0  0  0  0  0  0  0  0  0  0  0
   -5.1267    0.3959   -7.0154 O   0  5  0  0  0  0  0  0  0  0  0  0
   -6.5982   -0.8582   -8.6387 O   0  0  0  0  0  0  0  0  0  0  0  0
   -7.6679    0.6989   -5.2199 C   0  0  0  0  0  0  0  0  0  0  0  0
   -7.5085    0.3522   -6.6065 O   0  0  0  0  0  0  0  0  0  0  0  0
   -8.8033    1.7150   -5.0643 C   0  0  1  0  0  0  0  0  0  0  0  0
  -10.0715    1.1601   -5.4354 O   0  0  0  0  0  0  0  0  0  0  0  0
   -8.9877    2.2548   -3.6564 C   0  0  1  0  0  0  0  0  0  0  0  0
   -8.1942    3.4356   -3.5055 O   0  0  0  0  0  0  0  0  0  0  0  0
  -10.4733    2.5700   -3.5940 C   0  0  1  0  0  0  0  0  0  0  0  0
  -10.7405    3.8505   -4.1834 O   0  0  0  0  0  0  0  0  0  0  0  0
  -11.1027    1.5468   -4.5185 C   0  0  2  0  0  0  0  0  0  0  0  0
  -14.0457   -0.2736   -0.7660 N   0  0  0  0  0  0  0  0  0  0  0  0
  -13.8722    1.0024   -1.1797 C   0  0  1  0  0  0  0  0  0  0  0  0
  -14.5497    1.9949   -0.5597 N   0  0  0  0  0  0  0  0  0  0  0  0
  -13.0331    1.2953   -2.2006 N   0  0  0  0  0  0  0  0  0  0  0  0
  -12.3567    0.2968   -2.8173 C   0  0  1  0  0  0  0  0  0  0  0  0
  -12.5134   -1.0149   -2.4145 C   0  0  2  0  0  0  0  0  0  0  0  0
  -13.3817   -1.2892   -1.3643 C   0  0  0  0  0  0  0  0  0  0  0  0
  -13.5523   -2.4594   -0.9691 O   0  0  0  0  0  0  0  0  0  0  0  0
  -11.7193   -1.7714   -3.1994 N   0  0  0  0  0  0  0  0  0  0  0  0
  -11.0936   -0.9460   -4.0707 C   0  0  0  0  0  0  0  0  0  0  0  0
  -11.4939    0.3055   -3.8249 N   0  0  1  0  0  0  0  0  0  0  0  0
  1  2  1  1  0  0  0
  1  3  1  0  0  0  0
  1  4  2  0  0  0  0
  1  6  1  0  0  0  0
  5  6  1  0  0  0  0
  7  5  1  1  0  0  0
  7  8  1  0  0  0  0
  7  9  1  0  0  0  0
  9 10  1  6  0  0  0
  9 11  1  0  0  0  0
 11 12  1  6  0  0  0
 11 13  1  0  0  0  0
 13  8  1  6  0  0  0
 13 24  1  0  0  0  0
 14 15  1  0  0  0  0
 14 20  1  0  0  0  0
 15 16  1  1  0  0  0
 15 17  1  0  0  0  0
 18 17  1  6  0  0  0
 18 19  1  0  0  0  0
 18 24  1  0  0  0  0
 19 20  1  1  0  0  0
 19 22  1  0  0  0  0
 20 21  2  0  0  0  0
 22 23  1  0  0  0  0
 24 23  1  6  0  0  0
M  CHG  1   3  -1
M  END
>  <CHROM.1>
50.66461629,64.79048864,172.16760167,174.33578064,-10.05663741,0.45569339
-4.18686572,0.08932616,-0.65474869,-3.03088301

>  <Name>
ligand

>  <RI>
0

>  <Rbt.Current_Directory>
/home/itssahil/PROJECTS/Mol_Feturizer/New_Systems/rnas/3SLQ

>  <Rbt.Executable>
rbdock ($Id: //depot/dev/client3/rdock/2013.1/src/exe/rbdock.cxx#4 $)

>  <Rbt.Library>
libRbt.so (2013.1, Build901 2013/11/27)

>  <Rbt.Parameter_File>
/export/apps/rDock/src/rDock_2013.1_src/data/scripts/dock_solv.prm

>  <Rbt.Receptor>
prm/blind_docking_100.prm

>  <SCORE>
-20.8412

>  <SCORE.INTER>
-14.93

>  <SCORE.INTER.CONST>
1

>  <SCORE.INTER.POLAR>
0

>  <SCORE.INTER.ROT>
4

>  <SCORE.INTER.SOLV>
13.8232

>  <SCORE.INTER.VDW>
-20.8277

>  <SCORE.INTER.norm>
-0.622084

>  <SCORE.INTRA>
-5.91124

>  <SCORE.INTRA.DIHEDRAL>
-11.5386

>  <SCORE.INTRA.DIHEDRAL.0>
13.2525

>  <SCORE.INTRA.POLAR>
0

>  <SCORE.INTRA.POLAR.0>
0

>  <SCORE.INTRA.REPUL>
0

>  <SCORE.INTRA.REPUL.0>
0

>  <SCORE.INTRA.SOLV>
-0.117608

>  <SCORE.INTRA.SOLV.lig_0>
-70.7221

>  <SCORE.INTRA.VDW>
-0.0831424

>  <SCORE.INTRA.VDW.0>
-1.46337

>  <SCORE.INTRA.norm>
-0.246302

>  <SCORE.RESTR>
0

>  <SCORE.RESTR.CAVITY>
0

>  <SCORE.RESTR.norm>
0

>  <SCORE.SYSTEM>
0

>  <SCORE.SYSTEM.CONST>
0

>  <SCORE.SYSTEM.DIHEDRAL>
0

>  <SCORE.SYSTEM.SOLV>
0

>  <SCORE.SYSTEM.norm>
0

>  <SCORE.heavy>
24

>  <SCORE.norm>
-0.868385

>  <RMSD>
17.632

$$$$
ligand
 OpenBabel11021811483D
libRbt.so/2013.1/901 2013/11/27
 24 26  0  0  0  0  0  0  0  0999 V2000
   -8.0271   -1.6256   -7.8201 P   0  0  1  0  0  0  0  0  0  0  0  0
   -8.7496   -2.8036   -7.2021 O   0  0  0  0  0  0  0  0  0  0  0  0
   -6.5631   -1.4821   -7.4770 O   0  5  0  0  0  0  0  0  0  0  0  0
   -8.3041   -1.4391   -9.3044 O   0  0  0  0  0  0  0  0  0  0  0  0
   -8.4066   -0.0418   -5.6612 C   0  0  0  0  0  0  0  0  0  0  0  0
   -8.6497   -0.3405   -7.0468 O   0  0  0  0  0  0  0  0  0  0  0  0
   -9.2503    1.1623   -5.2322 C   0  0  1  0  0  0  0  0  0  0  0  0
  -10.6544    0.9002   -5.3500 O   0  0  0  0  0  0  0  0  0  0  0  0
   -9.0361    1.6126   -3.7972 C   0  0  1  0  0  0  0  0  0  0  0  0
   -7.9989    2.5977   -3.7710 O   0  0  0  0  0  0  0  0  0  0  0  0
  -10.3804    2.2085   -3.4127 C   0  0  1  0  0  0  0  0  0  0  0  0
  -10.4843    3.5597   -3.8836 O   0  0  0  0  0  0  0  0  0  0  0  0
  -11.3800    1.4074   -4.2232 C   0  0  2  0  0  0  0  0  0  0  0  0
  -14.3629   -0.0832   -0.3583 N   0  0  0  0  0  0  0  0  0  0  0  0
  -14.0671    1.1664   -0.7830 C   0  0  1  0  0  0  0  0  0  0  0  0
  -14.6095    2.2265   -0.1422 N   0  0  0  0  0  0  0  0  0  0  0  0
  -13.2394    1.3666   -1.8351 N   0  0  0  0  0  0  0  0  0  0  0  0
  -12.6988    0.3007   -2.4724 C   0  0  1  0  0  0  0  0  0  0  0  0
  -12.9821   -0.9863   -2.0592 C   0  0  2  0  0  0  0  0  0  0  0  0
  -13.8357   -1.1649   -0.9768 C   0  0  0  0  0  0  0  0  0  0  0  0
  -14.1177   -2.3097   -0.5711 O   0  0  0  0  0  0  0  0  0  0  0  0
  -12.3044   -1.8245   -2.8698 N   0  0  0  0  0  0  0  0  0  0  0  0
  -11.6252   -1.0718   -3.7666 C   0  0  0  0  0  0  0  0  0  0  0  0
  -11.8778    0.2158   -3.5110 N   0  0  1  0  0  0  0  0  0  0  0  0
  1  2  1  1  0  0  0
  1  3  1  0  0  0  0
  1  4  2  0  0  0  0
  1  6  1  0  0  0  0
  5  6  1  0  0  0  0
  7  5  1  1  0  0  0
  7  8  1  0  0  0  0
  7  9  1  0  0  0  0
  9 10  1  6  0  0  0
  9 11  1  0  0  0  0
 11 12  1  6  0  0  0
 11 13  1  0  0  0  0
 13  8  1  6  0  0  0
 13 24  1  0  0  0  0
 14 15  1  0  0  0  0
 14 20  1  0  0  0  0
 15 16  1  1  0  0  0
 15 17  1  0  0  0  0
 18 17  1  6  0  0  0
 18 19  1  0  0  0  0
 18 24  1  0  0  0  0
 19 20  1  1  0  0  0
 19 22  1  0  0  0  0
 20 21  2  0  0  0  0
 22 23  1  0  0  0  0
 24 23  1  6  0  0  0
M  CHG  1   3  -1
M  END
>  <CHROM.1>
69.34286229,62.00818314,-174.73214488,-173.90452839,-10.72587442,0.04709123
-4.20981341,0.43431109,-0.75687149,-2.75349974

>  <Name>
ligand

>  <RI>
0

>  <Rbt.Current_Directory>
/home/itssahil/PROJECTS/Mol_Feturizer/New_Systems/rnas/3SLQ

>  <Rbt.Executable>
rbdock ($Id: //depot/dev/client3/rdock/2013.1/src/exe/rbdock.cxx#4 $)

>  <Rbt.Library>
libRbt.so (2013.1, Build901 2013/11/27)

>  <Rbt.Parameter_File>
/export/apps/rDock/src/rDock_2013.1_src/data/scripts/dock_solv.prm

>  <Rbt.Receptor>
prm/blind_docking_60.prm

>  <SCORE>
-21.0967

>  <SCORE.INTER>
-15.0732

>  <SCORE.INTER.CONST>
1

>  <SCORE.INTER.POLAR>
0

>  <SCORE.INTER.ROT>
4

>  <SCORE.INTER.SOLV>
11.9013

>  <SCORE.INTER.VDW>
-20.2826

>  <SCORE.INTER.norm>
-0.62805

>  <SCORE.INTRA>
-6.0235

>  <SCORE.INTRA.DIHEDRAL>
-11.752

>  <SCORE.INTRA.DIHEDRAL.0>
13.2525

>  <SCORE.INTRA.POLAR>
0

>  <SCORE.INTRA.POLAR.0>
0

>  <SCORE.INTRA.REPUL>
0

>  <SCORE.INTRA.REPUL.0>
0

>  <SCORE.INTRA.SOLV>
0.0224714

>  <SCORE.INTRA.SOLV.lig_0>
-70.7221

>  <SCORE.INTRA.VDW>
-0.158748

>  <SCORE.INTRA.VDW.0>
-1.46337

>  <SCORE.INTRA.norm>
-0.250979

>  <SCORE.RESTR>
0

>  <SCORE.RESTR.CAVITY>
0

>  <SCORE.RESTR.norm>
0

>  <SCORE.SYSTEM>
0

>  <SCORE.SYSTEM.CONST>
0

>  <SCORE.SYSTEM.DIHEDRAL>
0

>  <SCORE.SYSTEM.SOLV>
0

>  <SCORE.SYSTEM.norm>
0

>  <SCORE.heavy>
24

>  <SCORE.norm>
-0.87903

>  <RMSD>
17.637

$$$$
ligand
 OpenBabel11021811483D
libRbt.so/2013.1/901 2013/11/27
 24 26  0  0  0  0  0  0  0  0999 V2000
   -6.3533    1.3529   -6.9487 P   0  0  1  0  0  0  0  0  0  0  0  0
   -5.7883    0.5071   -5.8275 O   0  0  0  0  0  0  0  0  0  0  0  0
   -6.2566    2.8501   -6.7730 O   0  5  0  0  0  0  0  0  0  0  0  0
   -5.9370    0.8959   -8.3388 O   0  0  0  0  0  0  0  0  0  0  0  0
   -8.6358   -0.0716   -7.2219 C   0  0  0  0  0  0  0  0  0  0  0  0
   -7.9579    1.1340   -6.8279 O   0  0  0  0  0  0  0  0  0  0  0  0
   -8.1573   -1.2436   -6.3600 C   0  0  1  0  0  0  0  0  0  0  0  0
   -8.2082   -0.9342   -4.9615 O   0  0  0  0  0  0  0  0  0  0  0  0
   -8.9558   -2.5253   -6.5259 C   0  0  1  0  0  0  0  0  0  0  0  0
   -8.3560   -3.3142   -7.5577 O   0  0  0  0  0  0  0  0  0  0  0  0
   -8.8292   -3.1952   -5.1674 C   0  0  1  0  0  0  0  0  0  0  0  0
   -7.5890   -3.9103   -5.0733 O   0  0  0  0  0  0  0  0  0  0  0  0
   -8.7155   -2.0356   -4.1978 C   0  0  2  0  0  0  0  0  0  0  0  0
  -11.3131    2.1108   -2.7428 N   0  0  0  0  0  0  0  0  0  0  0  0
  -10.0368    2.0052   -3.1781 C   0  0  1  0  0  0  0  0  0  0  0  0
   -9.2782    3.1205   -3.2741 N   0  0  0  0  0  0  0  0  0  0  0  0
   -9.5136    0.8035   -3.5162 N   0  0  0  0  0  0  0  0  0  0  0  0
  -10.2784   -0.3100   -3.4173 C   0  0  1  0  0  0  0  0  0  0  0  0
  -11.5841   -0.2318   -2.9743 C   0  0  2  0  0  0  0  0  0  0  0  0
  -12.0979    1.0141   -2.6342 C   0  0  0  0  0  0  0  0  0  0  0  0
  -13.2716    1.1294   -2.2296 O   0  0  0  0  0  0  0  0  0  0  0  0
  -12.0825   -1.4851   -2.9765 N   0  0  0  0  0  0  0  0  0  0  0  0
  -11.1089   -2.3153   -3.4179 C   0  0  0  0  0  0  0  0  0  0  0  0
  -10.0214   -1.5842   -3.6820 N   0  0  1  0  0  0  0  0  0  0  0  0
  1  2  1  1  0  0  0
  1  3  1  0  0  0  0
  1  4  2  0  0  0  0
  1  6  1  0  0  0  0
  5  6  1  0  0  0  0
  7  5  1  6  0  0  0
  7  8  1  0  0  0  0
  7  9  1  0  0  0  0
  9 10  1  6  0  0  0
  9 11  1  0  0  0  0
 11 12  1  6  0  0  0
 11 13  1  0  0  0  0
 13  8  1  6  0  0  0
 13 24  1  0  0  0  0
 14 15  1  0  0  0  0
 14 20  1  0  0  0  0
 15 16  1  1  0  0  0
 15 17  1  0  0  0  0
 18 17  1  6  0  0  0
 18 19  1  0  0  0  0
 18 24  1  0  0  0  0
 19 20  1  1  0  0  0
 19 22  1  0  0  0  0
 20 21  2  0  0  0  0
 22 23  1  0  0  0  0
 24 23  1  6  0  0  0
M  CHG  1   3  -1
M  END
>  <CHROM.1>
-73.95722741,50.21992008,63.04523898,-30.06566038,-8.94264093,-0.16628487
-5.01757104,-0.10040873,0.71069052,0.15825841

>  <Name>
ligand

>  <RI>
0

>  <Rbt.Current_Directory>
/home/itssahil/PROJECTS/Mol_Feturizer/New_Systems/rnas/3SLQ

>  <Rbt.Executable>
rbdock ($Id: //depot/dev/client3/rdock/2013.1/src/exe/rbdock.cxx#4 $)

>  <Rbt.Library>
libRbt.so (2013.1, Build901 2013/11/27)

>  <Rbt.Parameter_File>
/export/apps/rDock/src/rDock_2013.1_src/data/scripts/dock_solv.prm

>  <Rbt.Receptor>
prm/blind_docking_20.prm

>  <SCORE>
-18.2923

>  <SCORE.INTER>
-12.7505

>  <SCORE.INTER.CONST>
1

>  <SCORE.INTER.POLAR>
0

>  <SCORE.INTER.ROT>
4

>  <SCORE.INTER.SOLV>
16.5995

>  <SCORE.INTER.VDW>
-20.3001

>  <SCORE.INTER.norm>
-0.53127

>  <SCORE.INTRA>
-5.54179

>  <SCORE.INTRA.DIHEDRAL>
-11.3417

>  <SCORE.INTRA.DIHEDRAL.0>
13.2525

>  <SCORE.INTRA.POLAR>
0

>  <SCORE.INTRA.POLAR.0>
0

>  <SCORE.INTRA.REPUL>
0

>  <SCORE.INTRA.REPUL.0>
0

>  <SCORE.INTRA.SOLV>
1.24072

>  <SCORE.INTRA.SOLV.lig_0>
-70.7221

>  <SCORE.INTRA.VDW>
-0.491287

>  <SCORE.INTRA.VDW.0>
-1.46337

>  <SCORE.INTRA.norm>
-0.230908

>  <SCORE.RESTR>
0

>  <SCORE.RESTR.CAVITY>
0

>  <SCORE.RESTR.norm>
0

>  <SCORE.SYSTEM>
0

>  <SCORE.SYSTEM.CONST>
0

>  <SCORE.SYSTEM.DIHEDRAL>
0

>  <SCORE.SYSTEM.SOLV>
0

>  <SCORE.SYSTEM.norm>
0

>  <SCORE.heavy>
24

>  <SCORE.norm>
-0.762178

>  <RMSD>
17.653

$$$$
ligand
 OpenBabel11021811483D
libRbt.so/2013.1/901 2013/11/27
 24 26  0  0  0  0  0  0  0  0999 V2000
   -6.3451    1.0151   -6.1312 P   0  0  1  0  0  0  0  0  0  0  0  0
   -6.4992    1.1144   -7.6338 O   0  0  0  0  0  0  0  0  0  0  0  0
   -5.2934    0.0551   -5.6271 O   0  5  0  0  0  0  0  0  0  0  0  0
   -6.3002    2.3611   -5.4233 O   0  0  0  0  0  0  0  0  0  0  0  0
   -9.0110    0.5619   -6.1649 C   0  0  0  0  0  0  0  0  0  0  0  0
   -7.7015    0.2616   -5.6519 O   0  0  0  0  0  0  0  0  0  0  0  0
  -10.0722   -0.1909   -5.3568 C   0  0  1  0  0  0  0  0  0  0  0  0
  -10.0098   -1.6053   -5.5798 O   0  0  0  0  0  0  0  0  0  0  0  0
   -9.9763   -0.0083   -3.8518 C   0  0  1  0  0  0  0  0  0  0  0  0
  -10.7820    1.1102   -3.4688 O   0  0  0  0  0  0  0  0  0  0  0  0
  -10.5356   -1.3113   -3.3045 C   0  0  1  0  0  0  0  0  0  0  0  0
  -11.9695   -1.2707   -3.2775 O   0  0  0  0  0  0  0  0  0  0  0  0
  -10.1681   -2.3373   -4.3581 C   0  0  2  0  0  0  0  0  0  0  0  0
   -6.0285   -4.1872   -6.7029 N   0  0  0  0  0  0  0  0  0  0  0  0
   -7.1494   -3.6495   -7.2355 C   0  0  1  0  0  0  0  0  0  0  0  0
   -7.2583   -3.5484   -8.5796 N   0  0  0  0  0  0  0  0  0  0  0  0
   -8.1572   -3.2144   -6.4435 N   0  0  0  0  0  0  0  0  0  0  0  0
   -8.0425   -3.3189   -5.0979 C   0  0  1  0  0  0  0  0  0  0  0  0
   -6.9099   -3.8654   -4.5270 C   0  0  2  0  0  0  0  0  0  0  0  0
   -5.8890   -4.3038   -5.3622 C   0  0  0  0  0  0  0  0  0  0  0  0
   -4.8496   -4.8034   -4.8882 O   0  0  0  0  0  0  0  0  0  0  0  0
   -7.0854   -3.8418   -3.1900 N   0  0  0  0  0  0  0  0  0  0  0  0
   -8.2947   -3.2867   -2.9424 C   0  0  0  0  0  0  0  0  0  0  0  0
   -8.8608   -2.9742   -4.1124 N   0  0  1  0  0  0  0  0  0  0  0  0
  1  2  1  6  0  0  0
  1  3  1  0  0  0  0
  1  4  2  0  0  0  0
  1  6  1  0  0  0  0
  5  6  1  0  0  0  0
  7  5  1  6  0  0  0
  7  8  1  0  0  0  0
  7  9  1  0  0  0  0
  9 10  1  1  0  0  0
  9 11  1  0  0  0  0
 11 12  1  6  0  0  0
 11 13  1  0  0  0  0
 13  8  1  6  0  0  0
 13 24  1  0  0  0  0
 14 15  1  0  0  0  0
 14 20  1  0  0  0  0
 15 16  1  6  0  0  0
 15 17  1  0  0  0  0
 18 17  1  1  0  0  0
 18 19  1  0  0  0  0
 18 24  1  0  0  0  0
 19 20  1  6  0  0  0
 19 22  1  0  0  0  0
 20 21  2  0  0  0  0
 22 23  1  0  0  0  0
 24 23  1  1  0  0  0
M  CHG  1   3  -1
M  END
>  <CHROM.1>
-42.54298427,-68.70128628,-172.01721204,-29.28519989,-7.96109070,-1.47914621
-5.26425804,-2.33020194,-0.53368538,2.97035976

>  <Name>
ligand

>  <RI>
0

>  <Rbt.Current_Directory>
/home/itssahil/PROJECTS/Mol_Feturizer/New_Systems/rnas/3SLQ

>  <Rbt.Executable>
rbdock ($Id: //depot/dev/client3/rdock/2013.1/src/exe/rbdock.cxx#4 $)

>  <Rbt.Library>
libRbt.so (2013.1, Build901 2013/11/27)

>  <Rbt.Parameter_File>
/export/apps/rDock/src/rDock_2013.1_src/data/scripts/dock_solv.prm

>  <Rbt.Receptor>
prm/blind_docking_60.prm

>  <SCORE>
-21.9575

>  <SCORE.INTER>
-15.9216

>  <SCORE.INTER.CONST>
1

>  <SCORE.INTER.POLAR>
0

>  <SCORE.INTER.ROT>
4

>  <SCORE.INTER.SOLV>
14.7999

>  <SCORE.INTER.VDW>
-21.8144

>  <SCORE.INTER.norm>
-0.663401

>  <SCORE.INTRA>
-6.03588

>  <SCORE.INTRA.DIHEDRAL>
-10.9799

>  <SCORE.INTRA.DIHEDRAL.0>
13.2525

>  <SCORE.INTRA.POLAR>
0

>  <SCORE.INTRA.POLAR.0>
0

>  <SCORE.INTRA.REPUL>
0

>  <SCORE.INTRA.REPUL.0>
0

>  <SCORE.INTRA.SOLV>
-0.0206691

>  <SCORE.INTRA.SOLV.lig_0>
-70.7221

>  <SCORE.INTRA.VDW>
-0.535601

>  <SCORE.INTRA.VDW.0>
-1.46337

>  <SCORE.INTRA.norm>
-0.251495

>  <SCORE.RESTR>
0

>  <SCORE.RESTR.CAVITY>
0

>  <SCORE.RESTR.norm>
0

>  <SCORE.SYSTEM>
0

>  <SCORE.SYSTEM.CONST>
0

>  <SCORE.SYSTEM.DIHEDRAL>
0

>  <SCORE.SYSTEM.SOLV>
0

>  <SCORE.SYSTEM.norm>
0

>  <SCORE.heavy>
24

>  <SCORE.norm>
-0.914896

>  <RMSD>
17.654

$$$$
ligand
 OpenBabel11021811483D
libRbt.so/2013.1/901 2013/11/27
 24 26  0  0  0  0  0  0  0  0999 V2000
  -13.8216   -1.2492   -1.4590 P   0  0  1  0  0  0  0  0  0  0  0  0
  -14.6864   -1.4970   -2.6765 O   0  0  0  0  0  0  0  0  0  0  0  0
  -14.1788   -0.0474   -0.6164 O   0  5  0  0  0  0  0  0  0  0  0  0
  -13.5555   -2.4936   -0.6252 O   0  0  0  0  0  0  0  0  0  0  0  0
  -12.2730    0.1755   -3.1577 C   0  0  0  0  0  0  0  0  0  0  0  0
  -12.4005   -0.7727   -2.0840 O   0  0  0  0  0  0  0  0  0  0  0  0
  -10.8196    0.6461   -3.2669 C   0  0  1  0  0  0  0  0  0  0  0  0
   -9.9035   -0.4550   -3.3160 O   0  0  0  0  0  0  0  0  0  0  0  0
  -10.5127    1.4899   -4.4923 C   0  0  1  0  0  0  0  0  0  0  0  0
  -10.7130    2.8687   -4.1672 O   0  0  0  0  0  0  0  0  0  0  0  0
   -9.0484    1.1891   -4.7669 C   0  0  1  0  0  0  0  0  0  0  0  0
   -8.2047    1.9924   -3.9295 O   0  0  0  0  0  0  0  0  0  0  0  0
   -8.8728   -0.2382   -4.2875 C   0  0  2  0  0  0  0  0  0  0  0  0
   -7.6970   -1.4448   -9.1061 N   0  0  0  0  0  0  0  0  0  0  0  0
   -7.3058   -0.3820   -8.3665 C   0  0  1  0  0  0  0  0  0  0  0  0
   -6.4765    0.5342   -8.9153 N   0  0  0  0  0  0  0  0  0  0  0  0
   -7.7328   -0.2259   -7.0916 N   0  0  0  0  0  0  0  0  0  0  0  0
   -8.5640   -1.1469   -6.5477 C   0  0  1  0  0  0  0  0  0  0  0  0
   -8.9806   -2.2409   -7.2803 C   0  0  2  0  0  0  0  0  0  0  0  0
   -8.5272   -2.3785   -8.5870 C   0  0  0  0  0  0  0  0  0  0  0  0
   -8.8790   -3.3510   -9.2835 O   0  0  0  0  0  0  0  0  0  0  0  0
   -9.7945   -2.9667   -6.4868 N   0  0  0  0  0  0  0  0  0  0  0  0
   -9.8715   -2.3387   -5.2903 C   0  0  0  0  0  0  0  0  0  0  0  0
   -9.1170   -1.2365   -5.3452 N   0  0  1  0  0  0  0  0  0  0  0  0
  1  2  1  6  0  0  0
  1  3  1  0  0  0  0
  1  4  2  0  0  0  0
  1  6  1  0  0  0  0
  5  6  1  0  0  0  0
  7  5  1  6  0  0  0
  7  8  1  0  0  0  0
  7  9  1  0  0  0  0
  9 10  1  1  0  0  0
  9 11  1  0  0  0  0
 11 12  1  1  0  0  0
 11 13  1  0  0  0  0
 13  8  1  1  0  0  0
 13 24  1  0  0  0  0
 14 15  1  0  0  0  0
 14 20  1  0  0  0  0
 15 16  1  6  0  0  0
 15 17  1  0  0  0  0
 18 17  1  1  0  0  0
 18 19  1  0  0  0  0
 18 24  1  0  0  0  0
 19 20  1  6  0  0  0
 19 22  1  0  0  0  0
 20 21  2  0  0  0  0
 22 23  1  0  0  0  0
 24 23  1  1  0  0  0
M  CHG  1   3  -1
M  END
>  <CHROM.1>
44.46349630,50.83317962,166.36479250,163.99887577,-10.36933928,-0.65564567
-4.74790122,2.66017095,0.74859956,0.60062960

>  <Name>
ligand

>  <RI>
0

>  <Rbt.Current_Directory>
/home/itssahil/PROJECTS/Mol_Feturizer/New_Systems/rnas/3SLQ

>  <Rbt.Executable>
rbdock ($Id: //depot/dev/client3/rdock/2013.1/src/exe/rbdock.cxx#4 $)

>  <Rbt.Library>
libRbt.so (2013.1, Build901 2013/11/27)

>  <Rbt.Parameter_File>
/export/apps/rDock/src/rDock_2013.1_src/data/scripts/dock_solv.prm

>  <Rbt.Receptor>
prm/blind_docking_80.prm

>  <SCORE>
-18.3373

>  <SCORE.INTER>
-13.1156

>  <SCORE.INTER.CONST>
1

>  <SCORE.INTER.POLAR>
0

>  <SCORE.INTER.ROT>
4

>  <SCORE.INTER.SOLV>
16.7215

>  <SCORE.INTER.VDW>
-20.5842

>  <SCORE.INTER.norm>
-0.546482

>  <SCORE.INTRA>
-5.22178

>  <SCORE.INTRA.DIHEDRAL>
-10.5156

>  <SCORE.INTRA.DIHEDRAL.0>
13.2525

>  <SCORE.INTRA.POLAR>
0

>  <SCORE.INTRA.POLAR.0>
0

>  <SCORE.INTRA.REPUL>
0

>  <SCORE.INTRA.REPUL.0>
0

>  <SCORE.INTRA.SOLV>
-0.0720622

>  <SCORE.INTRA.SOLV.lig_0>
-70.7221

>  <SCORE.INTRA.VDW>
0.0720663

>  <SCORE.INTRA.VDW.0>
-1.46337

>  <SCORE.INTRA.norm>
-0.217574

>  <SCORE.RESTR>
0

>  <SCORE.RESTR.CAVITY>
0

>  <SCORE.RESTR.norm>
0

>  <SCORE.SYSTEM>
0

>  <SCORE.SYSTEM.CONST>
0

>  <SCORE.SYSTEM.DIHEDRAL>
0

>  <SCORE.SYSTEM.SOLV>
0

>  <SCORE.SYSTEM.norm>
0

>  <SCORE.heavy>
24

>  <SCORE.norm>
-0.764056

>  <RMSD>
17.667

$$$$
ligand
 OpenBabel11021811483D
libRbt.so/2013.1/901 2013/11/27
 24 26  0  0  0  0  0  0  0  0999 V2000
   -7.5507   -0.0798   -7.3064 P   0  0  1  0  0  0  0  0  0  0  0  0
   -7.3750   -1.4714   -6.7372 O   0  0  0  0  0  0  0  0  0  0  0  0
   -6.6621    0.2847   -8.4723 O   0  5  0  0  0  0  0  0  0  0  0  0
   -9.0020    0.3206   -7.5257 O   0  0  0  0  0  0  0  0  0  0  0  0
   -7.4774    0.9674   -4.8141 C   0  0  0  0  0  0  0  0  0  0  0  0
   -6.9510    0.8901   -6.1501 O   0  0  0  0  0  0  0  0  0  0  0  0
   -8.6676    1.9307   -4.7782 C   0  0  1  0  0  0  0  0  0  0  0  0
   -9.8658    1.3183   -5.2714 O   0  0  0  0  0  0  0  0  0  0  0  0
   -9.0165    2.4623   -3.3986 C   0  0  1  0  0  0  0  0  0  0  0  0
   -8.2965    3.6782   -3.1751 O   0  0  0  0  0  0  0  0  0  0  0  0
  -10.5136    2.7094   -3.4868 C   0  0  1  0  0  0  0  0  0  0  0  0
  -10.7783    3.9760   -4.1067 O   0  0  0  0  0  0  0  0  0  0  0  0
  -11.0001    1.6580   -4.4644 C   0  0  2  0  0  0  0  0  0  0  0  0
  -14.0384   -0.2566   -0.8367 N   0  0  0  0  0  0  0  0  0  0  0  0
  -13.8624    1.0284   -1.2202 C   0  0  1  0  0  0  0  0  0  0  0  0
  -14.5654    2.0038   -0.6012 N   0  0  0  0  0  0  0  0  0  0  0  0
  -12.9959    1.3473   -2.2099 N   0  0  0  0  0  0  0  0  0  0  0  0
  -12.2942    0.3659   -2.8257 C   0  0  1  0  0  0  0  0  0  0  0  0
  -12.4527   -0.9545   -2.4534 C   0  0  2  0  0  0  0  0  0  0  0  0
  -13.3494   -1.2556   -1.4349 C   0  0  0  0  0  0  0  0  0  0  0  0
  -13.5227   -2.4345   -1.0677 O   0  0  0  0  0  0  0  0  0  0  0  0
  -11.6302   -1.6898   -3.2290 N   0  0  0  0  0  0  0  0  0  0  0  0
  -10.9853   -0.8431   -4.0652 C   0  0  0  0  0  0  0  0  0  0  0  0
  -11.4021    0.4005   -3.8069 N   0  0  1  0  0  0  0  0  0  0  0  0
  1  2  1  1  0  0  0
  1  3  1  0  0  0  0
  1  4  2  0  0  0  0
  1  6  1  0  0  0  0
  5  6  1  0  0  0  0
  7  5  1  1  0  0  0
  7  8  1  0  0  0  0
  7  9  1  0  0  0  0
  9 10  1  6  0  0  0
  9 11  1  0  0  0  0
 11 12  1  6  0  0  0
 11 13  1  0  0  0  0
 13  8  1  6  0  0  0
 13 24  1  0  0  0  0
 14 15  1  0  0  0  0
 14 20  1  0  0  0  0
 15 16  1  1  0  0  0
 15 17  1  0  0  0  0
 18 17  1  6  0  0  0
 18 19  1  0  0  0  0
 18 24  1  0  0  0  0
 19 20  1  1  0  0  0
 19 22  1  0  0  0  0
 20 21  2  0  0  0  0
 22 23  1  0  0  0  0
 24 23  1  6  0  0  0
M  CHG  1   3  -1
M  END
>  <CHROM.1>
-61.00131382,79.20466317,-83.77737263,169.54299180,-10.33219094,0.66307526
-4.16051035,0.14146897,-0.72375214,-2.85364051

>  <Name>
ligand

>  <RI>
0

>  <Rbt.Current_Directory>
/home/itssahil/PROJECTS/Mol_Feturizer/New_Systems/rnas/3SLQ

>  <Rbt.Executable>
rbdock ($Id: //depot/dev/client3/rdock/2013.1/src/exe/rbdock.cxx#4 $)

>  <Rbt.Library>
libRbt.so (2013.1, Build901 2013/11/27)

>  <Rbt.Parameter_File>
/export/apps/rDock/src/rDock_2013.1_src/data/scripts/dock_solv.prm

>  <Rbt.Receptor>
prm/blind_docking_80.prm

>  <SCORE>
-16.7302

>  <SCORE.INTER>
-13.1825

>  <SCORE.INTER.CONST>
1

>  <SCORE.INTER.POLAR>
0

>  <SCORE.INTER.ROT>
4

>  <SCORE.INTER.SOLV>
16.5914

>  <SCORE.INTER.VDW>
-20.5855

>  <SCORE.INTER.norm>
-0.549273

>  <SCORE.INTRA>
-3.54914

>  <SCORE.INTRA.DIHEDRAL>
-8.38948

>  <SCORE.INTRA.DIHEDRAL.0>
13.2525

>  <SCORE.INTRA.POLAR>
0

>  <SCORE.INTRA.POLAR.0>
0

>  <SCORE.INTRA.REPUL>
0

>  <SCORE.INTRA.REPUL.0>
0

>  <SCORE.INTRA.SOLV>
2.48946

>  <SCORE.INTRA.SOLV.lig_0>
-70.7221

>  <SCORE.INTRA.VDW>
-0.599133

>  <SCORE.INTRA.VDW.0>
-1.46337

>  <SCORE.INTRA.norm>
-0.147881

>  <SCORE.RESTR>
0.00153126

>  <SCORE.RESTR.CAVITY>
0.00153126

>  <SCORE.RESTR.norm>
6.38024e-05

>  <SCORE.SYSTEM>
0

>  <SCORE.SYSTEM.CONST>
0

>  <SCORE.SYSTEM.DIHEDRAL>
0

>  <SCORE.SYSTEM.SOLV>
0

>  <SCORE.SYSTEM.norm>
0

>  <SCORE.heavy>
24

>  <SCORE.norm>
-0.69709

>  <RMSD>
17.671

$$$$
ligand
 OpenBabel11021811483D
libRbt.so/2013.1/901 2013/11/27
 24 26  0  0  0  0  0  0  0  0999 V2000
   -6.1092    2.0393   -6.4652 P   0  0  1  0  0  0  0  0  0  0  0  0
   -7.0322    2.1927   -7.6551 O   0  0  0  0  0  0  0  0  0  0  0  0
   -4.7515    1.4383   -6.7430 O   0  5  0  0  0  0  0  0  0  0  0  0
   -6.0359    3.2715   -5.5758 O   0  0  0  0  0  0  0  0  0  0  0  0
   -8.1648    0.4389   -5.7392 C   0  0  0  0  0  0  0  0  0  0  0  0
   -6.7956    0.8536   -5.5932 O   0  0  0  0  0  0  0  0  0  0  0  0
   -9.1004    1.5553   -5.2656 C   0  0  1  0  0  0  0  0  0  0  0  0
  -10.4795    1.2076   -5.4425 O   0  0  0  0  0  0  0  0  0  0  0  0
   -8.9563    1.9296   -3.8004 C   0  0  1  0  0  0  0  0  0  0  0  0
   -7.9903    2.9783   -3.6833 O   0  0  0  0  0  0  0  0  0  0  0  0
  -10.3483    2.4095   -3.4231 C   0  0  1  0  0  0  0  0  0  0  0  0
  -10.5319    3.7772   -3.8155 O   0  0  0  0  0  0  0  0  0  0  0  0
  -11.2683    1.5948   -4.3105 C   0  0  2  0  0  0  0  0  0  0  0  0
  -14.1738   -0.3224   -0.5770 N   0  0  0  0  0  0  0  0  0  0  0  0
  -13.9454    0.9681   -0.9114 C   0  0  1  0  0  0  0  0  0  0  0  0
  -14.5457    1.9498   -0.2011 N   0  0  0  0  0  0  0  0  0  0  0  0
  -13.1276    1.2861   -1.9420 N   0  0  0  0  0  0  0  0  0  0  0  0
  -12.5287    0.2983   -2.6493 C   0  0  1  0  0  0  0  0  0  0  0  0
  -12.7427   -1.0279   -2.3289 C   0  0  2  0  0  0  0  0  0  0  0  0
  -13.5875   -1.3279   -1.2667 C   0  0  0  0  0  0  0  0  0  0  0  0
  -13.8079   -2.5119   -0.9438 O   0  0  0  0  0  0  0  0  0  0  0  0
  -12.0188   -1.7693   -3.1923 N   0  0  0  0  0  0  0  0  0  0  0  0
  -11.3797   -0.9199   -4.0301 C   0  0  0  0  0  0  0  0  0  0  0  0
  -11.7023    0.3310   -3.6864 N   0  0  1  0  0  0  0  0  0  0  0  0
  1  2  1  6  0  0  0
  1  3  1  0  0  0  0
  1  4  2  0  0  0  0
  1  6  1  0  0  0  0
  5  6  1  0  0  0  0
  7  5  1  1  0  0  0
  7  8  1  0  0  0  0
  7  9  1  0  0  0  0
  9 10  1  6  0  0  0
  9 11  1  0  0  0  0
 11 12  1  6  0  0  0
 11 13  1  0  0  0  0
 13  8  1  6  0  0  0
 13 24  1  0  0  0  0
 14 15  1  0  0  0  0
 14 20  1  0  0  0  0
 15 16  1  1  0  0  0
 15 17  1  0  0  0  0
 18 17  1  6  0  0  0
 18 19  1  0  0  0  0
 18 24  1  0  0  0  0
 19 20  1  1  0  0  0
 19 22  1  0  0  0  0
 20 21  2  0  0  0  0
 22 23  1  0  0  0  0
 24 23  1  6  0  0  0
M  CHG  1   3  -1
M  END
>  <CHROM.1>
-18.44110071,177.67173265,-67.55868489,-175.63215507,-10.10338133,1.05491412
-3.94044436,-0.15303121,-0.62538667,-2.94863148

>  <Name>
ligand

>  <RI>
0

>  <Rbt.Current_Directory>
/home/itssahil/PROJECTS/Mol_Feturizer/New_Systems/rnas/3SLQ

>  <Rbt.Executable>
rbdock ($Id: //depot/dev/client3/rdock/2013.1/src/exe/rbdock.cxx#4 $)

>  <Rbt.Library>
libRbt.so (2013.1, Build901 2013/11/27)

>  <Rbt.Parameter_File>
/export/apps/rDock/src/rDock_2013.1_src/data/scripts/dock_solv.prm

>  <Rbt.Receptor>
prm/blind_docking_40.prm

>  <SCORE>
-22.0293

>  <SCORE.INTER>
-18.0193

>  <SCORE.INTER.CONST>
1

>  <SCORE.INTER.POLAR>
0

>  <SCORE.INTER.ROT>
4

>  <SCORE.INTER.SOLV>
13.3071

>  <SCORE.INTER.VDW>
-22.7152

>  <SCORE.INTER.norm>
-0.750803

>  <SCORE.INTRA>
-4.01004

>  <SCORE.INTRA.DIHEDRAL>
-9.86379

>  <SCORE.INTRA.DIHEDRAL.0>
13.2525

>  <SCORE.INTRA.POLAR>
0

>  <SCORE.INTRA.POLAR.0>
0

>  <SCORE.INTRA.REPUL>
0

>  <SCORE.INTRA.REPUL.0>
0

>  <SCORE.INTRA.SOLV>
2.80516

>  <SCORE.INTRA.SOLV.lig_0>
-70.7221

>  <SCORE.INTRA.VDW>
-0.480732

>  <SCORE.INTRA.VDW.0>
-1.46337

>  <SCORE.INTRA.norm>
-0.167085

>  <SCORE.RESTR>
0

>  <SCORE.RESTR.CAVITY>
0

>  <SCORE.RESTR.norm>
0

>  <SCORE.SYSTEM>
0

>  <SCORE.SYSTEM.CONST>
0

>  <SCORE.SYSTEM.DIHEDRAL>
0

>  <SCORE.SYSTEM.SOLV>
0

>  <SCORE.SYSTEM.norm>
0

>  <SCORE.heavy>
24

>  <SCORE.norm>
-0.917888

>  <RMSD>
17.684

$$$$
ligand
 OpenBabel11021811483D
libRbt.so/2013.1/901 2013/11/27
 24 26  0  0  0  0  0  0  0  0999 V2000
  -13.8184   -0.7069   -2.5944 P   0  0  1  0  0  0  0  0  0  0  0  0
  -14.8522   -0.3216   -3.6309 O   0  0  0  0  0  0  0  0  0  0  0  0
  -14.0284   -0.1592   -1.2023 O   0  5  0  0  0  0  0  0  0  0  0  0
  -13.4611   -2.1857   -2.5966 O   0  0  0  0  0  0  0  0  0  0  0  0
  -11.2661   -0.5133   -3.4673 C   0  0  0  0  0  0  0  0  0  0  0  0
  -12.4914    0.1120   -3.0480 O   0  0  0  0  0  0  0  0  0  0  0  0
  -10.1340    0.5181   -3.4834 C   0  0  1  0  0  0  0  0  0  0  0  0
   -8.8443   -0.1048   -3.5338 O   0  0  0  0  0  0  0  0  0  0  0  0
  -10.1687    1.4850   -4.6546 C   0  0  1  0  0  0  0  0  0  0  0  0
  -10.9290    2.6378   -4.2810 O   0  0  0  0  0  0  0  0  0  0  0  0
   -8.7037    1.8289   -4.8683 C   0  0  1  0  0  0  0  0  0  0  0  0
   -8.2904    2.8562   -3.9561 O   0  0  0  0  0  0  0  0  0  0  0  0
   -7.9682    0.5737   -4.4424 C   0  0  2  0  0  0  0  0  0  0  0  0
   -4.5984   -0.8035   -8.0207 N   0  0  0  0  0  0  0  0  0  0  0  0
   -4.5174    0.1822   -7.0980 C   0  0  1  0  0  0  0  0  0  0  0  0
   -3.4077    0.9535   -7.0524 N   0  0  0  0  0  0  0  0  0  0  0  0
   -5.5283    0.4041   -6.2257 N   0  0  0  0  0  0  0  0  0  0  0  0
   -6.6376   -0.3715   -6.2769 C   0  0  1  0  0  0  0  0  0  0  0  0
   -6.7478   -1.3839   -7.2096 C   0  0  2  0  0  0  0  0  0  0  0  0
   -5.6954   -1.5919   -8.0935 C   0  0  0  0  0  0  0  0  0  0  0  0
   -5.7541   -2.4949   -8.9514 O   0  0  0  0  0  0  0  0  0  0  0  0
   -7.9481   -1.9700   -7.0232 N   0  0  0  0  0  0  0  0  0  0  0  0
   -8.5602   -1.3383   -5.9944 C   0  0  0  0  0  0  0  0  0  0  0  0
   -7.7491   -0.3718   -5.5528 N   0  0  1  0  0  0  0  0  0  0  0  0
  1  2  1  6  0  0  0
  1  3  1  0  0  0  0
  1  4  2  0  0  0  0
  1  6  1  0  0  0  0
  5  6  1  0  0  0  0
  7  5  1  6  0  0  0
  7  8  1  0  0  0  0
  7  9  1  0  0  0  0
  9 10  1  1  0  0  0
  9 11  1  0  0  0  0
 11 12  1  1  0  0  0
 11 13  1  0  0  0  0
 13  8  1  1  0  0  0
 13 24  1  0  0  0  0
 14 15  1  0  0  0  0
 14 20  1  0  0  0  0
 15 16  1  6  0  0  0
 15 17  1  0  0  0  0
 18 17  1  1  0  0  0
 18 19  1  0  0  0  0
 18 24  1  0  0  0  0
 19 20  1  6  0  0  0
 19 22  1  0  0  0  0
 20 21  2  0  0  0  0
 22 23  1  0  0  0  0
 24 23  1  1  0  0  0
M  CHG  1   3  -1
M  END
>  <CHROM.1>
-116.52679039,164.09781886,-165.90259617,-151.63593304,-9.23939406,-0.12792133
-4.91682749,2.87693409,0.46120990,0.49066483

>  <Name>
ligand

>  <RI>
0

>  <Rbt.Current_Directory>
/home/itssahil/PROJECTS/Mol_Feturizer/New_Systems/rnas/3SLQ

>  <Rbt.Executable>
rbdock ($Id: //depot/dev/client3/rdock/2013.1/src/exe/rbdock.cxx#4 $)

>  <Rbt.Library>
libRbt.so (2013.1, Build901 2013/11/27)

>  <Rbt.Parameter_File>
/export/apps/rDock/src/rDock_2013.1_src/data/scripts/dock_solv.prm

>  <Rbt.Receptor>
prm/blind_docking_60.prm

>  <SCORE>
-18.3035

>  <SCORE.INTER>
-14.3497

>  <SCORE.INTER.CONST>
1

>  <SCORE.INTER.POLAR>
0

>  <SCORE.INTER.ROT>
4

>  <SCORE.INTER.SOLV>
15.7949

>  <SCORE.INTER.VDW>
-21.0981

>  <SCORE.INTER.norm>
-0.597906

>  <SCORE.INTRA>
-3.95377

>  <SCORE.INTRA.DIHEDRAL>
-7.85083

>  <SCORE.INTRA.DIHEDRAL.0>
13.2525

>  <SCORE.INTRA.POLAR>
0

>  <SCORE.INTRA.POLAR.0>
0

>  <SCORE.INTRA.REPUL>
0

>  <SCORE.INTRA.REPUL.0>
0

>  <SCORE.INTRA.SOLV>
0.342307

>  <SCORE.INTRA.SOLV.lig_0>
-70.7221

>  <SCORE.INTRA.VDW>
-0.199509

>  <SCORE.INTRA.VDW.0>
-1.46337

>  <SCORE.INTRA.norm>
-0.164741

>  <SCORE.RESTR>
0

>  <SCORE.RESTR.CAVITY>
0

>  <SCORE.RESTR.norm>
0

>  <SCORE.SYSTEM>
0

>  <SCORE.SYSTEM.CONST>
0

>  <SCORE.SYSTEM.DIHEDRAL>
0

>  <SCORE.SYSTEM.SOLV>
0

>  <SCORE.SYSTEM.norm>
0

>  <SCORE.heavy>
24

>  <SCORE.norm>
-0.762646

>  <RMSD>
17.685

$$$$
ligand
 OpenBabel11021811483D
libRbt.so/2013.1/901 2013/11/27
 24 26  0  0  0  0  0  0  0  0999 V2000
   -5.8447    0.1229   -6.8952 P   0  0  1  0  0  0  0  0  0  0  0  0
   -4.5664    0.6599   -6.2877 O   0  0  0  0  0  0  0  0  0  0  0  0
   -6.1062    0.4873   -8.3377 O   0  5  0  0  0  0  0  0  0  0  0  0
   -6.0967   -1.3493   -6.6057 O   0  0  0  0  0  0  0  0  0  0  0  0
   -8.4068    0.6165   -6.1842 C   0  0  0  0  0  0  0  0  0  0  0  0
   -7.0130    0.9692   -6.1496 O   0  0  0  0  0  0  0  0  0  0  0  0
   -9.2403    1.7225   -5.5301 C   0  0  1  0  0  0  0  0  0  0  0  0
  -10.6414    1.4225   -5.5569 O   0  0  0  0  0  0  0  0  0  0  0  0
   -8.9070    1.9954   -4.0733 C   0  0  1  0  0  0  0  0  0  0  0  0
   -7.8995    3.0092   -4.0108 O   0  0  0  0  0  0  0  0  0  0  0  0
  -10.2261    2.4845   -3.4980 C   0  0  1  0  0  0  0  0  0  0  0  0
  -10.4103    3.8794   -3.7785 O   0  0  0  0  0  0  0  0  0  0  0  0
  -11.2737    1.7540   -4.3144 C   0  0  2  0  0  0  0  0  0  0  0  0
  -14.1475   -0.3400   -0.6520 N   0  0  0  0  0  0  0  0  0  0  0  0
  -13.9596    0.9644   -0.9564 C   0  0  1  0  0  0  0  0  0  0  0  0
  -14.5993    1.9098   -0.2314 N   0  0  0  0  0  0  0  0  0  0  0  0
  -13.1435    1.3319   -1.9718 N   0  0  0  0  0  0  0  0  0  0  0  0
  -12.5051    0.3802   -2.6940 C   0  0  1  0  0  0  0  0  0  0  0  0
  -12.6772   -0.9590   -2.4041 C   0  0  2  0  0  0  0  0  0  0  0  0
  -13.5212   -1.3101   -1.3571 C   0  0  0  0  0  0  0  0  0  0  0  0
  -13.7046   -2.5076   -1.0618 O   0  0  0  0  0  0  0  0  0  0  0  0
  -11.9208   -1.6569   -3.2758 N   0  0  0  0  0  0  0  0  0  0  0  0
  -11.3029   -0.7686   -4.0889 C   0  0  0  0  0  0  0  0  0  0  0  0
  -11.6706    0.4631   -3.7218 N   0  0  1  0  0  0  0  0  0  0  0  0
  1  2  1  1  0  0  0
  1  3  1  0  0  0  0
  1  4  2  0  0  0  0
  1  6  1  0  0  0  0
  5  6  1  0  0  0  0
  7  5  1  1  0  0  0
  7  8  1  0  0  0  0
  7  9  1  0  0  0  0
  9 10  1  6  0  0  0
  9 11  1  0  0  0  0
 11 12  1  6  0  0  0
 11 13  1  0  0  0  0
 13  8  1  6  0  0  0
 13 24  1  0  0  0  0
 14 15  1  0  0  0  0
 14 20  1  0  0  0  0
 15 16  1  1  0  0  0
 15 17  1  0  0  0  0
 18 17  1  6  0  0  0
 18 19  1  0  0  0  0
 18 24  1  0  0  0  0
 19 20  1  1  0  0  0
 19 22  1  0  0  0  0
 20 21  2  0  0  0  0
 22 23  1  0  0  0  0
 24 23  1  6  0  0  0
M  CHG  1   3  -1
M  END
>  <CHROM.1>
-166.06584149,179.23334974,-172.84318897,-166.87710024,-10.03366157,0.63280961
-4.14400353,-0.01686501,-0.62147336,-3.06897774

>  <Name>
ligand

>  <RI>
0

>  <Rbt.Current_Directory>
/home/itssahil/PROJECTS/Mol_Feturizer/New_Systems/rnas/3SLQ

>  <Rbt.Executable>
rbdock ($Id: //depot/dev/client3/rdock/2013.1/src/exe/rbdock.cxx#4 $)

>  <Rbt.Library>
libRbt.so (2013.1, Build901 2013/11/27)

>  <Rbt.Parameter_File>
/export/apps/rDock/src/rDock_2013.1_src/data/scripts/dock_solv.prm

>  <Rbt.Receptor>
prm/blind_docking_20.prm

>  <SCORE>
-21.8731

>  <SCORE.INTER>
-16.1633

>  <SCORE.INTER.CONST>
1

>  <SCORE.INTER.POLAR>
0

>  <SCORE.INTER.ROT>
4

>  <SCORE.INTER.SOLV>
12.9624

>  <SCORE.INTER.VDW>
-21.363

>  <SCORE.INTER.norm>
-0.673469

>  <SCORE.INTRA>
-5.70983

>  <SCORE.INTRA.DIHEDRAL>
-11.4782

>  <SCORE.INTRA.DIHEDRAL.0>
13.2525

>  <SCORE.INTRA.POLAR>
0

>  <SCORE.INTRA.POLAR.0>
0

>  <SCORE.INTRA.REPUL>
0

>  <SCORE.INTRA.REPUL.0>
0

>  <SCORE.INTRA.SOLV>
0.591942

>  <SCORE.INTRA.SOLV.lig_0>
-70.7221

>  <SCORE.INTRA.VDW>
-0.266683

>  <SCORE.INTRA.VDW.0>
-1.46337

>  <SCORE.INTRA.norm>
-0.23791

>  <SCORE.RESTR>
0

>  <SCORE.RESTR.CAVITY>
0

>  <SCORE.RESTR.norm>
0

>  <SCORE.SYSTEM>
0

>  <SCORE.SYSTEM.CONST>
0

>  <SCORE.SYSTEM.DIHEDRAL>
0

>  <SCORE.SYSTEM.SOLV>
0

>  <SCORE.SYSTEM.norm>
0

>  <SCORE.heavy>
24

>  <SCORE.norm>
-0.911379

>  <RMSD>
17.704

$$$$
ligand
 OpenBabel11021811483D
libRbt.so/2013.1/901 2013/11/27
 24 26  0  0  0  0  0  0  0  0999 V2000
   -5.9516    0.1430   -7.0602 P   0  0  1  0  0  0  0  0  0  0  0  0
   -6.0445   -1.2088   -6.3854 O   0  0  0  0  0  0  0  0  0  0  0  0
   -4.6985    0.9422   -6.7905 O   0  5  0  0  0  0  0  0  0  0  0  0
   -6.3332    0.1272   -8.5329 O   0  0  0  0  0  0  0  0  0  0  0  0
   -8.4529    0.6956   -6.1932 C   0  0  0  0  0  0  0  0  0  0  0  0
   -7.0596    1.0406   -6.2832 O   0  0  0  0  0  0  0  0  0  0  0  0
   -9.2160    1.7993   -5.4547 C   0  0  1  0  0  0  0  0  0  0  0  0
  -10.6278    1.5530   -5.4371 O   0  0  0  0  0  0  0  0  0  0  0  0
   -8.8147    1.9898   -4.0019 C   0  0  1  0  0  0  0  0  0  0  0  0
   -7.7668    2.9614   -3.9346 O   0  0  0  0  0  0  0  0  0  0  0  0
  -10.0898    2.4994   -3.3504 C   0  0  1  0  0  0  0  0  0  0  0  0
  -10.2306    3.9120   -3.5583 O   0  0  0  0  0  0  0  0  0  0  0  0
  -11.1967    1.8480   -4.1554 C   0  0  2  0  0  0  0  0  0  0  0  0
  -14.2100   -0.3150   -0.6486 N   0  0  0  0  0  0  0  0  0  0  0  0
  -14.0064    0.9951   -0.9163 C   0  0  1  0  0  0  0  0  0  0  0  0
  -14.6687    1.9268   -0.1939 N   0  0  0  0  0  0  0  0  0  0  0  0
  -13.1524    1.3817   -1.8927 N   0  0  0  0  0  0  0  0  0  0  0  0
  -12.4915    0.4436   -2.6125 C   0  0  1  0  0  0  0  0  0  0  0  0
  -12.6790   -0.9010   -2.3595 C   0  0  2  0  0  0  0  0  0  0  0  0
  -13.5620   -1.2718   -1.3521 C   0  0  0  0  0  0  0  0  0  0  0  0
  -13.7604   -2.4747   -1.0909 O   0  0  0  0  0  0  0  0  0  0  0  0
  -11.8938   -1.5824   -3.2186 N   0  0  0  0  0  0  0  0  0  0  0  0
  -11.2433   -0.6789   -3.9883 C   0  0  0  0  0  0  0  0  0  0  0  0
  -11.6197    0.5459   -3.6071 N   0  0  1  0  0  0  0  0  0  0  0  0
  1  2  1  1  0  0  0
  1  3  1  0  0  0  0
  1  4  2  0  0  0  0
  1  6  1  0  0  0  0
  5  6  1  0  0  0  0
  7  5  1  1  0  0  0
  7  8  1  0  0  0  0
  7  9  1  0  0  0  0
  9 10  1  6  0  0  0
  9 11  1  0  0  0  0
 11 12  1  6  0  0  0
 11 13  1  0  0  0  0
 13  8  1  6  0  0  0
 13 24  1  0  0  0  0
 14 15  1  0  0  0  0
 14 20  1  0  0  0  0
 15 16  1  1  0  0  0
 15 17  1  0  0  0  0
 18 17  1  6  0  0  0
 18 19  1  0  0  0  0
 18 24  1  0  0  0  0
 19 20  1  1  0  0  0
 19 22  1  0  0  0  0
 20 21  2  0  0  0  0
 22 23  1  0  0  0  0
 24 23  1  6  0  0  0
M  CHG  1   3  -1
M  END
>  <CHROM.1>
-57.35108926,175.17425713,-177.01736765,-161.84791304,-10.03949445,0.67629642
-4.13152563,0.02964092,-0.63943652,-2.99519003

>  <Name>
ligand

>  <RI>
0

>  <Rbt.Current_Directory>
/home/itssahil/PROJECTS/Mol_Feturizer/New_Systems/rnas/3SLQ

>  <Rbt.Executable>
rbdock ($Id: //depot/dev/client3/rdock/2013.1/src/exe/rbdock.cxx#4 $)

>  <Rbt.Library>
libRbt.so (2013.1, Build901 2013/11/27)

>  <Rbt.Parameter_File>
/export/apps/rDock/src/rDock_2013.1_src/data/scripts/dock_solv.prm

>  <Rbt.Receptor>
prm/blind_docking_20.prm

>  <SCORE>
-22.1467

>  <SCORE.INTER>
-15.837

>  <SCORE.INTER.CONST>
1

>  <SCORE.INTER.POLAR>
0

>  <SCORE.INTER.ROT>
4

>  <SCORE.INTER.SOLV>
11.7374

>  <SCORE.INTER.VDW>
-20.7372

>  <SCORE.INTER.norm>
-0.659877

>  <SCORE.INTRA>
-6.3097

>  <SCORE.INTRA.DIHEDRAL>
-11.8942

>  <SCORE.INTRA.DIHEDRAL.0>
13.2525

>  <SCORE.INTRA.POLAR>
0

>  <SCORE.INTRA.POLAR.0>
0

>  <SCORE.INTRA.REPUL>
0

>  <SCORE.INTRA.REPUL.0>
0

>  <SCORE.INTRA.SOLV>
-0.0214612

>  <SCORE.INTRA.SOLV.lig_0>
-70.7221

>  <SCORE.INTRA.VDW>
-0.351851

>  <SCORE.INTRA.VDW.0>
-1.46337

>  <SCORE.INTRA.norm>
-0.262904

>  <SCORE.RESTR>
0

>  <SCORE.RESTR.CAVITY>
0

>  <SCORE.RESTR.norm>
0

>  <SCORE.SYSTEM>
0

>  <SCORE.SYSTEM.CONST>
0

>  <SCORE.SYSTEM.DIHEDRAL>
0

>  <SCORE.SYSTEM.SOLV>
0

>  <SCORE.SYSTEM.norm>
0

>  <SCORE.heavy>
24

>  <SCORE.norm>
-0.922781

>  <RMSD>
17.704

$$$$
ligand
 OpenBabel11021811483D
libRbt.so/2013.1/901 2013/11/27
 24 26  0  0  0  0  0  0  0  0999 V2000
  -13.3558   -0.6679   -2.2467 P   0  0  1  0  0  0  0  0  0  0  0  0
  -13.1945   -1.9305   -1.4275 O   0  0  0  0  0  0  0  0  0  0  0  0
  -14.0019   -0.8267   -3.6029 O   0  5  0  0  0  0  0  0  0  0  0  0
  -13.9145    0.5108   -1.4637 O   0  0  0  0  0  0  0  0  0  0  0  0
  -11.5013    0.7617   -3.5999 C   0  0  0  0  0  0  0  0  0  0  0  0
  -11.8362   -0.2874   -2.6749 O   0  0  0  0  0  0  0  0  0  0  0  0
   -9.9905    1.0119   -3.5787 C   0  0  1  0  0  0  0  0  0  0  0  0
   -9.2466   -0.1870   -3.8305 O   0  0  0  0  0  0  0  0  0  0  0  0
   -9.4970    2.0229   -4.5996 C   0  0  1  0  0  0  0  0  0  0  0  0
   -9.5075    3.3242   -4.0052 O   0  0  0  0  0  0  0  0  0  0  0  0
   -8.0810    1.5576   -4.8971 C   0  0  1  0  0  0  0  0  0  0  0  0
   -7.1733    2.0378   -3.8952 O   0  0  0  0  0  0  0  0  0  0  0  0
   -8.1448    0.0541   -4.7144 C   0  0  2  0  0  0  0  0  0  0  0  0
   -7.0735   -4.1481   -7.4070 N   0  0  0  0  0  0  0  0  0  0  0  0
   -6.5541   -3.7248   -6.2320 C   0  0  1  0  0  0  0  0  0  0  0  0
   -5.6123   -4.4763   -5.6181 N   0  0  0  0  0  0  0  0  0  0  0  0
   -6.9634   -2.5646   -5.6676 N   0  0  0  0  0  0  0  0  0  0  0  0
   -7.9066   -1.8160   -6.2877 C   0  0  1  0  0  0  0  0  0  0  0  0
   -8.4529   -2.2232   -7.4890 C   0  0  2  0  0  0  0  0  0  0  0  0
   -8.0161   -3.4189   -8.0472 C   0  0  0  0  0  0  0  0  0  0  0  0
   -8.4830   -3.8232   -9.1304 O   0  0  0  0  0  0  0  0  0  0  0  0
   -9.3473   -1.2843   -7.8599 N   0  0  0  0  0  0  0  0  0  0  0  0
   -9.3575   -0.3246   -6.9056 C   0  0  0  0  0  0  0  0  0  0  0  0
   -8.4778   -0.6649   -5.9583 N   0  0  1  0  0  0  0  0  0  0  0  0
  1  2  1  1  0  0  0
  1  3  1  0  0  0  0
  1  4  2  0  0  0  0
  1  6  1  0  0  0  0
  5  6  1  0  0  0  0
  7  5  1  6  0  0  0
  7  8  1  0  0  0  0
  7  9  1  0  0  0  0
  9 10  1  1  0  0  0
  9 11  1  0  0  0  0
 11 12  1  1  0  0  0
 11 13  1  0  0  0  0
 13  8  1  1  0  0  0
 13 24  1  0  0  0  0
 14 15  1  0  0  0  0
 14 20  1  0  0  0  0
 15 16  1  6  0  0  0
 15 17  1  0  0  0  0
 18 17  1  1  0  0  0
 18 19  1  0  0  0  0
 18 24  1  0  0  0  0
 19 20  1  6  0  0  0
 19 22  1  0  0  0  0
 20 21  2  0  0  0  0
 22 23  1  0  0  0  0
 24 23  1  1  0  0  0
M  CHG  1   3  -1
M  END
>  <CHROM.1>
172.40321673,54.78849873,169.80935433,-103.96418466,-9.70381444,-0.81838144
-4.80754002,2.48503256,0.51976492,0.41357716

>  <Name>
ligand

>  <RI>
0

>  <Rbt.Current_Directory>
/home/itssahil/PROJECTS/Mol_Feturizer/New_Systems/rnas/3SLQ

>  <Rbt.Executable>
rbdock ($Id: //depot/dev/client3/rdock/2013.1/src/exe/rbdock.cxx#4 $)

>  <Rbt.Library>
libRbt.so (2013.1, Build901 2013/11/27)

>  <Rbt.Parameter_File>
/export/apps/rDock/src/rDock_2013.1_src/data/scripts/dock_solv.prm

>  <Rbt.Receptor>
prm/blind_docking_60.prm

>  <SCORE>
-16.5043

>  <SCORE.INTER>
-10.8744

>  <SCORE.INTER.CONST>
1

>  <SCORE.INTER.POLAR>
0

>  <SCORE.INTER.ROT>
4

>  <SCORE.INTER.SOLV>
22.7644

>  <SCORE.INTER.VDW>
-21.1044

>  <SCORE.INTER.norm>
-0.453099

>  <SCORE.INTRA>
-5.62996

>  <SCORE.INTRA.DIHEDRAL>
-11.3753

>  <SCORE.INTRA.DIHEDRAL.0>
13.2525

>  <SCORE.INTRA.POLAR>
0

>  <SCORE.INTRA.POLAR.0>
0

>  <SCORE.INTRA.REPUL>
0

>  <SCORE.INTRA.REPUL.0>
0

>  <SCORE.INTRA.SOLV>
0.479819

>  <SCORE.INTRA.SOLV.lig_0>
-70.7221

>  <SCORE.INTRA.VDW>
-0.182229

>  <SCORE.INTRA.VDW.0>
-1.46337

>  <SCORE.INTRA.norm>
-0.234582

>  <SCORE.RESTR>
0

>  <SCORE.RESTR.CAVITY>
0

>  <SCORE.RESTR.norm>
0

>  <SCORE.SYSTEM>
0

>  <SCORE.SYSTEM.CONST>
0

>  <SCORE.SYSTEM.DIHEDRAL>
0

>  <SCORE.SYSTEM.SOLV>
0

>  <SCORE.SYSTEM.norm>
0

>  <SCORE.heavy>
24

>  <SCORE.norm>
-0.687681

>  <RMSD>
17.710

$$$$
ligand
 OpenBabel11021811483D
libRbt.so/2013.1/901 2013/11/27
 24 26  0  0  0  0  0  0  0  0999 V2000
   -5.9199    0.1749   -6.9379 P   0  0  1  0  0  0  0  0  0  0  0  0
   -4.6379    0.7808   -6.4080 O   0  0  0  0  0  0  0  0  0  0  0  0
   -6.2272    0.4253   -8.3955 O   0  5  0  0  0  0  0  0  0  0  0  0
   -6.1321   -1.2762   -6.5332 O   0  0  0  0  0  0  0  0  0  0  0  0
   -8.4755    0.6802   -6.2119 C   0  0  0  0  0  0  0  0  0  0  0  0
   -7.0862    1.0515   -6.2247 O   0  0  0  0  0  0  0  0  0  0  0  0
   -9.3016    1.7779   -5.5349 C   0  0  1  0  0  0  0  0  0  0  0  0
  -10.7026    1.4759   -5.5459 O   0  0  0  0  0  0  0  0  0  0  0  0
   -8.9490    2.0360   -4.0800 C   0  0  1  0  0  0  0  0  0  0  0  0
   -7.9422    3.0507   -4.0205 O   0  0  0  0  0  0  0  0  0  0  0  0
  -10.2609    2.5169   -3.4817 C   0  0  1  0  0  0  0  0  0  0  0  0
  -10.4510    3.9143   -3.7450 O   0  0  0  0  0  0  0  0  0  0  0  0
  -11.3184    1.7932   -4.2915 C   0  0  2  0  0  0  0  0  0  0  0  0
  -14.1527   -0.3447   -0.6238 N   0  0  0  0  0  0  0  0  0  0  0  0
  -13.9724    0.9631   -0.9180 C   0  0  1  0  0  0  0  0  0  0  0  0
  -14.6094    1.8994   -0.1790 N   0  0  0  0  0  0  0  0  0  0  0  0
  -13.1664    1.3429   -1.9369 N   0  0  0  0  0  0  0  0  0  0  0  0
  -12.5306    0.4002   -2.6731 C   0  0  1  0  0  0  0  0  0  0  0  0
  -12.6951   -0.9422   -2.3938 C   0  0  2  0  0  0  0  0  0  0  0  0
  -13.5288   -1.3060   -1.3428 C   0  0  0  0  0  0  0  0  0  0  0  0
  -13.7051   -2.5068   -1.0568 O   0  0  0  0  0  0  0  0  0  0  0  0
  -11.9436   -1.6293   -3.2782 N   0  0  0  0  0  0  0  0  0  0  0  0
  -11.3360   -0.7314   -4.0885 C   0  0  0  0  0  0  0  0  0  0  0  0
  -11.7053    0.4955   -3.7072 N   0  0  1  0  0  0  0  0  0  0  0  0
  1  2  1  1  0  0  0
  1  3  1  0  0  0  0
  1  4  2  0  0  0  0
  1  6  1  0  0  0  0
  5  6  1  0  0  0  0
  7  5  1  1  0  0  0
  7  8  1  0  0  0  0
  7  9  1  0  0  0  0
  9 10  1  6  0  0  0
  9 11  1  0  0  0  0
 11 12  1  6  0  0  0
 11 13  1  0  0  0  0
 13  8  1  6  0  0  0
 13 24  1  0  0  0  0
 14 15  1  0  0  0  0
 14 20  1  0  0  0  0
 15 16  1  1  0  0  0
 15 17  1  0  0  0  0
 18 17  1  6  0  0  0
 18 19  1  0  0  0  0
 18 24  1  0  0  0  0
 19 20  1  1  0  0  0
 19 22  1  0  0  0  0
 20 21  2  0  0  0  0
 22 23  1  0  0  0  0
 24 23  1  6  0  0  0
M  CHG  1   3  -1
M  END
>  <CHROM.1>
-167.06943276,177.68779870,-176.26705564,-166.54814491,-10.07678969,0.66635665
-4.14627499,-0.01822653,-0.63174901,-3.06313011

>  <Name>
ligand

>  <RI>
0

>  <Rbt.Current_Directory>
/home/itssahil/PROJECTS/Mol_Feturizer/New_Systems/rnas/3SLQ

>  <Rbt.Executable>
rbdock ($Id: //depot/dev/client3/rdock/2013.1/src/exe/rbdock.cxx#4 $)

>  <Rbt.Library>
libRbt.so (2013.1, Build901 2013/11/27)

>  <Rbt.Parameter_File>
/export/apps/rDock/src/rDock_2013.1_src/data/scripts/dock_solv.prm

>  <Rbt.Receptor>
prm/blind_docking_80.prm

>  <SCORE>
-21.8655

>  <SCORE.INTER>
-16.0396

>  <SCORE.INTER.CONST>
1

>  <SCORE.INTER.POLAR>
0

>  <SCORE.INTER.ROT>
4

>  <SCORE.INTER.SOLV>
12.7417

>  <SCORE.INTER.VDW>
-21.207

>  <SCORE.INTER.norm>
-0.668317

>  <SCORE.INTRA>
-5.82588

>  <SCORE.INTRA.DIHEDRAL>
-11.6827

>  <SCORE.INTRA.DIHEDRAL.0>
13.2525

>  <SCORE.INTRA.POLAR>
0

>  <SCORE.INTRA.POLAR.0>
0

>  <SCORE.INTRA.REPUL>
0

>  <SCORE.INTRA.REPUL.0>
0

>  <SCORE.INTRA.SOLV>
0.587629

>  <SCORE.INTRA.SOLV.lig_0>
-70.7221

>  <SCORE.INTRA.VDW>
-0.278322

>  <SCORE.INTRA.VDW.0>
-1.46337

>  <SCORE.INTRA.norm>
-0.242745

>  <SCORE.RESTR>
0

>  <SCORE.RESTR.CAVITY>
0

>  <SCORE.RESTR.norm>
0

>  <SCORE.SYSTEM>
0

>  <SCORE.SYSTEM.CONST>
0

>  <SCORE.SYSTEM.DIHEDRAL>
0

>  <SCORE.SYSTEM.SOLV>
0

>  <SCORE.SYSTEM.norm>
0

>  <SCORE.heavy>
24

>  <SCORE.norm>
-0.911062

>  <RMSD>
17.727

$$$$
ligand
 OpenBabel11021811483D
libRbt.so/2013.1/901 2013/11/27
 24 26  0  0  0  0  0  0  0  0999 V2000
   -5.8508   -0.6426   -7.9790 P   0  0  1  0  0  0  0  0  0  0  0  0
   -4.7058    0.3218   -7.7539 O   0  0  0  0  0  0  0  0  0  0  0  0
   -6.1872   -0.9597   -9.4170 O   0  5  0  0  0  0  0  0  0  0  0  0
   -5.7966   -1.8835   -7.1004 O   0  0  0  0  0  0  0  0  0  0  0  0
   -8.4617   -0.3763   -7.3264 C   0  0  0  0  0  0  0  0  0  0  0  0
   -7.1636    0.2054   -7.5378 O   0  0  0  0  0  0  0  0  0  0  0  0
   -8.4482   -1.2322   -6.0563 C   0  0  1  0  0  0  0  0  0  0  0  0
   -8.0416   -0.4776   -4.9077 O   0  0  0  0  0  0  0  0  0  0  0  0
   -9.7868   -1.8494   -5.6889 C   0  0  1  0  0  0  0  0  0  0  0  0
   -9.8866   -3.1380   -6.3023 O   0  0  0  0  0  0  0  0  0  0  0  0
   -9.7188   -1.9571   -4.1743 C   0  0  1  0  0  0  0  0  0  0  0  0
   -9.0013   -3.1372   -3.7860 O   0  0  0  0  0  0  0  0  0  0  0  0
   -8.8476   -0.7865   -3.7638 C   0  0  2  0  0  0  0  0  0  0  0  0
   -8.4689    4.2966   -3.4884 N   0  0  0  0  0  0  0  0  0  0  0  0
   -7.5151    3.3775   -3.7622 C   0  0  1  0  0  0  0  0  0  0  0  0
   -6.2534    3.7918   -4.0169 N   0  0  0  0  0  0  0  0  0  0  0  0
   -7.8073    2.0560   -3.7836 N   0  0  0  0  0  0  0  0  0  0  0  0
   -9.0729    1.6471   -3.5270 C   0  0  1  0  0  0  0  0  0  0  0  0
  -10.0662    2.5636   -3.2428 C   0  0  2  0  0  0  0  0  0  0  0  0
   -9.7404    3.9148   -3.2279 C   0  0  0  0  0  0  0  0  0  0  0  0
  -10.6068    4.7753   -2.9759 O   0  0  0  0  0  0  0  0  0  0  0  0
  -11.2018    1.8683   -3.0283 N   0  0  0  0  0  0  0  0  0  0  0  0
  -10.9167    0.5544   -3.1843 C   0  0  0  0  0  0  0  0  0  0  0  0
   -9.6200    0.4393   -3.4882 N   0  0  1  0  0  0  0  0  0  0  0  0
  1  2  1  1  0  0  0
  1  3  1  0  0  0  0
  1  4  2  0  0  0  0
  1  6  1  0  0  0  0
  5  6  1  0  0  0  0
  7  5  1  6  0  0  0
  7  8  1  0  0  0  0
  7  9  1  0  0  0  0
  9 10  1  6  0  0  0
  9 11  1  0  0  0  0
 11 12  1  6  0  0  0
 11 13  1  0  0  0  0
 13  8  1  6  0  0  0
 13 24  1  0  0  0  0
 14 15  1  0  0  0  0
 14 20  1  0  0  0  0
 15 16  1  1  0  0  0
 15 17  1  0  0  0  0
 18 17  1  6  0  0  0
 18 19  1  0  0  0  0
 18 24  1  0  0  0  0
 19 20  1  1  0  0  0
 19 22  1  0  0  0  0
 20 21  2  0  0  0  0
 22 23  1  0  0  0  0
 24 23  1  6  0  0  0
M  CHG  1   3  -1
M  END
>  <CHROM.1>
-167.13533517,56.77865970,70.26114783,-43.25522104,-8.26862265,0.42098425
-5.22452187,-0.97066004,0.70681265,0.38025231

>  <Name>
ligand

>  <RI>
0

>  <Rbt.Current_Directory>
/home/itssahil/PROJECTS/Mol_Feturizer/New_Systems/rnas/3SLQ

>  <Rbt.Executable>
rbdock ($Id: //depot/dev/client3/rdock/2013.1/src/exe/rbdock.cxx#4 $)

>  <Rbt.Library>
libRbt.so (2013.1, Build901 2013/11/27)

>  <Rbt.Parameter_File>
/export/apps/rDock/src/rDock_2013.1_src/data/scripts/dock_solv.prm

>  <Rbt.Receptor>
prm/blind_docking_100.prm

>  <SCORE>
-17.94

>  <SCORE.INTER>
-13.3461

>  <SCORE.INTER.CONST>
1

>  <SCORE.INTER.POLAR>
0

>  <SCORE.INTER.ROT>
4

>  <SCORE.INTER.SOLV>
12.3479

>  <SCORE.INTER.VDW>
-19.28

>  <SCORE.INTER.norm>
-0.556088

>  <SCORE.INTRA>
-4.59385

>  <SCORE.INTRA.DIHEDRAL>
-11.2259

>  <SCORE.INTRA.DIHEDRAL.0>
13.2525

>  <SCORE.INTRA.POLAR>
0

>  <SCORE.INTRA.POLAR.0>
0

>  <SCORE.INTRA.REPUL>
0

>  <SCORE.INTRA.REPUL.0>
0

>  <SCORE.INTRA.SOLV>
2.77326

>  <SCORE.INTRA.SOLV.lig_0>
-70.7221

>  <SCORE.INTRA.VDW>
-0.367534

>  <SCORE.INTRA.VDW.0>
-1.46337

>  <SCORE.INTRA.norm>
-0.19141

>  <SCORE.RESTR>
0

>  <SCORE.RESTR.CAVITY>
0

>  <SCORE.RESTR.norm>
0

>  <SCORE.SYSTEM>
0

>  <SCORE.SYSTEM.CONST>
0

>  <SCORE.SYSTEM.DIHEDRAL>
0

>  <SCORE.SYSTEM.SOLV>
0

>  <SCORE.SYSTEM.norm>
0

>  <SCORE.heavy>
24

>  <SCORE.norm>
-0.747498

>  <RMSD>
17.729

$$$$
ligand
 OpenBabel11021811483D
libRbt.so/2013.1/901 2013/11/27
 24 26  0  0  0  0  0  0  0  0999 V2000
   -5.2281    3.7042   -4.7361 P   0  0  1  0  0  0  0  0  0  0  0  0
   -5.4258    4.7782   -3.6877 O   0  0  0  0  0  0  0  0  0  0  0  0
   -4.9027    4.1816   -6.1318 O   0  5  0  0  0  0  0  0  0  0  0  0
   -4.3382    2.5555   -4.2852 O   0  0  0  0  0  0  0  0  0  0  0  0
   -7.5620    2.6283   -3.8940 C   0  0  0  0  0  0  0  0  0  0  0  0
   -6.7196    3.1017   -4.9591 O   0  0  0  0  0  0  0  0  0  0  0  0
   -8.9802    2.3872   -4.4197 C   0  0  1  0  0  0  0  0  0  0  0  0
   -9.0555    1.2100   -5.2338 O   0  0  0  0  0  0  0  0  0  0  0  0
  -10.0378    2.2102   -3.3437 C   0  0  1  0  0  0  0  0  0  0  0  0
  -10.5985    3.4886   -3.0306 O   0  0  0  0  0  0  0  0  0  0  0  0
  -11.0603    1.2999   -4.0041 C   0  0  1  0  0  0  0  0  0  0  0  0
  -11.9484    2.0610   -4.8349 O   0  0  0  0  0  0  0  0  0  0  0  0
  -10.2350    0.4481   -4.9480 C   0  0  2  0  0  0  0  0  0  0  0  0
   -6.7795   -3.2774   -5.4340 N   0  0  0  0  0  0  0  0  0  0  0  0
   -7.0047   -2.2055   -6.2276 C   0  0  1  0  0  0  0  0  0  0  0  0
   -6.2369   -2.0248   -7.3259 N   0  0  0  0  0  0  0  0  0  0  0  0
   -7.9841   -1.3175   -5.9369 N   0  0  0  0  0  0  0  0  0  0  0  0
   -8.7502   -1.5043   -4.8356 C   0  0  1  0  0  0  0  0  0  0  0  0
   -8.5434   -2.5908   -4.0086 C   0  0  2  0  0  0  0  0  0  0  0  0
   -7.5308   -3.4876   -4.3287 C   0  0  0  0  0  0  0  0  0  0  0  0
   -7.3105   -4.4818   -3.6092 O   0  0  0  0  0  0  0  0  0  0  0  0
   -9.4495   -2.5130   -3.0127 N   0  0  0  0  0  0  0  0  0  0  0  0
  -10.1925   -1.4003   -3.2170 C   0  0  0  0  0  0  0  0  0  0  0  0
   -9.7528   -0.7998   -4.3274 N   0  0  1  0  0  0  0  0  0  0  0  0
  1  2  1  1  0  0  0
  1  3  1  0  0  0  0
  1  4  2  0  0  0  0
  1  6  1  0  0  0  0
  5  6  1  0  0  0  0
  7  5  1  1  0  0  0
  7  8  1  0  0  0  0
  7  9  1  0  0  0  0
  9 10  1  6  0  0  0
  9 11  1  0  0  0  0
 11 12  1  6  0  0  0
 11 13  1  0  0  0  0
 13  8  1  1  0  0  0
 13 24  1  0  0  0  0
 14 15  1  0  0  0  0
 14 20  1  0  0  0  0
 15 16  1  6  0  0  0
 15 17  1  0  0  0  0
 18 17  1  1  0  0  0
 18 19  1  0  0  0  0
 18 24  1  0  0  0  0
 19 20  1  6  0  0  0
 19 22  1  0  0  0  0
 20 21  2  0  0  0  0
 22 23  1  0  0  0  0
 24 23  1  1  0  0  0
M  CHG  1   3  -1
M  END
>  <CHROM.1>
-52.63647028,73.60564755,169.11052646,-46.78178395,-7.95534496,0.65044178
-4.58277557,-1.23217194,-0.24618875,-3.05914742

>  <Name>
ligand

>  <RI>
0

>  <Rbt.Current_Directory>
/home/itssahil/PROJECTS/Mol_Feturizer/New_Systems/rnas/3SLQ

>  <Rbt.Executable>
rbdock ($Id: //depot/dev/client3/rdock/2013.1/src/exe/rbdock.cxx#4 $)

>  <Rbt.Library>
libRbt.so (2013.1, Build901 2013/11/27)

>  <Rbt.Parameter_File>
/export/apps/rDock/src/rDock_2013.1_src/data/scripts/dock_solv.prm

>  <Rbt.Receptor>
prm/blind_docking_40.prm

>  <SCORE>
-19.5486

>  <SCORE.INTER>
-13.9928

>  <SCORE.INTER.CONST>
1

>  <SCORE.INTER.POLAR>
0

>  <SCORE.INTER.ROT>
4

>  <SCORE.INTER.SOLV>
13.1321

>  <SCORE.INTER.VDW>
-19.9726

>  <SCORE.INTER.norm>
-0.583034

>  <SCORE.INTRA>
-5.55581

>  <SCORE.INTRA.DIHEDRAL>
-10.739

>  <SCORE.INTRA.DIHEDRAL.0>
13.2525

>  <SCORE.INTRA.POLAR>
0

>  <SCORE.INTRA.POLAR.0>
0

>  <SCORE.INTRA.REPUL>
0

>  <SCORE.INTRA.REPUL.0>
0

>  <SCORE.INTRA.SOLV>
-0.22447

>  <SCORE.INTRA.SOLV.lig_0>
-70.7221

>  <SCORE.INTRA.VDW>
-0.0740559

>  <SCORE.INTRA.VDW.0>
-1.46337

>  <SCORE.INTRA.norm>
-0.231492

>  <SCORE.RESTR>
0

>  <SCORE.RESTR.CAVITY>
0

>  <SCORE.RESTR.norm>
0

>  <SCORE.SYSTEM>
0

>  <SCORE.SYSTEM.CONST>
0

>  <SCORE.SYSTEM.DIHEDRAL>
0

>  <SCORE.SYSTEM.SOLV>
0

>  <SCORE.SYSTEM.norm>
0

>  <SCORE.heavy>
24

>  <SCORE.norm>
-0.814526

>  <RMSD>
17.735

$$$$
ligand
 OpenBabel11021811483D
libRbt.so/2013.1/901 2013/11/27
 24 26  0  0  0  0  0  0  0  0999 V2000
  -13.7914    0.0499   -2.7303 P   0  0  1  0  0  0  0  0  0  0  0  0
  -14.4370   -0.7350   -3.8521 O   0  0  0  0  0  0  0  0  0  0  0  0
  -14.4220    1.3808   -2.3940 O   0  5  0  0  0  0  0  0  0  0  0  0
  -13.4769   -0.7805   -1.4950 O   0  0  0  0  0  0  0  0  0  0  0  0
  -11.1545   -0.2208   -3.2663 C   0  0  0  0  0  0  0  0  0  0  0  0
  -12.3753    0.5335   -3.3612 O   0  0  0  0  0  0  0  0  0  0  0  0
  -10.0329    0.5075   -4.0130 C   0  0  1  0  0  0  0  0  0  0  0  0
   -8.7513   -0.0809   -3.7579 O   0  0  0  0  0  0  0  0  0  0  0  0
  -10.1815    0.5278   -5.5247 C   0  0  1  0  0  0  0  0  0  0  0  0
  -10.9077    1.7010   -5.9030 O   0  0  0  0  0  0  0  0  0  0  0  0
   -8.7444    0.5790   -6.0171 C   0  0  1  0  0  0  0  0  0  0  0  0
   -8.2510    1.9259   -5.9884 O   0  0  0  0  0  0  0  0  0  0  0  0
   -7.9673   -0.1716   -4.9540 C   0  0  2  0  0  0  0  0  0  0  0  0
   -5.3196   -3.5969   -7.6583 N   0  0  0  0  0  0  0  0  0  0  0  0
   -5.1988   -2.2502   -7.6239 C   0  0  1  0  0  0  0  0  0  0  0  0
   -4.2555   -1.6528   -8.3867 N   0  0  0  0  0  0  0  0  0  0  0  0
   -6.0064   -1.4985   -6.8399 N   0  0  0  0  0  0  0  0  0  0  0  0
   -6.9498   -2.1028   -6.0785 C   0  0  1  0  0  0  0  0  0  0  0  0
   -7.0965   -3.4759   -6.0953 C   0  0  2  0  0  0  0  0  0  0  0  0
   -6.2540   -4.2252   -6.9083 C   0  0  0  0  0  0  0  0  0  0  0  0
   -6.3526   -5.4673   -6.9534 O   0  0  0  0  0  0  0  0  0  0  0  0
   -8.1050   -3.7803   -5.2533 N   0  0  0  0  0  0  0  0  0  0  0  0
   -8.5643   -2.6223   -4.7240 C   0  0  0  0  0  0  0  0  0  0  0  0
   -7.8501   -1.6146   -5.2354 N   0  0  1  0  0  0  0  0  0  0  0  0
  1  2  1  6  0  0  0
  1  3  1  0  0  0  0
  1  4  2  0  0  0  0
  1  6  1  0  0  0  0
  5  6  1  0  0  0  0
  7  5  1  1  0  0  0
  7  8  1  0  0  0  0
  7  9  1  0  0  0  0
  9 10  1  1  0  0  0
  9 11  1  0  0  0  0
 11 12  1  1  0  0  0
 11 13  1  0  0  0  0
 13  8  1  1  0  0  0
 13 24  1  0  0  0  0
 14 15  1  0  0  0  0
 14 20  1  0  0  0  0
 15 16  1  6  0  0  0
 15 17  1  0  0  0  0
 18 17  1  1  0  0  0
 18 19  1  0  0  0  0
 18 24  1  0  0  0  0
 19 20  1  6  0  0  0
 19 22  1  0  0  0  0
 20 21  2  0  0  0  0
 22 23  1  0  0  0  0
 24 23  1  1  0  0  0
M  CHG  1   3  -1
M  END
>  <CHROM.1>
-90.41655397,170.03186873,178.00276583,-164.10869506,-9.40072686,-0.99529818
-5.01634138,2.83366457,0.54057828,-0.12501578

>  <Name>
ligand

>  <RI>
0

>  <Rbt.Current_Directory>
/home/itssahil/PROJECTS/Mol_Feturizer/New_Systems/rnas/3SLQ

>  <Rbt.Executable>
rbdock ($Id: //depot/dev/client3/rdock/2013.1/src/exe/rbdock.cxx#4 $)

>  <Rbt.Library>
libRbt.so (2013.1, Build901 2013/11/27)

>  <Rbt.Parameter_File>
/export/apps/rDock/src/rDock_2013.1_src/data/scripts/dock_solv.prm

>  <Rbt.Receptor>
prm/blind_docking_60.prm

>  <SCORE>
-19.3945

>  <SCORE.INTER>
-13.9653

>  <SCORE.INTER.CONST>
1

>  <SCORE.INTER.POLAR>
0

>  <SCORE.INTER.ROT>
4

>  <SCORE.INTER.SOLV>
17.6377

>  <SCORE.INTER.VDW>
-21.4561

>  <SCORE.INTER.norm>
-0.581888

>  <SCORE.INTRA>
-5.42921

>  <SCORE.INTRA.DIHEDRAL>
-10.4428

>  <SCORE.INTRA.DIHEDRAL.0>
13.2525

>  <SCORE.INTRA.POLAR>
0

>  <SCORE.INTRA.POLAR.0>
0

>  <SCORE.INTRA.REPUL>
0

>  <SCORE.INTRA.REPUL.0>
0

>  <SCORE.INTRA.SOLV>
0.186441

>  <SCORE.INTRA.SOLV.lig_0>
-70.7221

>  <SCORE.INTRA.VDW>
-0.301011

>  <SCORE.INTRA.VDW.0>
-1.46337

>  <SCORE.INTRA.norm>
-0.226217

>  <SCORE.RESTR>
0

>  <SCORE.RESTR.CAVITY>
0

>  <SCORE.RESTR.norm>
0

>  <SCORE.SYSTEM>
0

>  <SCORE.SYSTEM.CONST>
0

>  <SCORE.SYSTEM.DIHEDRAL>
0

>  <SCORE.SYSTEM.SOLV>
0

>  <SCORE.SYSTEM.norm>
0

>  <SCORE.heavy>
24

>  <SCORE.norm>
-0.808105

>  <RMSD>
17.735

$$$$
ligand
 OpenBabel11021811483D
libRbt.so/2013.1/901 2013/11/27
 24 26  0  0  0  0  0  0  0  0999 V2000
   -5.9900    0.1710   -7.0518 P   0  0  1  0  0  0  0  0  0  0  0  0
   -6.0673   -1.1787   -6.3708 O   0  0  0  0  0  0  0  0  0  0  0  0
   -4.7594    0.9981   -6.7629 O   0  5  0  0  0  0  0  0  0  0  0  0
   -6.3427    0.1388   -8.5314 O   0  0  0  0  0  0  0  0  0  0  0  0
   -8.5204    0.6804   -6.2448 C   0  0  0  0  0  0  0  0  0  0  0  0
   -7.1315    1.0492   -6.3015 O   0  0  0  0  0  0  0  0  0  0  0  0
   -9.3225    1.7788   -5.5407 C   0  0  1  0  0  0  0  0  0  0  0  0
  -10.7264    1.4904   -5.5278 O   0  0  0  0  0  0  0  0  0  0  0  0
   -8.9395    2.0182   -4.0903 C   0  0  1  0  0  0  0  0  0  0  0  0
   -7.9219    3.0225   -4.0398 O   0  0  0  0  0  0  0  0  0  0  0  0
  -10.2349    2.5054   -3.4618 C   0  0  1  0  0  0  0  0  0  0  0  0
  -10.4163    3.9073   -3.7070 O   0  0  0  0  0  0  0  0  0  0  0  0
  -11.3148    1.8005   -4.2585 C   0  0  2  0  0  0  0  0  0  0  0  0
  -14.1607   -0.3520   -0.6082 N   0  0  0  0  0  0  0  0  0  0  0  0
  -13.9800    0.9569   -0.8971 C   0  0  1  0  0  0  0  0  0  0  0  0
  -14.6199    1.8903   -0.1569 N   0  0  0  0  0  0  0  0  0  0  0  0
  -13.1707    1.3408   -1.9119 N   0  0  0  0  0  0  0  0  0  0  0  0
  -12.5319    0.4011   -2.6493 C   0  0  1  0  0  0  0  0  0  0  0  0
  -12.6968   -0.9425   -2.3755 C   0  0  2  0  0  0  0  0  0  0  0  0
  -13.5339   -1.3104   -1.3287 C   0  0  0  0  0  0  0  0  0  0  0  0
  -13.7106   -2.5123   -1.0476 O   0  0  0  0  0  0  0  0  0  0  0  0
  -11.9419   -1.6259   -3.2598 N   0  0  0  0  0  0  0  0  0  0  0  0
  -11.3320   -0.7248   -4.0647 C   0  0  0  0  0  0  0  0  0  0  0  0
  -11.7031    0.5005   -3.6802 N   0  0  1  0  0  0  0  0  0  0  0  0
  1  2  1  1  0  0  0
  1  3  1  0  0  0  0
  1  4  2  0  0  0  0
  1  6  1  0  0  0  0
  5  6  1  0  0  0  0
  7  5  1  1  0  0  0
  7  8  1  0  0  0  0
  7  9  1  0  0  0  0
  9 10  1  6  0  0  0
  9 11  1  0  0  0  0
 11 12  1  6  0  0  0
 11 13  1  0  0  0  0
 13  8  1  6  0  0  0
 13 24  1  0  0  0  0
 14 15  1  0  0  0  0
 14 20  1  0  0  0  0
 15 16  1  1  0  0  0
 15 17  1  0  0  0  0
 18 17  1  6  0  0  0
 18 19  1  0  0  0  0
 18 24  1  0  0  0  0
 19 20  1  1  0  0  0
 19 22  1  0  0  0  0
 20 21  2  0  0  0  0
 22 23  1  0  0  0  0
 24 23  1  6  0  0  0
M  CHG  1   3  -1
M  END
>  <CHROM.1>
-57.83811583,176.68007789,-176.29616471,-165.07277853,-10.09378633,0.66470957
-4.16466267,-0.00459549,-0.64620685,-3.04083110

>  <Name>
ligand

>  <RI>
0

>  <Rbt.Current_Directory>
/home/itssahil/PROJECTS/Mol_Feturizer/New_Systems/rnas/3SLQ

>  <Rbt.Executable>
rbdock ($Id: //depot/dev/client3/rdock/2013.1/src/exe/rbdock.cxx#4 $)

>  <Rbt.Library>
libRbt.so (2013.1, Build901 2013/11/27)

>  <Rbt.Parameter_File>
/export/apps/rDock/src/rDock_2013.1_src/data/scripts/dock_solv.prm

>  <Rbt.Receptor>
prm/blind_docking_60.prm

>  <SCORE>
-22.3828

>  <SCORE.INTER>
-16.0725

>  <SCORE.INTER.CONST>
1

>  <SCORE.INTER.POLAR>
0

>  <SCORE.INTER.ROT>
4

>  <SCORE.INTER.SOLV>
11.9082

>  <SCORE.INTER.VDW>
-20.9511

>  <SCORE.INTER.norm>
-0.669688

>  <SCORE.INTRA>
-6.31029

>  <SCORE.INTRA.DIHEDRAL>
-11.921

>  <SCORE.INTRA.DIHEDRAL.0>
13.2525

>  <SCORE.INTRA.POLAR>
0

>  <SCORE.INTRA.POLAR.0>
0

>  <SCORE.INTRA.REPUL>
0

>  <SCORE.INTRA.REPUL.0>
0

>  <SCORE.INTRA.SOLV>
-0.0100887

>  <SCORE.INTRA.SOLV.lig_0>
-70.7221

>  <SCORE.INTRA.VDW>
-0.344723

>  <SCORE.INTRA.VDW.0>
-1.46337

>  <SCORE.INTRA.norm>
-0.262929

>  <SCORE.RESTR>
0

>  <SCORE.RESTR.CAVITY>
0

>  <SCORE.RESTR.norm>
0

>  <SCORE.SYSTEM>
0

>  <SCORE.SYSTEM.CONST>
0

>  <SCORE.SYSTEM.DIHEDRAL>
0

>  <SCORE.SYSTEM.SOLV>
0

>  <SCORE.SYSTEM.norm>
0

>  <SCORE.heavy>
24

>  <SCORE.norm>
-0.932617

>  <RMSD>
17.739

$$$$
ligand
 OpenBabel11021811483D
libRbt.so/2013.1/901 2013/11/27
 24 26  0  0  0  0  0  0  0  0999 V2000
   -5.9701    0.1945   -7.0505 P   0  0  1  0  0  0  0  0  0  0  0  0
   -6.0277   -1.1484   -6.3542 O   0  0  0  0  0  0  0  0  0  0  0  0
   -4.7503    1.0414   -6.7735 O   0  5  0  0  0  0  0  0  0  0  0  0
   -6.3253    0.1408   -8.5288 O   0  0  0  0  0  0  0  0  0  0  0  0
   -8.5045    0.6755   -6.2386 C   0  0  0  0  0  0  0  0  0  0  0  0
   -7.1219    1.0655   -6.3077 O   0  0  0  0  0  0  0  0  0  0  0  0
   -9.3218    1.7741   -5.5524 C   0  0  1  0  0  0  0  0  0  0  0  0
  -10.7238    1.4767   -5.5536 O   0  0  0  0  0  0  0  0  0  0  0  0
   -8.9573    2.0270   -4.0995 C   0  0  1  0  0  0  0  0  0  0  0  0
   -7.9467    3.0382   -4.0449 O   0  0  0  0  0  0  0  0  0  0  0  0
  -10.2630    2.5106   -3.4900 C   0  0  1  0  0  0  0  0  0  0  0  0
  -10.4504    3.9094   -3.7480 O   0  0  0  0  0  0  0  0  0  0  0  0
  -11.3290    1.7927   -4.2937 C   0  0  2  0  0  0  0  0  0  0  0  0
  -14.1521   -0.3464   -0.6180 N   0  0  0  0  0  0  0  0  0  0  0  0
  -13.9708    0.9616   -0.9108 C   0  0  1  0  0  0  0  0  0  0  0  0
  -14.6032    1.8978   -0.1677 N   0  0  0  0  0  0  0  0  0  0  0  0
  -13.1683    1.3416   -1.9324 N   0  0  0  0  0  0  0  0  0  0  0  0
  -12.5371    0.3991   -2.6727 C   0  0  1  0  0  0  0  0  0  0  0  0
  -12.7028   -0.9435   -2.3950 C   0  0  2  0  0  0  0  0  0  0  0  0
  -13.5329   -1.3076   -1.3412 C   0  0  0  0  0  0  0  0  0  0  0  0
  -13.7100   -2.5085   -1.0565 O   0  0  0  0  0  0  0  0  0  0  0  0
  -11.9560   -1.6304   -3.2836 N   0  0  0  0  0  0  0  0  0  0  0  0
  -11.3502   -0.7322   -4.0948 C   0  0  0  0  0  0  0  0  0  0  0  0
  -11.7158    0.4947   -3.7100 N   0  0  1  0  0  0  0  0  0  0  0  0
  1  2  1  1  0  0  0
  1  3  1  0  0  0  0
  1  4  2  0  0  0  0
  1  6  1  0  0  0  0
  5  6  1  0  0  0  0
  7  5  1  1  0  0  0
  7  8  1  0  0  0  0
  7  9  1  0  0  0  0
  9 10  1  6  0  0  0
  9 11  1  0  0  0  0
 11 12  1  6  0  0  0
 11 13  1  0  0  0  0
 13  8  1  6  0  0  0
 13 24  1  0  0  0  0
 14 15  1  0  0  0  0
 14 20  1  0  0  0  0
 15 16  1  1  0  0  0
 15 17  1  0  0  0  0
 18 17  1  6  0  0  0
 18 19  1  0  0  0  0
 18 24  1  0  0  0  0
 19 20  1  1  0  0  0
 19 22  1  0  0  0  0
 20 21  2  0  0  0  0
 22 23  1  0  0  0  0
 24 23  1  6  0  0  0
M  CHG  1   3  -1
M  END
>  <CHROM.1>
-57.54317020,175.45055349,-176.05073801,-166.31967421,-10.09332375,0.67116497
-4.17800733,-0.00983167,-0.64397881,-3.04605113

>  <Name>
ligand

>  <RI>
0

>  <Rbt.Current_Directory>
/home/itssahil/PROJECTS/Mol_Feturizer/New_Systems/rnas/3SLQ

>  <Rbt.Executable>
rbdock ($Id: //depot/dev/client3/rdock/2013.1/src/exe/rbdock.cxx#4 $)

>  <Rbt.Library>
libRbt.so (2013.1, Build901 2013/11/27)

>  <Rbt.Parameter_File>
/export/apps/rDock/src/rDock_2013.1_src/data/scripts/dock_solv.prm

>  <Rbt.Receptor>
prm/blind_docking_100.prm

>  <SCORE>
-22.4281

>  <SCORE.INTER>
-16.1417

>  <SCORE.INTER.CONST>
1

>  <SCORE.INTER.POLAR>
0

>  <SCORE.INTER.ROT>
4

>  <SCORE.INTER.SOLV>
11.9902

>  <SCORE.INTER.VDW>
-21.0245

>  <SCORE.INTER.norm>
-0.67257

>  <SCORE.INTRA>
-6.28642

>  <SCORE.INTRA.DIHEDRAL>
-11.8756

>  <SCORE.INTRA.DIHEDRAL.0>
13.2525

>  <SCORE.INTRA.POLAR>
0

>  <SCORE.INTRA.POLAR.0>
0

>  <SCORE.INTRA.REPUL>
0

>  <SCORE.INTRA.REPUL.0>
0

>  <SCORE.INTRA.SOLV>
-0.0172303

>  <SCORE.INTRA.SOLV.lig_0>
-70.7221

>  <SCORE.INTRA.VDW>
-0.34001

>  <SCORE.INTRA.VDW.0>
-1.46337

>  <SCORE.INTRA.norm>
-0.261934

>  <SCORE.RESTR>
0

>  <SCORE.RESTR.CAVITY>
0

>  <SCORE.RESTR.norm>
0

>  <SCORE.SYSTEM>
0

>  <SCORE.SYSTEM.CONST>
0

>  <SCORE.SYSTEM.DIHEDRAL>
0

>  <SCORE.SYSTEM.SOLV>
0

>  <SCORE.SYSTEM.norm>
0

>  <SCORE.heavy>
24

>  <SCORE.norm>
-0.934505

>  <RMSD>
17.752

$$$$
ligand
 OpenBabel11021811483D
libRbt.so/2013.1/901 2013/11/27
 24 26  0  0  0  0  0  0  0  0999 V2000
   -6.0218    0.1669   -7.1413 P   0  0  1  0  0  0  0  0  0  0  0  0
   -6.1026   -1.1932   -6.4817 O   0  0  0  0  0  0  0  0  0  0  0  0
   -4.7779    0.9761   -6.8588 O   0  5  0  0  0  0  0  0  0  0  0  0
   -6.3987    0.1634   -8.6153 O   0  0  0  0  0  0  0  0  0  0  0  0
   -8.5276    0.6736   -6.2593 C   0  0  0  0  0  0  0  0  0  0  0  0
   -7.1415    1.0442   -6.3579 O   0  0  0  0  0  0  0  0  0  0  0  0
   -9.3111    1.7748   -5.5387 C   0  0  1  0  0  0  0  0  0  0  0  0
  -10.7188    1.5058   -5.5226 O   0  0  0  0  0  0  0  0  0  0  0  0
   -8.9183    1.9918   -4.0874 C   0  0  1  0  0  0  0  0  0  0  0  0
   -7.8864    2.9811   -4.0299 O   0  0  0  0  0  0  0  0  0  0  0  0
  -10.2038    2.4896   -3.4473 C   0  0  1  0  0  0  0  0  0  0  0  0
  -10.3667    3.8966   -3.6752 O   0  0  0  0  0  0  0  0  0  0  0  0
  -11.2971    1.8092   -4.2470 C   0  0  2  0  0  0  0  0  0  0  0  0
  -14.1691   -0.3466   -0.6192 N   0  0  0  0  0  0  0  0  0  0  0  0
  -13.9728    0.9630   -0.8946 C   0  0  1  0  0  0  0  0  0  0  0  0
  -14.6017    1.8963   -0.1450 N   0  0  0  0  0  0  0  0  0  0  0  0
  -13.1588    1.3475   -1.9054 N   0  0  0  0  0  0  0  0  0  0  0  0
  -12.5311    0.4079   -2.6524 C   0  0  1  0  0  0  0  0  0  0  0  0
  -12.7120   -0.9363   -2.3924 C   0  0  2  0  0  0  0  0  0  0  0  0
  -13.5537   -1.3050   -1.3495 C   0  0  0  0  0  0  0  0  0  0  0  0
  -13.7447   -2.5075   -1.0808 O   0  0  0  0  0  0  0  0  0  0  0  0
  -11.9652   -1.6196   -3.2836 N   0  0  0  0  0  0  0  0  0  0  0  0
  -11.3444   -0.7176   -4.0792 C   0  0  0  0  0  0  0  0  0  0  0  0
  -11.7010    0.5081   -3.6822 N   0  0  1  0  0  0  0  0  0  0  0  0
  1  2  1  1  0  0  0
  1  3  1  0  0  0  0
  1  4  2  0  0  0  0
  1  6  1  0  0  0  0
  5  6  1  0  0  0  0
  7  5  1  1  0  0  0
  7  8  1  0  0  0  0
  7  9  1  0  0  0  0
  9 10  1  6  0  0  0
  9 11  1  0  0  0  0
 11 12  1  6  0  0  0
 11 13  1  0  0  0  0
 13  8  1  6  0  0  0
 13 24  1  0  0  0  0
 14 15  1  0  0  0  0
 14 20  1  0  0  0  0
 15 16  1  1  0  0  0
 15 17  1  0  0  0  0
 18 17  1  6  0  0  0
 18 19  1  0  0  0  0
 18 24  1  0  0  0  0
 19 20  1  1  0  0  0
 19 22  1  0  0  0  0
 20 21  2  0  0  0  0
 22 23  1  0  0  0  0
 24 23  1  6  0  0  0
M  CHG  1   3  -1
M  END
>  <CHROM.1>
-56.38615071,174.75716268,-176.01194944,-164.76720146,-10.09793835,0.66285284
-4.18942649,0.01612065,-0.65312154,-3.01037712

>  <Name>
ligand

>  <RI>
0

>  <Rbt.Current_Directory>
/home/itssahil/PROJECTS/Mol_Feturizer/New_Systems/rnas/3SLQ

>  <Rbt.Executable>
rbdock ($Id: //depot/dev/client3/rdock/2013.1/src/exe/rbdock.cxx#4 $)

>  <Rbt.Library>
libRbt.so (2013.1, Build901 2013/11/27)

>  <Rbt.Parameter_File>
/export/apps/rDock/src/rDock_2013.1_src/data/scripts/dock_solv.prm

>  <Rbt.Receptor>
prm/blind_docking_20.prm

>  <SCORE>
-22.2963

>  <SCORE.INTER>
-16.0159

>  <SCORE.INTER.CONST>
1

>  <SCORE.INTER.POLAR>
0

>  <SCORE.INTER.ROT>
4

>  <SCORE.INTER.SOLV>
11.5761

>  <SCORE.INTER.VDW>
-20.8027

>  <SCORE.INTER.norm>
-0.667331

>  <SCORE.INTRA>
-6.28034

>  <SCORE.INTRA.DIHEDRAL>
-11.8367

>  <SCORE.INTRA.DIHEDRAL.0>
13.2525

>  <SCORE.INTRA.POLAR>
0

>  <SCORE.INTRA.POLAR.0>
0

>  <SCORE.INTRA.REPUL>
0

>  <SCORE.INTRA.REPUL.0>
0

>  <SCORE.INTRA.SOLV>
-0.0286334

>  <SCORE.INTRA.SOLV.lig_0>
-70.7221

>  <SCORE.INTRA.VDW>
-0.347669

>  <SCORE.INTRA.VDW.0>
-1.46337

>  <SCORE.INTRA.norm>
-0.261681

>  <SCORE.RESTR>
0

>  <SCORE.RESTR.CAVITY>
0

>  <SCORE.RESTR.norm>
0

>  <SCORE.SYSTEM>
0

>  <SCORE.SYSTEM.CONST>
0

>  <SCORE.SYSTEM.DIHEDRAL>
0

>  <SCORE.SYSTEM.SOLV>
0

>  <SCORE.SYSTEM.norm>
0

>  <SCORE.heavy>
24

>  <SCORE.norm>
-0.929012

>  <RMSD>
17.761

$$$$
ligand
 OpenBabel11021811483D
libRbt.so/2013.1/901 2013/11/27
 24 26  0  0  0  0  0  0  0  0999 V2000
   -5.9928    0.0573   -7.0907 P   0  0  1  0  0  0  0  0  0  0  0  0
   -4.6658    0.6543   -6.6734 O   0  0  0  0  0  0  0  0  0  0  0  0
   -6.4069    0.2812   -8.5261 O   0  5  0  0  0  0  0  0  0  0  0  0
   -6.1938   -1.3813   -6.6384 O   0  0  0  0  0  0  0  0  0  0  0  0
   -8.4929    0.6605   -6.2544 C   0  0  0  0  0  0  0  0  0  0  0  0
   -7.0890    0.9671   -6.3110 O   0  0  0  0  0  0  0  0  0  0  0  0
   -9.2375    1.7665   -5.5008 C   0  0  1  0  0  0  0  0  0  0  0  0
  -10.6558    1.5607   -5.5141 O   0  0  0  0  0  0  0  0  0  0  0  0
   -8.8573    1.9083   -4.0368 C   0  0  1  0  0  0  0  0  0  0  0  0
   -7.7835    2.8472   -3.9261 O   0  0  0  0  0  0  0  0  0  0  0  0
  -10.1289    2.4377   -3.3944 C   0  0  1  0  0  0  0  0  0  0  0  0
  -10.2257    3.8586   -3.5679 O   0  0  0  0  0  0  0  0  0  0  0  0
  -11.2392    1.8392   -4.2352 C   0  0  2  0  0  0  0  0  0  0  0  0
  -14.2344   -0.3274   -0.7152 N   0  0  0  0  0  0  0  0  0  0  0  0
  -13.9735    0.9817   -0.9334 C   0  0  1  0  0  0  0  0  0  0  0  0
  -14.5614    1.9115   -0.1471 N   0  0  0  0  0  0  0  0  0  0  0  0
  -13.1356    1.3690   -1.9233 N   0  0  0  0  0  0  0  0  0  0  0  0
  -12.5493    0.4328   -2.7072 C   0  0  1  0  0  0  0  0  0  0  0  0
  -12.7964   -0.9110   -2.5058 C   0  0  2  0  0  0  0  0  0  0  0  0
  -13.6614   -1.2825   -1.4832 C   0  0  0  0  0  0  0  0  0  0  0  0
  -13.9118   -2.4847   -1.2670 O   0  0  0  0  0  0  0  0  0  0  0  0
  -12.0778   -1.5911   -3.4223 N   0  0  0  0  0  0  0  0  0  0  0  0
  -11.4093   -0.6872   -4.1759 C   0  0  0  0  0  0  0  0  0  0  0  0
  -11.7088    0.5363   -3.7283 N   0  0  1  0  0  0  0  0  0  0  0  0
  1  2  1  1  0  0  0
  1  3  1  0  0  0  0
  1  4  2  0  0  0  0
  1  6  1  0  0  0  0
  5  6  1  0  0  0  0
  7  5  1  1  0  0  0
  7  8  1  0  0  0  0
  7  9  1  0  0  0  0
  9 10  1  6  0  0  0
  9 11  1  0  0  0  0
 11 12  1  6  0  0  0
 11 13  1  0  0  0  0
 13  8  1  6  0  0  0
 13 24  1  0  0  0  0
 14 15  1  0  0  0  0
 14 20  1  0  0  0  0
 15 16  1  1  0  0  0
 15 17  1  0  0  0  0
 18 17  1  6  0  0  0
 18 19  1  0  0  0  0
 18 24  1  0  0  0  0
 19 20  1  1  0  0  0
 19 22  1  0  0  0  0
 20 21  2  0  0  0  0
 22 23  1  0  0  0  0
 24 23  1  6  0  0  0
M  CHG  1   3  -1
M  END
>  <CHROM.1>
-171.07129854,175.19021561,-177.07022926,-165.34399714,-10.08915281,0.63179103
-4.19693671,0.06719271,-0.63157949,-2.94554767

>  <Name>
ligand

>  <RI>
0

>  <Rbt.Current_Directory>
/home/itssahil/PROJECTS/Mol_Feturizer/New_Systems/rnas/3SLQ

>  <Rbt.Executable>
rbdock ($Id: //depot/dev/client3/rdock/2013.1/src/exe/rbdock.cxx#4 $)

>  <Rbt.Library>
libRbt.so (2013.1, Build901 2013/11/27)

>  <Rbt.Parameter_File>
/export/apps/rDock/src/rDock_2013.1_src/data/scripts/dock_solv.prm

>  <Rbt.Receptor>
prm/blind_docking_100.prm

>  <SCORE>
-21.8447

>  <SCORE.INTER>
-15.9303

>  <SCORE.INTER.CONST>
1

>  <SCORE.INTER.POLAR>
0

>  <SCORE.INTER.ROT>
4

>  <SCORE.INTER.SOLV>
11.6281

>  <SCORE.INTER.VDW>
-20.7629

>  <SCORE.INTER.norm>
-0.663763

>  <SCORE.INTRA>
-5.91435

>  <SCORE.INTRA.DIHEDRAL>
-11.7803

>  <SCORE.INTRA.DIHEDRAL.0>
13.2525

>  <SCORE.INTRA.POLAR>
0

>  <SCORE.INTRA.POLAR.0>
0

>  <SCORE.INTRA.REPUL>
0

>  <SCORE.INTRA.REPUL.0>
0

>  <SCORE.INTRA.SOLV>
0.582416

>  <SCORE.INTRA.SOLV.lig_0>
-70.7221

>  <SCORE.INTRA.VDW>
-0.315399

>  <SCORE.INTRA.VDW.0>
-1.46337

>  <SCORE.INTRA.norm>
-0.246431

>  <SCORE.RESTR>
0

>  <SCORE.RESTR.CAVITY>
0

>  <SCORE.RESTR.norm>
0

>  <SCORE.SYSTEM>
0

>  <SCORE.SYSTEM.CONST>
0

>  <SCORE.SYSTEM.DIHEDRAL>
0

>  <SCORE.SYSTEM.SOLV>
0

>  <SCORE.SYSTEM.norm>
0

>  <SCORE.heavy>
24

>  <SCORE.norm>
-0.910194

>  <RMSD>
17.763

$$$$
ligand
 OpenBabel11021811483D
libRbt.so/2013.1/901 2013/11/27
 24 26  0  0  0  0  0  0  0  0999 V2000
  -13.7697    0.0369   -2.7417 P   0  0  1  0  0  0  0  0  0  0  0  0
  -14.4308   -0.7283   -3.8682 O   0  0  0  0  0  0  0  0  0  0  0  0
  -14.3866    1.3683   -2.3832 O   0  5  0  0  0  0  0  0  0  0  0  0
  -13.4522   -0.8120   -1.5198 O   0  0  0  0  0  0  0  0  0  0  0  0
  -11.1399   -0.2487   -3.3037 C   0  0  0  0  0  0  0  0  0  0  0  0
  -12.3549    0.5171   -3.3779 O   0  0  0  0  0  0  0  0  0  0  0  0
  -10.0168    0.4832   -4.0444 C   0  0  1  0  0  0  0  0  0  0  0  0
   -8.7388   -0.1212   -3.8091 O   0  0  0  0  0  0  0  0  0  0  0  0
  -10.1753    0.5329   -5.5545 C   0  0  1  0  0  0  0  0  0  0  0  0
  -10.8934    1.7194   -5.9059 O   0  0  0  0  0  0  0  0  0  0  0  0
   -8.7411    0.5805   -6.0557 C   0  0  1  0  0  0  0  0  0  0  0  0
   -8.2354    1.9222   -6.0054 O   0  0  0  0  0  0  0  0  0  0  0  0
   -7.9637   -0.1967   -5.0120 C   0  0  2  0  0  0  0  0  0  0  0  0
   -5.3411   -3.5989   -7.7694 N   0  0  0  0  0  0  0  0  0  0  0  0
   -5.2052   -2.2546   -7.7081 C   0  0  1  0  0  0  0  0  0  0  0  0
   -4.2512   -1.6533   -8.4544 N   0  0  0  0  0  0  0  0  0  0  0  0
   -6.0083   -1.5090   -6.9136 N   0  0  0  0  0  0  0  0  0  0  0  0
   -6.9624   -2.1172   -6.1689 C   0  0  1  0  0  0  0  0  0  0  0  0
   -7.1246   -3.4879   -6.2132 C   0  0  2  0  0  0  0  0  0  0  0  0
   -6.2865   -4.2309   -7.0364 C   0  0  0  0  0  0  0  0  0  0  0  0
   -6.3990   -5.4707   -7.1062 O   0  0  0  0  0  0  0  0  0  0  0  0
   -8.1409   -3.7970   -5.3822 N   0  0  0  0  0  0  0  0  0  0  0  0
   -8.5897   -2.6444   -4.8328 C   0  0  0  0  0  0  0  0  0  0  0  0
   -7.8615   -1.6352   -5.3209 N   0  0  1  0  0  0  0  0  0  0  0  0
  1  2  1  6  0  0  0
  1  3  1  0  0  0  0
  1  4  2  0  0  0  0
  1  6  1  0  0  0  0
  5  6  1  0  0  0  0
  7  5  1  1  0  0  0
  7  8  1  0  0  0  0
  7  9  1  0  0  0  0
  9 10  1  1  0  0  0
  9 11  1  0  0  0  0
 11 12  1  1  0  0  0
 11 13  1  0  0  0  0
 13  8  1  1  0  0  0
 13 24  1  0  0  0  0
 14 15  1  0  0  0  0
 14 20  1  0  0  0  0
 15 16  1  6  0  0  0
 15 17  1  0  0  0  0
 18 17  1  1  0  0  0
 18 19  1  0  0  0  0
 18 24  1  0  0  0  0
 19 20  1  6  0  0  0
 19 22  1  0  0  0  0
 20 21  2  0  0  0  0
 22 23  1  0  0  0  0
 24 23  1  1  0  0  0
M  CHG  1   3  -1
M  END
>  <CHROM.1>
-90.36422588,170.11745752,178.25690407,-163.41230734,-9.39963047,-1.00679466
-5.07310604,2.82367731,0.54553253,-0.10156058

>  <Name>
ligand

>  <RI>
0

>  <Rbt.Current_Directory>
/home/itssahil/PROJECTS/Mol_Feturizer/New_Systems/rnas/3SLQ

>  <Rbt.Executable>
rbdock ($Id: //depot/dev/client3/rdock/2013.1/src/exe/rbdock.cxx#4 $)

>  <Rbt.Library>
libRbt.so (2013.1, Build901 2013/11/27)

>  <Rbt.Parameter_File>
/export/apps/rDock/src/rDock_2013.1_src/data/scripts/dock_solv.prm

>  <Rbt.Receptor>
prm/blind_docking_100.prm

>  <SCORE>
-19.3732

>  <SCORE.INTER>
-13.9328

>  <SCORE.INTER.CONST>
1

>  <SCORE.INTER.POLAR>
0

>  <SCORE.INTER.ROT>
4

>  <SCORE.INTER.SOLV>
17.3498

>  <SCORE.INTER.VDW>
-21.3385

>  <SCORE.INTER.norm>
-0.580534

>  <SCORE.INTRA>
-5.44039

>  <SCORE.INTRA.DIHEDRAL>
-10.4562

>  <SCORE.INTRA.DIHEDRAL.0>
13.2525

>  <SCORE.INTRA.POLAR>
0

>  <SCORE.INTRA.POLAR.0>
0

>  <SCORE.INTRA.REPUL>
0

>  <SCORE.INTRA.REPUL.0>
0

>  <SCORE.INTRA.SOLV>
0.185856

>  <SCORE.INTRA.SOLV.lig_0>
-70.7221

>  <SCORE.INTRA.VDW>
-0.305225

>  <SCORE.INTRA.VDW.0>
-1.46337

>  <SCORE.INTRA.norm>
-0.226683

>  <SCORE.RESTR>
0

>  <SCORE.RESTR.CAVITY>
0

>  <SCORE.RESTR.norm>
0

>  <SCORE.SYSTEM>
0

>  <SCORE.SYSTEM.CONST>
0

>  <SCORE.SYSTEM.DIHEDRAL>
0

>  <SCORE.SYSTEM.SOLV>
0

>  <SCORE.SYSTEM.norm>
0

>  <SCORE.heavy>
24

>  <SCORE.norm>
-0.807217

>  <RMSD>
17.787

$$$$
ligand
 OpenBabel11021811483D
libRbt.so/2013.1/901 2013/11/27
 24 26  0  0  0  0  0  0  0  0999 V2000
   -7.4024   -0.9312   -7.8382 P   0  0  1  0  0  0  0  0  0  0  0  0
   -7.6917   -2.2188   -7.0966 O   0  0  0  0  0  0  0  0  0  0  0  0
   -6.0145   -0.3587   -7.6713 O   0  5  0  0  0  0  0  0  0  0  0  0
   -7.8670   -0.9336   -9.2869 O   0  0  0  0  0  0  0  0  0  0  0  0
   -8.1604    0.4539   -5.6427 C   0  0  0  0  0  0  0  0  0  0  0  0
   -8.2874    0.1778   -7.0483 O   0  0  0  0  0  0  0  0  0  0  0  0
   -9.1232    1.5760   -5.2433 C   0  0  1  0  0  0  0  0  0  0  0  0
  -10.4916    1.2073   -5.4567 O   0  0  0  0  0  0  0  0  0  0  0  0
   -9.0358    2.0037   -3.7882 C   0  0  1  0  0  0  0  0  0  0  0  0
   -8.0848    3.0665   -3.6742 O   0  0  0  0  0  0  0  0  0  0  0  0
  -10.4451    2.4815   -3.4784 C   0  0  1  0  0  0  0  0  0  0  0  0
  -10.6276    3.8323   -3.9259 O   0  0  0  0  0  0  0  0  0  0  0  0
  -11.3245    1.6258   -4.3683 C   0  0  2  0  0  0  0  0  0  0  0  0
  -14.2187   -0.1796   -0.5709 N   0  0  0  0  0  0  0  0  0  0  0  0
  -13.9771    1.1010   -0.9329 C   0  0  1  0  0  0  0  0  0  0  0  0
  -14.5582    2.1042   -0.2369 N   0  0  0  0  0  0  0  0  0  0  0  0
  -13.1652    1.3880   -1.9772 N   0  0  0  0  0  0  0  0  0  0  0  0
  -12.5855    0.3787   -2.6701 C   0  0  1  0  0  0  0  0  0  0  0  0
  -12.8132   -0.9380   -2.3214 C   0  0  2  0  0  0  0  0  0  0  0  0
  -13.6517   -1.2060   -1.2457 C   0  0  0  0  0  0  0  0  0  0  0  0
  -13.8840   -2.3805   -0.8973 O   0  0  0  0  0  0  0  0  0  0  0  0
  -12.1070   -1.7056   -3.1764 N   0  0  0  0  0  0  0  0  0  0  0  0
  -11.4651   -0.8813   -4.0369 C   0  0  0  0  0  0  0  0  0  0  0  0
  -11.7686    0.3802   -3.7152 N   0  0  1  0  0  0  0  0  0  0  0  0
  1  2  1  1  0  0  0
  1  3  1  0  0  0  0
  1  4  2  0  0  0  0
  1  6  1  0  0  0  0
  5  6  1  0  0  0  0
  7  5  1  1  0  0  0
  7  8  1  0  0  0  0
  7  9  1  0  0  0  0
  9 10  1  6  0  0  0
  9 11  1  0  0  0  0
 11 12  1  6  0  0  0
 11 13  1  0  0  0  0
 13  8  1  6  0  0  0
 13 24  1  0  0  0  0
 14 15  1  0  0  0  0
 14 20  1  0  0  0  0
 15 16  1  1  0  0  0
 15 17  1  0  0  0  0
 18 17  1  6  0  0  0
 18 19  1  0  0  0  0
 18 24  1  0  0  0  0
 19 20  1  1  0  0  0
 19 22  1  0  0  0  0
 20 21  2  0  0  0  0
 22 23  1  0  0  0  0
 24 23  1  6  0  0  0
M  CHG  1   3  -1
M  END
>  <CHROM.1>
57.58878554,62.26569941,178.69081233,-178.68340072,-10.49445584,0.35235762
-4.31553339,0.29736840,-0.74555747,-2.82029659

>  <Name>
ligand

>  <RI>
0

>  <Rbt.Current_Directory>
/home/itssahil/PROJECTS/Mol_Feturizer/New_Systems/rnas/3SLQ

>  <Rbt.Executable>
rbdock ($Id: //depot/dev/client3/rdock/2013.1/src/exe/rbdock.cxx#4 $)

>  <Rbt.Library>
libRbt.so (2013.1, Build901 2013/11/27)

>  <Rbt.Parameter_File>
/export/apps/rDock/src/rDock_2013.1_src/data/scripts/dock_solv.prm

>  <Rbt.Receptor>
prm/blind_docking_40.prm

>  <SCORE>
-20.8244

>  <SCORE.INTER>
-14.6406

>  <SCORE.INTER.CONST>
1

>  <SCORE.INTER.POLAR>
0

>  <SCORE.INTER.ROT>
4

>  <SCORE.INTER.SOLV>
12.2215

>  <SCORE.INTER.VDW>
-20.1009

>  <SCORE.INTER.norm>
-0.610026

>  <SCORE.INTRA>
-6.18374

>  <SCORE.INTRA.DIHEDRAL>
-12.0143

>  <SCORE.INTRA.DIHEDRAL.0>
13.2525

>  <SCORE.INTRA.POLAR>
0

>  <SCORE.INTRA.POLAR.0>
0

>  <SCORE.INTRA.REPUL>
0

>  <SCORE.INTRA.REPUL.0>
0

>  <SCORE.INTRA.SOLV>
-0.0683133

>  <SCORE.INTRA.SOLV.lig_0>
-70.7221

>  <SCORE.INTRA.VDW>
-0.142412

>  <SCORE.INTRA.VDW.0>
-1.46337

>  <SCORE.INTRA.norm>
-0.257656

>  <SCORE.RESTR>
0

>  <SCORE.RESTR.CAVITY>
0

>  <SCORE.RESTR.norm>
0

>  <SCORE.SYSTEM>
0

>  <SCORE.SYSTEM.CONST>
0

>  <SCORE.SYSTEM.DIHEDRAL>
0

>  <SCORE.SYSTEM.SOLV>
0

>  <SCORE.SYSTEM.norm>
0

>  <SCORE.heavy>
24

>  <SCORE.norm>
-0.867682

>  <RMSD>
17.788

$$$$
ligand
 OpenBabel11021811483D
libRbt.so/2013.1/901 2013/11/27
 24 26  0  0  0  0  0  0  0  0999 V2000
   -6.8711   -0.6207   -7.7631 P   0  0  1  0  0  0  0  0  0  0  0  0
   -5.4978   -0.3179   -7.2029 O   0  0  0  0  0  0  0  0  0  0  0  0
   -7.1052   -0.2400   -9.2061 O   0  5  0  0  0  0  0  0  0  0  0  0
   -7.3804   -2.0158   -7.4330 O   0  0  0  0  0  0  0  0  0  0  0  0
   -7.8779    0.6169   -5.5795 C   0  0  0  0  0  0  0  0  0  0  0  0
   -7.8405    0.4397   -7.0062 O   0  0  0  0  0  0  0  0  0  0  0  0
   -8.8994    1.6985   -5.2156 C   0  0  1  0  0  0  0  0  0  0  0  0
  -10.2406    1.2874   -5.5095 O   0  0  0  0  0  0  0  0  0  0  0  0
   -8.9059    2.1031   -3.7514 C   0  0  1  0  0  0  0  0  0  0  0  0
   -7.9999    3.1952   -3.5687 O   0  0  0  0  0  0  0  0  0  0  0  0
  -10.3456    2.5273   -3.5116 C   0  0  1  0  0  0  0  0  0  0  0  0
  -10.5505    3.8788   -3.9470 O   0  0  0  0  0  0  0  0  0  0  0  0
  -11.1453    1.6582   -4.4618 C   0  0  2  0  0  0  0  0  0  0  0  0
  -14.1125   -0.3067   -0.8024 N   0  0  0  0  0  0  0  0  0  0  0  0
  -13.8894    0.9877   -1.1251 C   0  0  1  0  0  0  0  0  0  0  0  0
  -14.5145    1.9598   -0.4231 N   0  0  0  0  0  0  0  0  0  0  0  0
  -13.0526    1.3190   -2.1360 N   0  0  0  0  0  0  0  0  0  0  0  0
  -12.4288    0.3408   -2.8351 C   0  0  1  0  0  0  0  0  0  0  0  0
  -12.6368   -0.9891   -2.5262 C   0  0  2  0  0  0  0  0  0  0  0  0
  -13.5016   -1.3028   -1.4842 C   0  0  0  0  0  0  0  0  0  0  0  0
  -13.7174   -2.4906   -1.1723 O   0  0  0  0  0  0  0  0  0  0  0  0
  -11.8872   -1.7189   -3.3774 N   0  0  0  0  0  0  0  0  0  0  0  0
  -11.2383   -0.8590   -4.1968 C   0  0  0  0  0  0  0  0  0  0  0  0
  -11.5804    0.3869   -3.8538 N   0  0  1  0  0  0  0  0  0  0  0  0
  1  2  1  1  0  0  0
  1  3  1  0  0  0  0
  1  4  2  0  0  0  0
  1  6  1  0  0  0  0
  5  6  1  0  0  0  0
  7  5  1  1  0  0  0
  7  8  1  0  0  0  0
  7  9  1  0  0  0  0
  9 10  1  6  0  0  0
  9 11  1  0  0  0  0
 11 12  1  6  0  0  0
 11 13  1  0  0  0  0
 13  8  1  6  0  0  0
 13 24  1  0  0  0  0
 14 15  1  0  0  0  0
 14 20  1  0  0  0  0
 15 16  1  1  0  0  0
 15 17  1  0  0  0  0
 18 17  1  6  0  0  0
 18 19  1  0  0  0  0
 18 24  1  0  0  0  0
 19 20  1  1  0  0  0
 19 22  1  0  0  0  0
 20 21  2  0  0  0  0
 22 23  1  0  0  0  0
 24 23  1  6  0  0  0
M  CHG  1   3  -1
M  END
>  <CHROM.1>
-51.52003387,66.98604158,179.81943311,179.74199759,-10.24249964,0.43440042
-4.37685461,0.22170213,-0.70959368,-2.85216493

>  <Name>
ligand

>  <RI>
0

>  <Rbt.Current_Directory>
/home/itssahil/PROJECTS/Mol_Feturizer/New_Systems/rnas/3SLQ

>  <Rbt.Executable>
rbdock ($Id: //depot/dev/client3/rdock/2013.1/src/exe/rbdock.cxx#4 $)

>  <Rbt.Library>
libRbt.so (2013.1, Build901 2013/11/27)

>  <Rbt.Parameter_File>
/export/apps/rDock/src/rDock_2013.1_src/data/scripts/dock_solv.prm

>  <Rbt.Receptor>
prm/blind_docking_60.prm

>  <SCORE>
-21.3451

>  <SCORE.INTER>
-15.1743

>  <SCORE.INTER.CONST>
1

>  <SCORE.INTER.POLAR>
0

>  <SCORE.INTER.ROT>
4

>  <SCORE.INTER.SOLV>
11.9568

>  <SCORE.INTER.VDW>
-20.3685

>  <SCORE.INTER.norm>
-0.632261

>  <SCORE.INTRA>
-6.17083

>  <SCORE.INTRA.DIHEDRAL>
-11.7598

>  <SCORE.INTRA.DIHEDRAL.0>
13.2525

>  <SCORE.INTRA.POLAR>
0

>  <SCORE.INTRA.POLAR.0>
0

>  <SCORE.INTRA.REPUL>
0

>  <SCORE.INTRA.REPUL.0>
0

>  <SCORE.INTRA.SOLV>
-0.218183

>  <SCORE.INTRA.SOLV.lig_0>
-70.7221

>  <SCORE.INTRA.VDW>
-0.181845

>  <SCORE.INTRA.VDW.0>
-1.46337

>  <SCORE.INTRA.norm>
-0.257118

>  <SCORE.RESTR>
0

>  <SCORE.RESTR.CAVITY>
0

>  <SCORE.RESTR.norm>
0

>  <SCORE.SYSTEM>
0

>  <SCORE.SYSTEM.CONST>
0

>  <SCORE.SYSTEM.DIHEDRAL>
0

>  <SCORE.SYSTEM.SOLV>
0

>  <SCORE.SYSTEM.norm>
0

>  <SCORE.heavy>
24

>  <SCORE.norm>
-0.889379

>  <RMSD>
17.830

$$$$
ligand
 OpenBabel11021811483D
libRbt.so/2013.1/901 2013/11/27
 24 26  0  0  0  0  0  0  0  0999 V2000
   -6.5700    1.2055   -6.8569 P   0  0  1  0  0  0  0  0  0  0  0  0
   -7.0931    2.5174   -7.4019 O   0  0  0  0  0  0  0  0  0  0  0  0
   -6.0499    0.2169   -7.8738 O   0  5  0  0  0  0  0  0  0  0  0  0
   -5.6451    1.3579   -5.6586 O   0  0  0  0  0  0  0  0  0  0  0  0
   -8.7862    0.9544   -5.3275 C   0  0  0  0  0  0  0  0  0  0  0  0
   -7.9064    0.4399   -6.3421 O   0  0  0  0  0  0  0  0  0  0  0  0
   -9.9385   -0.0264   -5.0911 C   0  0  1  0  0  0  0  0  0  0  0  0
   -9.6675   -1.3155   -5.6559 O   0  0  0  0  0  0  0  0  0  0  0  0
  -10.2709   -0.2801   -3.6306 C   0  0  1  0  0  0  0  0  0  0  0  0
  -11.2648    0.6599   -3.2119 O   0  0  0  0  0  0  0  0  0  0  0  0
  -10.8138   -1.6997   -3.6365 C   0  0  1  0  0  0  0  0  0  0  0  0
  -12.1980   -1.7069   -4.0139 O   0  0  0  0  0  0  0  0  0  0  0  0
  -10.0690   -2.3707   -4.7735 C   0  0  2  0  0  0  0  0  0  0  0  0
   -5.7200   -4.4040   -6.5081 N   0  0  0  0  0  0  0  0  0  0  0  0
   -6.7563   -3.8750   -7.1978 C   0  0  1  0  0  0  0  0  0  0  0  0
   -6.7004   -3.8395   -8.5484 N   0  0  0  0  0  0  0  0  0  0  0  0
   -7.8421   -3.3843   -6.5555 N   0  0  0  0  0  0  0  0  0  0  0  0
   -7.8924   -3.4233   -5.2024 C   0  0  1  0  0  0  0  0  0  0  0  0
   -6.8494   -3.9592   -4.4730 C   0  0  2  0  0  0  0  0  0  0  0  0
   -5.7456   -4.4558   -5.1564 C   0  0  0  0  0  0  0  0  0  0  0  0
   -4.7823   -4.9483   -4.5366 O   0  0  0  0  0  0  0  0  0  0  0  0
   -7.1839   -3.8659   -3.1698 N   0  0  0  0  0  0  0  0  0  0  0  0
   -8.4015   -3.2791   -3.0974 C   0  0  0  0  0  0  0  0  0  0  0  0
   -8.8154   -3.0161   -4.3410 N   0  0  1  0  0  0  0  0  0  0  0  0
  1  2  1  6  0  0  0
  1  3  1  0  0  0  0
  1  4  2  0  0  0  0
  1  6  1  0  0  0  0
  5  6  1  0  0  0  0
  7  5  1  1  0  0  0
  7  8  1  0  0  0  0
  7  9  1  0  0  0  0
  9 10  1  6  0  0  0
  9 11  1  0  0  0  0
 11 12  1  6  0  0  0
 11 13  1  0  0  0  0
 13  8  1  6  0  0  0
 13 24  1  0  0  0  0
 14 15  1  0  0  0  0
 14 20  1  0  0  0  0
 15 16  1  6  0  0  0
 15 17  1  0  0  0  0
 18 17  1  1  0  0  0
 18 19  1  0  0  0  0
 18 24  1  0  0  0  0
 19 20  1  6  0  0  0
 19 22  1  0  0  0  0
 20 21  2  0  0  0  0
 22 23  1  0  0  0  0
 24 23  1  1  0  0  0
M  CHG  1   3  -1
M  END
>  <CHROM.1>
-60.18609218,15.14141933,-179.85829008,-51.19181630,-7.97228143,-1.51505932
-5.44810981,-2.18965601,-0.55964765,2.83167565

>  <Name>
ligand

>  <RI>
0

>  <Rbt.Current_Directory>
/home/itssahil/PROJECTS/Mol_Feturizer/New_Systems/rnas/3SLQ

>  <Rbt.Executable>
rbdock ($Id: //depot/dev/client3/rdock/2013.1/src/exe/rbdock.cxx#4 $)

>  <Rbt.Library>
libRbt.so (2013.1, Build901 2013/11/27)

>  <Rbt.Parameter_File>
/export/apps/rDock/src/rDock_2013.1_src/data/scripts/dock_solv.prm

>  <Rbt.Receptor>
prm/blind_docking_40.prm

>  <SCORE>
-22.8944

>  <SCORE.INTER>
-19.1417

>  <SCORE.INTER.CONST>
1

>  <SCORE.INTER.POLAR>
0

>  <SCORE.INTER.ROT>
4

>  <SCORE.INTER.SOLV>
11.7485

>  <SCORE.INTER.VDW>
-22.944

>  <SCORE.INTER.norm>
-0.797569

>  <SCORE.INTRA>
-3.75274

>  <SCORE.INTRA.DIHEDRAL>
-7.54815

>  <SCORE.INTRA.DIHEDRAL.0>
13.2525

>  <SCORE.INTRA.POLAR>
0

>  <SCORE.INTRA.POLAR.0>
0

>  <SCORE.INTRA.REPUL>
0

>  <SCORE.INTRA.REPUL.0>
0

>  <SCORE.INTRA.SOLV>
0.537531

>  <SCORE.INTRA.SOLV.lig_0>
-70.7221

>  <SCORE.INTRA.VDW>
-0.247432

>  <SCORE.INTRA.VDW.0>
-1.46337

>  <SCORE.INTRA.norm>
-0.156364

>  <SCORE.RESTR>
0

>  <SCORE.RESTR.CAVITY>
0

>  <SCORE.RESTR.norm>
0

>  <SCORE.SYSTEM>
0

>  <SCORE.SYSTEM.CONST>
0

>  <SCORE.SYSTEM.DIHEDRAL>
0

>  <SCORE.SYSTEM.SOLV>
0

>  <SCORE.SYSTEM.norm>
0

>  <SCORE.heavy>
24

>  <SCORE.norm>
-0.953933

>  <RMSD>
17.835

$$$$
ligand
 OpenBabel11021811483D
libRbt.so/2013.1/901 2013/11/27
 24 26  0  0  0  0  0  0  0  0999 V2000
  -13.6552   -1.2315   -1.4182 P   0  0  1  0  0  0  0  0  0  0  0  0
  -13.2223   -2.4037   -0.5638 O   0  0  0  0  0  0  0  0  0  0  0  0
  -14.5334   -1.5546   -2.6041 O   0  5  0  0  0  0  0  0  0  0  0  0
  -14.1591   -0.0375   -0.6214 O   0  0  0  0  0  0  0  0  0  0  0  0
  -12.2493    0.1403   -3.2770 C   0  0  0  0  0  0  0  0  0  0  0  0
  -12.2889   -0.7721   -2.1660 O   0  0  0  0  0  0  0  0  0  0  0  0
  -10.8233    0.6651   -3.4693 C   0  0  1  0  0  0  0  0  0  0  0  0
   -9.8664   -0.3998   -3.5357 O   0  0  0  0  0  0  0  0  0  0  0  0
  -10.6106    1.4870   -4.7291 C   0  0  1  0  0  0  0  0  0  0  0  0
  -10.8513    2.8650   -4.4291 O   0  0  0  0  0  0  0  0  0  0  0  0
   -9.1500    1.2373   -5.0677 C   0  0  1  0  0  0  0  0  0  0  0  0
   -8.3007    2.0958   -4.2932 O   0  0  0  0  0  0  0  0  0  0  0  0
   -8.8933   -0.1685   -4.5619 C   0  0  2  0  0  0  0  0  0  0  0  0
   -7.8262   -1.5044   -9.3716 N   0  0  0  0  0  0  0  0  0  0  0  0
   -7.4356   -0.4118   -8.6765 C   0  0  1  0  0  0  0  0  0  0  0  0
   -6.6393    0.5018   -9.2762 N   0  0  0  0  0  0  0  0  0  0  0  0
   -7.8306   -0.2236   -7.3956 N   0  0  0  0  0  0  0  0  0  0  0  0
   -8.6288   -1.1420   -6.8006 C   0  0  1  0  0  0  0  0  0  0  0  0
   -9.0442   -2.2660   -7.4871 C   0  0  2  0  0  0  0  0  0  0  0  0
   -8.6239   -2.4363   -8.8010 C   0  0  0  0  0  0  0  0  0  0  0  0
   -8.9758   -3.4366   -9.4570 O   0  0  0  0  0  0  0  0  0  0  0  0
   -9.8220   -2.9813   -6.6491 N   0  0  0  0  0  0  0  0  0  0  0  0
   -9.8785   -2.3174   -5.4710 C   0  0  0  0  0  0  0  0  0  0  0  0
   -9.1470   -1.2039   -5.5810 N   0  0  1  0  0  0  0  0  0  0  0  0
  1  2  1  1  0  0  0
  1  3  1  0  0  0  0
  1  4  2  0  0  0  0
  1  6  1  0  0  0  0
  5  6  1  0  0  0  0
  7  5  1  6  0  0  0
  7  8  1  0  0  0  0
  7  9  1  0  0  0  0
  9 10  1  1  0  0  0
  9 11  1  0  0  0  0
 11 12  1  1  0  0  0
 11 13  1  0  0  0  0
 13  8  1  1  0  0  0
 13 24  1  0  0  0  0
 14 15  1  0  0  0  0
 14 20  1  0  0  0  0
 15 16  1  6  0  0  0
 15 17  1  0  0  0  0
 18 17  1  1  0  0  0
 18 19  1  0  0  0  0
 18 24  1  0  0  0  0
 19 20  1  6  0  0  0
 19 22  1  0  0  0  0
 20 21  2  0  0  0  0
 22 23  1  0  0  0  0
 24 23  1  1  0  0  0
M  CHG  1   3  -1
M  END
>  <CHROM.1>
167.41176638,51.43879618,163.55829673,165.75339556,-10.37739646,-0.65129281
-4.92179749,2.66609722,0.80420740,0.55979197

>  <Name>
ligand

>  <RI>
0

>  <Rbt.Current_Directory>
/home/itssahil/PROJECTS/Mol_Feturizer/New_Systems/rnas/3SLQ

>  <Rbt.Executable>
rbdock ($Id: //depot/dev/client3/rdock/2013.1/src/exe/rbdock.cxx#4 $)

>  <Rbt.Library>
libRbt.so (2013.1, Build901 2013/11/27)

>  <Rbt.Parameter_File>
/export/apps/rDock/src/rDock_2013.1_src/data/scripts/dock_solv.prm

>  <Rbt.Receptor>
prm/blind_docking_40.prm

>  <SCORE>
-17.9937

>  <SCORE.INTER>
-13.2074

>  <SCORE.INTER.CONST>
1

>  <SCORE.INTER.POLAR>
0

>  <SCORE.INTER.ROT>
4

>  <SCORE.INTER.SOLV>
17.6251

>  <SCORE.INTER.VDW>
-20.9466

>  <SCORE.INTER.norm>
-0.550307

>  <SCORE.INTRA>
-4.78631

>  <SCORE.INTRA.DIHEDRAL>
-10.3011

>  <SCORE.INTRA.DIHEDRAL.0>
13.2525

>  <SCORE.INTRA.POLAR>
0

>  <SCORE.INTRA.POLAR.0>
0

>  <SCORE.INTRA.REPUL>
0

>  <SCORE.INTRA.REPUL.0>
0

>  <SCORE.INTRA.SOLV>
0.518123

>  <SCORE.INTRA.SOLV.lig_0>
-70.7221

>  <SCORE.INTRA.VDW>
0.105164

>  <SCORE.INTRA.VDW.0>
-1.46337

>  <SCORE.INTRA.norm>
-0.19943

>  <SCORE.RESTR>
0

>  <SCORE.RESTR.CAVITY>
0

>  <SCORE.RESTR.norm>
0

>  <SCORE.SYSTEM>
0

>  <SCORE.SYSTEM.CONST>
0

>  <SCORE.SYSTEM.DIHEDRAL>
0

>  <SCORE.SYSTEM.SOLV>
0

>  <SCORE.SYSTEM.norm>
0

>  <SCORE.heavy>
24

>  <SCORE.norm>
-0.749737

>  <RMSD>
17.838

$$$$
ligand
 OpenBabel11021811483D
libRbt.so/2013.1/901 2013/11/27
 24 26  0  0  0  0  0  0  0  0999 V2000
  -13.6819   -0.1196   -2.5247 P   0  0  1  0  0  0  0  0  0  0  0  0
  -14.2627   -0.7241   -3.7852 O   0  0  0  0  0  0  0  0  0  0  0  0
  -14.2655    1.2024   -2.0847 O   0  5  0  0  0  0  0  0  0  0  0  0
  -13.5318   -1.1071   -1.3771 O   0  0  0  0  0  0  0  0  0  0  0  0
  -11.1695   -0.5723   -3.4170 C   0  0  0  0  0  0  0  0  0  0  0  0
  -12.1880    0.3380   -2.9675 O   0  0  0  0  0  0  0  0  0  0  0  0
   -9.8570    0.1844   -3.6418 C   0  0  1  0  0  0  0  0  0  0  0  0
   -8.8000   -0.6903   -4.0562 O   0  0  0  0  0  0  0  0  0  0  0  0
   -9.9228    1.2765   -4.6957 C   0  0  1  0  0  0  0  0  0  0  0  0
  -10.2797    2.5093   -4.0635 O   0  0  0  0  0  0  0  0  0  0  0  0
   -8.5055    1.3209   -5.2430 C   0  0  1  0  0  0  0  0  0  0  0  0
   -7.6627    2.1109   -4.3921 O   0  0  0  0  0  0  0  0  0  0  0  0
   -8.0157   -0.1069   -5.1041 C   0  0  2  0  0  0  0  0  0  0  0  0
   -6.8209   -4.5204   -7.3735 N   0  0  0  0  0  0  0  0  0  0  0  0
   -6.3612   -3.9987   -6.2134 C   0  0  1  0  0  0  0  0  0  0  0  0
   -5.4545   -4.6944   -5.4906 N   0  0  0  0  0  0  0  0  0  0  0  0
   -6.7952   -2.7954   -5.7707 N   0  0  0  0  0  0  0  0  0  0  0  0
   -7.7031   -2.1030   -6.4995 C   0  0  1  0  0  0  0  0  0  0  0  0
   -8.1883   -2.6109   -7.6885 C   0  0  2  0  0  0  0  0  0  0  0  0
   -7.7272   -3.8490   -8.1206 C   0  0  0  0  0  0  0  0  0  0  0  0
   -8.1391   -4.3440   -9.1883 O   0  0  0  0  0  0  0  0  0  0  0  0
   -9.0594   -1.7078   -8.1829 N   0  0  0  0  0  0  0  0  0  0  0  0
   -9.1156   -0.6708   -7.3149 C   0  0  0  0  0  0  0  0  0  0  0  0
   -8.2867   -0.9289   -6.2983 N   0  0  1  0  0  0  0  0  0  0  0  0
  1  2  1  6  0  0  0
  1  3  1  0  0  0  0
  1  4  2  0  0  0  0
  1  6  1  0  0  0  0
  5  6  1  0  0  0  0
  7  5  1  6  0  0  0
  7  8  1  0  0  0  0
  7  9  1  0  0  0  0
  9 10  1  1  0  0  0
  9 11  1  0  0  0  0
 11 12  1  1  0  0  0
 11 13  1  0  0  0  0
 13  8  1  1  0  0  0
 13 24  1  0  0  0  0
 14 15  1  0  0  0  0
 14 20  1  0  0  0  0
 15 16  1  6  0  0  0
 15 17  1  0  0  0  0
 18 17  1  1  0  0  0
 18 19  1  0  0  0  0
 18 24  1  0  0  0  0
 19 20  1  6  0  0  0
 19 22  1  0  0  0  0
 20 21  2  0  0  0  0
 22 23  1  0  0  0  0
 24 23  1  1  0  0  0
M  CHG  1   3  -1
M  END
>  <CHROM.1>
-62.30313299,178.39652201,-175.44381018,-79.37043740,-9.73850671,-0.99187025
-4.99570934,2.46609458,0.43751752,0.40025356

>  <Name>
ligand

>  <RI>
0

>  <Rbt.Current_Directory>
/home/itssahil/PROJECTS/Mol_Feturizer/New_Systems/rnas/3SLQ

>  <Rbt.Executable>
rbdock ($Id: //depot/dev/client3/rdock/2013.1/src/exe/rbdock.cxx#4 $)

>  <Rbt.Library>
libRbt.so (2013.1, Build901 2013/11/27)

>  <Rbt.Parameter_File>
/export/apps/rDock/src/rDock_2013.1_src/data/scripts/dock_solv.prm

>  <Rbt.Receptor>
prm/blind_docking_100.prm

>  <SCORE>
-18.548

>  <SCORE.INTER>
-12.3155

>  <SCORE.INTER.CONST>
1

>  <SCORE.INTER.POLAR>
0

>  <SCORE.INTER.ROT>
4

>  <SCORE.INTER.SOLV>
22.4438

>  <SCORE.INTER.VDW>
-21.9582

>  <SCORE.INTER.norm>
-0.513145

>  <SCORE.INTRA>
-6.23248

>  <SCORE.INTRA.DIHEDRAL>
-11.949

>  <SCORE.INTRA.DIHEDRAL.0>
13.2525

>  <SCORE.INTRA.POLAR>
0

>  <SCORE.INTRA.POLAR.0>
0

>  <SCORE.INTRA.REPUL>
0

>  <SCORE.INTRA.REPUL.0>
0

>  <SCORE.INTRA.SOLV>
0.045306

>  <SCORE.INTRA.SOLV.lig_0>
-70.7221

>  <SCORE.INTRA.VDW>
-0.280657

>  <SCORE.INTRA.VDW.0>
-1.46337

>  <SCORE.INTRA.norm>
-0.259687

>  <SCORE.RESTR>
0

>  <SCORE.RESTR.CAVITY>
0

>  <SCORE.RESTR.norm>
0

>  <SCORE.SYSTEM>
0

>  <SCORE.SYSTEM.CONST>
0

>  <SCORE.SYSTEM.DIHEDRAL>
0

>  <SCORE.SYSTEM.SOLV>
0

>  <SCORE.SYSTEM.norm>
0

>  <SCORE.heavy>
24

>  <SCORE.norm>
-0.772832

>  <RMSD>
17.855

$$$$
ligand
 OpenBabel11021811483D
libRbt.so/2013.1/901 2013/11/27
 24 26  0  0  0  0  0  0  0  0999 V2000
   -6.9798    1.4451   -7.8959 P   0  0  1  0  0  0  0  0  0  0  0  0
   -7.1482    2.9431   -8.0341 O   0  0  0  0  0  0  0  0  0  0  0  0
   -6.8714    0.6611   -9.1826 O   0  5  0  0  0  0  0  0  0  0  0  0
   -5.9390    1.0316   -6.8661 O   0  0  0  0  0  0  0  0  0  0  0  0
   -8.8957   -0.4131   -7.4595 C   0  0  0  0  0  0  0  0  0  0  0  0
   -8.4248    0.9415   -7.3520 O   0  0  0  0  0  0  0  0  0  0  0  0
   -8.1428   -1.3063   -6.4689 C   0  0  1  0  0  0  0  0  0  0  0  0
   -8.2595   -0.8281   -5.1229 O   0  0  0  0  0  0  0  0  0  0  0  0
   -8.6081   -2.7519   -6.4325 C   0  0  1  0  0  0  0  0  0  0  0  0
   -7.8408   -3.5092   -7.3731 O   0  0  0  0  0  0  0  0  0  0  0  0
   -8.3156   -3.1781   -5.0032 C   0  0  1  0  0  0  0  0  0  0  0  0
   -6.9387   -3.5559   -4.8632 O   0  0  0  0  0  0  0  0  0  0  0  0
   -8.4808   -1.9026   -4.2009 C   0  0  2  0  0  0  0  0  0  0  0  0
  -11.8042    1.6610   -2.6801 N   0  0  0  0  0  0  0  0  0  0  0  0
  -10.5233    1.8003   -3.0918 C   0  0  1  0  0  0  0  0  0  0  0  0
   -9.9765    3.0361   -3.1395 N   0  0  0  0  0  0  0  0  0  0  0  0
   -9.7872    0.7236   -3.4537 N   0  0  0  0  0  0  0  0  0  0  0  0
  -10.3405   -0.5118   -3.4031 C   0  0  1  0  0  0  0  0  0  0  0  0
  -11.6455   -0.6835   -2.9852 C   0  0  2  0  0  0  0  0  0  0  0  0
  -12.3803    0.4383   -2.6197 C   0  0  0  0  0  0  0  0  0  0  0  0
  -13.5616    0.3280   -2.2364 O   0  0  0  0  0  0  0  0  0  0  0  0
  -11.9100   -2.0051   -3.0341 N   0  0  0  0  0  0  0  0  0  0  0  0
  -10.7963   -2.6325   -3.4792 C   0  0  0  0  0  0  0  0  0  0  0  0
   -9.8543   -1.7099   -3.6994 N   0  0  1  0  0  0  0  0  0  0  0  0
  1  2  1  6  0  0  0
  1  3  1  0  0  0  0
  1  4  2  0  0  0  0
  1  6  1  0  0  0  0
  5  6  1  0  0  0  0
  7  5  1  6  0  0  0
  7  8  1  0  0  0  0
  7  9  1  0  0  0  0
  9 10  1  6  0  0  0
  9 11  1  0  0  0  0
 11 12  1  6  0  0  0
 11 13  1  0  0  0  0
 13  8  1  6  0  0  0
 13 24  1  0  0  0  0
 14 15  1  0  0  0  0
 14 20  1  0  0  0  0
 15 16  1  1  0  0  0
 15 17  1  0  0  0  0
 18 17  1  6  0  0  0
 18 19  1  0  0  0  0
 18 24  1  0  0  0  0
 19 20  1  1  0  0  0
 19 22  1  0  0  0  0
 20 21  2  0  0  0  0
 22 23  1  0  0  0  0
 24 23  1  6  0  0  0
M  CHG  1   3  -1
M  END
>  <CHROM.1>
159.72280689,56.27101191,72.86734699,-40.58508330,-9.10370903,-0.30130567
-5.25049740,0.18268540,0.81319834,-0.15420870

>  <Name>
ligand

>  <RI>
0

>  <Rbt.Current_Directory>
/home/itssahil/PROJECTS/Mol_Feturizer/New_Systems/rnas/3SLQ

>  <Rbt.Executable>
rbdock ($Id: //depot/dev/client3/rdock/2013.1/src/exe/rbdock.cxx#4 $)

>  <Rbt.Library>
libRbt.so (2013.1, Build901 2013/11/27)

>  <Rbt.Parameter_File>
/export/apps/rDock/src/rDock_2013.1_src/data/scripts/dock_solv.prm

>  <Rbt.Receptor>
prm/blind_docking_20.prm

>  <SCORE>
-18.4395

>  <SCORE.INTER>
-14.201

>  <SCORE.INTER.CONST>
1

>  <SCORE.INTER.POLAR>
0

>  <SCORE.INTER.ROT>
4

>  <SCORE.INTER.SOLV>
14.771

>  <SCORE.INTER.VDW>
-20.6577

>  <SCORE.INTER.norm>
-0.591707

>  <SCORE.INTRA>
-4.2385

>  <SCORE.INTRA.DIHEDRAL>
-10.5857

>  <SCORE.INTRA.DIHEDRAL.0>
13.2525

>  <SCORE.INTRA.POLAR>
0

>  <SCORE.INTRA.POLAR.0>
0

>  <SCORE.INTRA.REPUL>
0

>  <SCORE.INTRA.REPUL.0>
0

>  <SCORE.INTRA.SOLV>
2.60204

>  <SCORE.INTRA.SOLV.lig_0>
-70.7221

>  <SCORE.INTRA.VDW>
-0.246667

>  <SCORE.INTRA.VDW.0>
-1.46337

>  <SCORE.INTRA.norm>
-0.176604

>  <SCORE.RESTR>
0

>  <SCORE.RESTR.CAVITY>
0

>  <SCORE.RESTR.norm>
0

>  <SCORE.SYSTEM>
0

>  <SCORE.SYSTEM.CONST>
0

>  <SCORE.SYSTEM.DIHEDRAL>
0

>  <SCORE.SYSTEM.SOLV>
0

>  <SCORE.SYSTEM.norm>
0

>  <SCORE.heavy>
24

>  <SCORE.norm>
-0.768311

>  <RMSD>
17.897

$$$$
ligand
 OpenBabel11021811483D
libRbt.so/2013.1/901 2013/11/27
 24 26  0  0  0  0  0  0  0  0999 V2000
  -13.6677   -0.6626   -2.5733 P   0  0  1  0  0  0  0  0  0  0  0  0
  -14.6012   -0.0517   -3.5965 O   0  0  0  0  0  0  0  0  0  0  0  0
  -14.0189   -0.4305   -1.1226 O   0  5  0  0  0  0  0  0  0  0  0  0
  -13.2920   -2.1080   -2.8634 O   0  0  0  0  0  0  0  0  0  0  0  0
  -11.2127   -0.1140   -3.5662 C   0  0  0  0  0  0  0  0  0  0  0  0
  -12.3141    0.2248   -2.7057 O   0  0  0  0  0  0  0  0  0  0  0  0
  -10.0395    0.8364   -3.3092 C   0  0  1  0  0  0  0  0  0  0  0  0
   -8.8079    0.3171   -3.8263 O   0  0  0  0  0  0  0  0  0  0  0  0
  -10.1918    2.2180   -3.9221 C   0  0  1  0  0  0  0  0  0  0  0  0
  -10.8235    3.0797   -2.9707 O   0  0  0  0  0  0  0  0  0  0  0  0
   -8.7571    2.6417   -4.1913 C   0  0  1  0  0  0  0  0  0  0  0  0
   -8.1577    3.1715   -3.0003 O   0  0  0  0  0  0  0  0  0  0  0  0
   -8.0382    1.3376   -4.4742 C   0  0  2  0  0  0  0  0  0  0  0  0
   -4.9733    0.5471   -8.4790 N   0  0  0  0  0  0  0  0  0  0  0  0
   -4.6588    0.9118   -7.2151 C   0  0  1  0  0  0  0  0  0  0  0  0
   -3.3614    1.1077   -6.8885 N   0  0  0  0  0  0  0  0  0  0  0  0
   -5.6220    1.0821   -6.2794 N   0  0  0  0  0  0  0  0  0  0  0  0
   -6.9200    0.8849   -6.6129 C   0  0  1  0  0  0  0  0  0  0  0  0
   -7.2699    0.5138   -7.8963 C   0  0  2  0  0  0  0  0  0  0  0  0
   -6.2619    0.3446   -8.8382 C   0  0  0  0  0  0  0  0  0  0  0  0
   -6.5340    0.0103  -10.0082 O   0  0  0  0  0  0  0  0  0  0  0  0
   -8.6134    0.3998   -7.9269 N   0  0  0  0  0  0  0  0  0  0  0  0
   -9.0800    0.6865   -6.6892 C   0  0  0  0  0  0  0  0  0  0  0  0
   -8.0376    0.9772   -5.9044 N   0  0  1  0  0  0  0  0  0  0  0  0
  1  2  1  6  0  0  0
  1  3  1  0  0  0  0
  1  4  2  0  0  0  0
  1  6  1  0  0  0  0
  5  6  1  0  0  0  0
  7  5  1  6  0  0  0
  7  8  1  0  0  0  0
  7  9  1  0  0  0  0
  9 10  1  1  0  0  0
  9 11  1  0  0  0  0
 11 12  1  1  0  0  0
 11 13  1  0  0  0  0
 13  8  1  1  0  0  0
 13 24  1  0  0  0  0
 14 15  1  0  0  0  0
 14 20  1  0  0  0  0
 15 16  1  6  0  0  0
 15 17  1  0  0  0  0
 18 17  1  1  0  0  0
 18 19  1  0  0  0  0
 18 24  1  0  0  0  0
 19 20  1  6  0  0  0
 19 22  1  0  0  0  0
 20 21  2  0  0  0  0
 22 23  1  0  0  0  0
 24 23  1  1  0  0  0
M  CHG  1   3  -1
M  END
>  <CHROM.1>
-92.12182500,162.58993853,-172.81462028,-128.11504259,-9.34447597,0.66059113
-4.96262534,2.71732141,0.46270262,0.97670343

>  <Name>
ligand

>  <RI>
0

>  <Rbt.Current_Directory>
/home/itssahil/PROJECTS/Mol_Feturizer/New_Systems/rnas/3SLQ

>  <Rbt.Executable>
rbdock ($Id: //depot/dev/client3/rdock/2013.1/src/exe/rbdock.cxx#4 $)

>  <Rbt.Library>
libRbt.so (2013.1, Build901 2013/11/27)

>  <Rbt.Parameter_File>
/export/apps/rDock/src/rDock_2013.1_src/data/scripts/dock_solv.prm

>  <Rbt.Receptor>
prm/blind_docking_20.prm

>  <SCORE>
-19.8432

>  <SCORE.INTER>
-14.7916

>  <SCORE.INTER.CONST>
1

>  <SCORE.INTER.POLAR>
0

>  <SCORE.INTER.ROT>
4

>  <SCORE.INTER.SOLV>
16.3041

>  <SCORE.INTER.VDW>
-21.5625

>  <SCORE.INTER.norm>
-0.616318

>  <SCORE.INTRA>
-5.05151

>  <SCORE.INTRA.DIHEDRAL>
-9.43781

>  <SCORE.INTRA.DIHEDRAL.0>
13.2525

>  <SCORE.INTRA.POLAR>
0

>  <SCORE.INTRA.POLAR.0>
0

>  <SCORE.INTRA.REPUL>
0

>  <SCORE.INTRA.REPUL.0>
0

>  <SCORE.INTRA.SOLV>
0.143731

>  <SCORE.INTRA.SOLV.lig_0>
-70.7221

>  <SCORE.INTRA.VDW>
-0.404473

>  <SCORE.INTRA.VDW.0>
-1.46337

>  <SCORE.INTRA.norm>
-0.21048

>  <SCORE.RESTR>
0

>  <SCORE.RESTR.CAVITY>
0

>  <SCORE.RESTR.norm>
0

>  <SCORE.SYSTEM>
0

>  <SCORE.SYSTEM.CONST>
0

>  <SCORE.SYSTEM.DIHEDRAL>
0

>  <SCORE.SYSTEM.SOLV>
0

>  <SCORE.SYSTEM.norm>
0

>  <SCORE.heavy>
24

>  <SCORE.norm>
-0.826798

>  <RMSD>
17.940

$$$$
ligand
 OpenBabel11021811483D
libRbt.so/2013.1/901 2013/11/27
 24 26  0  0  0  0  0  0  0  0999 V2000
   -7.2682    1.0265   -7.5834 P   0  0  1  0  0  0  0  0  0  0  0  0
   -7.6856    2.4286   -7.9724 O   0  0  0  0  0  0  0  0  0  0  0  0
   -7.1651    0.0218   -8.7068 O   0  5  0  0  0  0  0  0  0  0  0  0
   -6.0777    0.9750   -6.6376 O   0  0  0  0  0  0  0  0  0  0  0  0
   -9.0303    0.9942   -5.5322 C   0  0  0  0  0  0  0  0  0  0  0  0
   -8.5534    0.4502   -6.7751 O   0  0  0  0  0  0  0  0  0  0  0  0
  -10.1700    0.1280   -4.9877 C   0  0  1  0  0  0  0  0  0  0  0  0
  -10.0720   -1.2290   -5.4385 O   0  0  0  0  0  0  0  0  0  0  0  0
  -10.2459    0.0525   -3.4724 C   0  0  1  0  0  0  0  0  0  0  0  0
  -11.0981    1.0994   -2.9986 O   0  0  0  0  0  0  0  0  0  0  0  0
  -10.8534   -1.3178   -3.2200 C   0  0  1  0  0  0  0  0  0  0  0  0
  -12.2814   -1.2657   -3.3479 O   0  0  0  0  0  0  0  0  0  0  0  0
  -10.3615   -2.1551   -4.3840 C   0  0  2  0  0  0  0  0  0  0  0  0
   -6.0785   -3.8541   -6.5806 N   0  0  0  0  0  0  0  0  0  0  0  0
   -7.1480   -3.2444   -7.1408 C   0  0  1  0  0  0  0  0  0  0  0  0
   -7.1519   -3.0116   -8.4729 N   0  0  0  0  0  0  0  0  0  0  0  0
   -8.2079   -2.8674   -6.3881 N   0  0  0  0  0  0  0  0  0  0  0  0
   -8.1983   -3.1040   -5.0544 C   0  0  1  0  0  0  0  0  0  0  0  0
   -7.1203   -3.7262   -4.4562 C   0  0  2  0  0  0  0  0  0  0  0  0
   -6.0440   -4.1026   -5.2512 C   0  0  0  0  0  0  0  0  0  0  0  0
   -5.0508   -4.6670   -4.7516 O   0  0  0  0  0  0  0  0  0  0  0  0
   -7.3977   -3.8285   -3.1403 N   0  0  0  0  0  0  0  0  0  0  0  0
   -8.6151   -3.2752   -2.9312 C   0  0  0  0  0  0  0  0  0  0  0  0
   -9.0854   -2.8394   -4.1042 N   0  0  1  0  0  0  0  0  0  0  0  0
  1  2  1  6  0  0  0
  1  3  1  0  0  0  0
  1  4  2  0  0  0  0
  1  6  1  0  0  0  0
  5  6  1  0  0  0  0
  7  5  1  1  0  0  0
  7  8  1  0  0  0  0
  7  9  1  0  0  0  0
  9 10  1  6  0  0  0
  9 11  1  0  0  0  0
 11 12  1  6  0  0  0
 11 13  1  0  0  0  0
 13  8  1  6  0  0  0
 13 24  1  0  0  0  0
 14 15  1  0  0  0  0
 14 20  1  0  0  0  0
 15 16  1  6  0  0  0
 15 17  1  0  0  0  0
 18 17  1  1  0  0  0
 18 19  1  0  0  0  0
 18 24  1  0  0  0  0
 19 20  1  6  0  0  0
 19 22  1  0  0  0  0
 20 21  2  0  0  0  0
 22 23  1  0  0  0  0
 24 23  1  1  0  0  0
M  CHG  1   3  -1
M  END
>  <CHROM.1>
-64.02272575,26.72065985,-174.60201513,-34.03966210,-8.33019212,-1.32743643
-5.54040841,0.20199335,0.69112500,-0.56116207

>  <Name>
ligand

>  <RI>
0

>  <Rbt.Current_Directory>
/home/itssahil/PROJECTS/Mol_Feturizer/New_Systems/rnas/3SLQ

>  <Rbt.Executable>
rbdock ($Id: //depot/dev/client3/rdock/2013.1/src/exe/rbdock.cxx#4 $)

>  <Rbt.Library>
libRbt.so (2013.1, Build901 2013/11/27)

>  <Rbt.Parameter_File>
/export/apps/rDock/src/rDock_2013.1_src/data/scripts/dock_solv.prm

>  <Rbt.Receptor>
prm/blind_docking_100.prm

>  <SCORE>
-22.4161

>  <SCORE.INTER>
-19.057

>  <SCORE.INTER.CONST>
1

>  <SCORE.INTER.POLAR>
0

>  <SCORE.INTER.ROT>
4

>  <SCORE.INTER.SOLV>
10.8293

>  <SCORE.INTER.VDW>
-22.5811

>  <SCORE.INTER.norm>
-0.794044

>  <SCORE.INTRA>
-3.35903

>  <SCORE.INTRA.DIHEDRAL>
-8.7695

>  <SCORE.INTRA.DIHEDRAL.0>
13.2525

>  <SCORE.INTRA.POLAR>
0

>  <SCORE.INTRA.POLAR.0>
0

>  <SCORE.INTRA.REPUL>
0

>  <SCORE.INTRA.REPUL.0>
0

>  <SCORE.INTRA.SOLV>
3.45234

>  <SCORE.INTRA.SOLV.lig_0>
-70.7221

>  <SCORE.INTRA.VDW>
-0.700447

>  <SCORE.INTRA.VDW.0>
-1.46337

>  <SCORE.INTRA.norm>
-0.139959

>  <SCORE.RESTR>
0

>  <SCORE.RESTR.CAVITY>
0

>  <SCORE.RESTR.norm>
0

>  <SCORE.SYSTEM>
0

>  <SCORE.SYSTEM.CONST>
0

>  <SCORE.SYSTEM.DIHEDRAL>
0

>  <SCORE.SYSTEM.SOLV>
0

>  <SCORE.SYSTEM.norm>
0

>  <SCORE.heavy>
24

>  <SCORE.norm>
-0.934003

>  <RMSD>
17.949

$$$$
ligand
 OpenBabel11021811483D
libRbt.so/2013.1/901 2013/11/27
 24 26  0  0  0  0  0  0  0  0999 V2000
   -8.0761   -1.4030   -6.8805 P   0  0  1  0  0  0  0  0  0  0  0  0
   -6.8900   -0.7244   -7.5318 O   0  0  0  0  0  0  0  0  0  0  0  0
   -9.2734   -1.6557   -7.7661 O   0  5  0  0  0  0  0  0  0  0  0  0
   -7.7086   -2.6099   -6.0302 O   0  0  0  0  0  0  0  0  0  0  0  0
   -9.7604   -0.4930   -4.9703 C   0  0  0  0  0  0  0  0  0  0  0  0
   -8.6695   -0.2695   -5.8804 O   0  0  0  0  0  0  0  0  0  0  0  0
   -9.9770    0.7497   -4.1017 C   0  0  1  0  0  0  0  0  0  0  0  0
   -8.7774    1.1432   -3.4233 O   0  0  0  0  0  0  0  0  0  0  0  0
  -10.4444    1.9822   -4.8568 C   0  0  1  0  0  0  0  0  0  0  0  0
  -11.8748    2.0020   -4.8708 O   0  0  0  0  0  0  0  0  0  0  0  0
   -9.8791    3.1305   -4.0370 C   0  0  1  0  0  0  0  0  0  0  0  0
  -10.7325    3.4185   -2.9203 O   0  0  0  0  0  0  0  0  0  0  0  0
   -8.6014    2.5651   -3.4493 C   0  0  2  0  0  0  0  0  0  0  0  0
   -5.2154    6.1193   -4.8490 N   0  0  0  0  0  0  0  0  0  0  0  0
   -6.2682    6.2203   -4.0059 C   0  0  1  0  0  0  0  0  0  0  0  0
   -6.5194    7.4043   -3.4030 N   0  0  0  0  0  0  0  0  0  0  0  0
   -7.0684    5.1565   -3.7607 N   0  0  0  0  0  0  0  0  0  0  0  0
   -6.8119    3.9732   -4.3682 C   0  0  1  0  0  0  0  0  0  0  0  0
   -5.7448    3.8421   -5.2349 C   0  0  2  0  0  0  0  0  0  0  0  0
   -4.9378    4.9494   -5.4691 C   0  0  0  0  0  0  0  0  0  0  0  0
   -3.9642    4.8745   -6.2444 O   0  0  0  0  0  0  0  0  0  0  0  0
   -5.7472    2.5697   -5.6820 N   0  0  0  0  0  0  0  0  0  0  0  0
   -6.7872    1.9294   -5.0985 C   0  0  0  0  0  0  0  0  0  0  0  0
   -7.4213    2.7968   -4.3031 N   0  0  1  0  0  0  0  0  0  0  0  0
  1  2  1  6  0  0  0
  1  3  1  0  0  0  0
  1  4  2  0  0  0  0
  1  6  1  0  0  0  0
  5  6  1  0  0  0  0
  7  5  1  6  0  0  0
  7  8  1  0  0  0  0
  7  9  1  0  0  0  0
  9 10  1  1  0  0  0
  9 11  1  0  0  0  0
 11 12  1  1  0  0  0
 11 13  1  0  0  0  0
 13  8  1  6  0  0  0
 13 24  1  0  0  0  0
 14 15  1  0  0  0  0
 14 20  1  0  0  0  0
 15 16  1  6  0  0  0
 15 17  1  0  0  0  0
 18 17  1  1  0  0  0
 18 19  1  0  0  0  0
 18 24  1  0  0  0  0
 19 20  1  6  0  0  0
 19 22  1  0  0  0  0
 20 21  2  0  0  0  0
 22 23  1  0  0  0  0
 24 23  1  1  0  0  0
M  CHG  1   3  -1
M  END
>  <CHROM.1>
-175.50703858,-54.65420601,175.21355234,-167.64011271,-7.86821289,2.10105938
-5.09651108,-2.00401996,0.42046752,0.45595882

>  <Name>
ligand

>  <RI>
0

>  <Rbt.Current_Directory>
/home/itssahil/PROJECTS/Mol_Feturizer/New_Systems/rnas/3SLQ

>  <Rbt.Executable>
rbdock ($Id: //depot/dev/client3/rdock/2013.1/src/exe/rbdock.cxx#4 $)

>  <Rbt.Library>
libRbt.so (2013.1, Build901 2013/11/27)

>  <Rbt.Parameter_File>
/export/apps/rDock/src/rDock_2013.1_src/data/scripts/dock_solv.prm

>  <Rbt.Receptor>
prm/blind_docking_60.prm

>  <SCORE>
-16.4074

>  <SCORE.INTER>
-10.8684

>  <SCORE.INTER.CONST>
1

>  <SCORE.INTER.POLAR>
0

>  <SCORE.INTER.ROT>
4

>  <SCORE.INTER.SOLV>
13.3837

>  <SCORE.INTER.VDW>
-17.9735

>  <SCORE.INTER.norm>
-0.452851

>  <SCORE.INTRA>
-6.4986

>  <SCORE.INTRA.DIHEDRAL>
-11.7906

>  <SCORE.INTRA.DIHEDRAL.0>
13.2525

>  <SCORE.INTRA.POLAR>
0

>  <SCORE.INTRA.POLAR.0>
0

>  <SCORE.INTRA.REPUL>
0

>  <SCORE.INTRA.REPUL.0>
0

>  <SCORE.INTRA.SOLV>
0.598157

>  <SCORE.INTRA.SOLV.lig_0>
-70.7221

>  <SCORE.INTRA.VDW>
-0.902386

>  <SCORE.INTRA.VDW.0>
-1.46337

>  <SCORE.INTRA.norm>
-0.270775

>  <SCORE.RESTR>
0.959572

>  <SCORE.RESTR.CAVITY>
0.959572

>  <SCORE.RESTR.norm>
0.0399822

>  <SCORE.SYSTEM>
0

>  <SCORE.SYSTEM.CONST>
0

>  <SCORE.SYSTEM.DIHEDRAL>
0

>  <SCORE.SYSTEM.SOLV>
0

>  <SCORE.SYSTEM.norm>
0

>  <SCORE.heavy>
24

>  <SCORE.norm>
-0.683643

>  <RMSD>
17.956

$$$$
ligand
 OpenBabel11021811483D
libRbt.so/2013.1/901 2013/11/27
 24 26  0  0  0  0  0  0  0  0999 V2000
  -11.4172   -1.3980   -3.4537 P   0  0  1  0  0  0  0  0  0  0  0  0
  -10.4457   -2.3308   -2.7628 O   0  0  0  0  0  0  0  0  0  0  0  0
  -12.8089   -1.9353   -3.6909 O   0  5  0  0  0  0  0  0  0  0  0  0
  -11.4207    0.0169   -2.8946 O   0  0  0  0  0  0  0  0  0  0  0  0
   -9.8263   -2.1688   -5.5003 C   0  0  0  0  0  0  0  0  0  0  0  0
  -10.8581   -1.3150   -4.9761 O   0  0  0  0  0  0  0  0  0  0  0  0
   -9.3306   -1.6228   -6.8427 C   0  0  1  0  0  0  0  0  0  0  0  0
   -9.3259   -0.1898   -6.8678 O   0  0  0  0  0  0  0  0  0  0  0  0
   -7.9212   -2.0444   -7.2215 C   0  0  1  0  0  0  0  0  0  0  0  0
   -7.9883   -3.2561   -7.9792 O   0  0  0  0  0  0  0  0  0  0  0  0
   -7.4244   -0.8843   -8.0686 C   0  0  1  0  0  0  0  0  0  0  0  0
   -7.8895   -1.0131   -9.4196 O   0  0  0  0  0  0  0  0  0  0  0  0
   -8.1425    0.3208   -7.4943 C   0  0  2  0  0  0  0  0  0  0  0  0
   -3.4144    1.3460   -5.8666 N   0  0  0  0  0  0  0  0  0  0  0  0
   -3.8166    0.6512   -6.9551 C   0  0  1  0  0  0  0  0  0  0  0  0
   -2.8858    0.1267   -7.7839 N   0  0  0  0  0  0  0  0  0  0  0  0
   -5.1319    0.4757   -7.2222 N   0  0  0  0  0  0  0  0  0  0  0  0
   -6.0595    1.0031   -6.3878 C   0  0  1  0  0  0  0  0  0  0  0  0
   -5.6772    1.7156   -5.2682 C   0  0  2  0  0  0  0  0  0  0  0  0
   -4.3203    1.8823   -5.0168 C   0  0  0  0  0  0  0  0  0  0  0  0
   -3.9319    2.5185   -4.0173 O   0  0  0  0  0  0  0  0  0  0  0  0
   -6.8043    2.1052   -4.6384 N   0  0  0  0  0  0  0  0  0  0  0  0
   -7.8569    1.6499   -5.3573 C   0  0  0  0  0  0  0  0  0  0  0  0
   -7.3856    0.9844   -6.4165 N   0  0  1  0  0  0  0  0  0  0  0  0
  1  2  1  1  0  0  0
  1  3  1  0  0  0  0
  1  4  2  0  0  0  0
  1  6  1  0  0  0  0
  5  6  1  0  0  0  0
  7  5  1  1  0  0  0
  7  8  1  0  0  0  0
  7  9  1  0  0  0  0
  9 10  1  6  0  0  0
  9 11  1  0  0  0  0
 11 12  1  6  0  0  0
 11 13  1  0  0  0  0
 13  8  1  1  0  0  0
 13 24  1  0  0  0  0
 14 15  1  0  0  0  0
 14 20  1  0  0  0  0
 15 16  1  1  0  0  0
 15 17  1  0  0  0  0
 18 17  1  6  0  0  0
 18 19  1  0  0  0  0
 18 24  1  0  0  0  0
 19 20  1  1  0  0  0
 19 22  1  0  0  0  0
 20 21  2  0  0  0  0
 22 23  1  0  0  0  0
 24 23  1  6  0  0  0
M  CHG  1   3  -1
M  END
>  <CHROM.1>
10.15183891,35.36998485,-167.42217540,146.51752674,-7.89882364,-0.26862935
-5.76328332,-3.05446783,-0.47472021,-2.09373335

>  <Name>
ligand

>  <RI>
0

>  <Rbt.Current_Directory>
/home/itssahil/PROJECTS/Mol_Feturizer/New_Systems/rnas/3SLQ

>  <Rbt.Executable>
rbdock ($Id: //depot/dev/client3/rdock/2013.1/src/exe/rbdock.cxx#4 $)

>  <Rbt.Library>
libRbt.so (2013.1, Build901 2013/11/27)

>  <Rbt.Parameter_File>
/export/apps/rDock/src/rDock_2013.1_src/data/scripts/dock_solv.prm

>  <Rbt.Receptor>
prm/blind_docking_40.prm

>  <SCORE>
-10.4584

>  <SCORE.INTER>
-7.49847

>  <SCORE.INTER.CONST>
1

>  <SCORE.INTER.POLAR>
0

>  <SCORE.INTER.ROT>
4

>  <SCORE.INTER.SOLV>
19.3202

>  <SCORE.INTER.VDW>
-17.7057

>  <SCORE.INTER.norm>
-0.312436

>  <SCORE.INTRA>
-2.99318

>  <SCORE.INTRA.DIHEDRAL>
-7.178

>  <SCORE.INTRA.DIHEDRAL.0>
13.2525

>  <SCORE.INTRA.POLAR>
0

>  <SCORE.INTRA.POLAR.0>
0

>  <SCORE.INTRA.REPUL>
0

>  <SCORE.INTRA.REPUL.0>
0

>  <SCORE.INTRA.SOLV>
-0.208643

>  <SCORE.INTRA.SOLV.lig_0>
-70.7221

>  <SCORE.INTRA.VDW>
0.700137

>  <SCORE.INTRA.VDW.0>
-1.46337

>  <SCORE.INTRA.norm>
-0.124716

>  <SCORE.RESTR>
0.0332139

>  <SCORE.RESTR.CAVITY>
0.0332139

>  <SCORE.RESTR.norm>
0.00138391

>  <SCORE.SYSTEM>
0

>  <SCORE.SYSTEM.CONST>
0

>  <SCORE.SYSTEM.DIHEDRAL>
0

>  <SCORE.SYSTEM.SOLV>
0

>  <SCORE.SYSTEM.norm>
0

>  <SCORE.heavy>
24

>  <SCORE.norm>
-0.435768

>  <RMSD>
17.963

$$$$
ligand
 OpenBabel11021811483D
libRbt.so/2013.1/901 2013/11/27
 24 26  0  0  0  0  0  0  0  0999 V2000
   -6.9147    0.2213   -8.0632 P   0  0  1  0  0  0  0  0  0  0  0  0
   -7.7029    0.5984   -9.2993 O   0  0  0  0  0  0  0  0  0  0  0  0
   -7.0072   -1.2208   -7.6232 O   0  5  0  0  0  0  0  0  0  0  0  0
   -5.4875    0.7482   -8.0544 O   0  0  0  0  0  0  0  0  0  0  0  0
   -9.0784    0.6841   -6.5082 C   0  0  0  0  0  0  0  0  0  0  0  0
   -7.7107    0.9606   -6.8561 O   0  0  0  0  0  0  0  0  0  0  0  0
   -9.6022    1.7637   -5.5564 C   0  0  1  0  0  0  0  0  0  0  0  0
  -11.0111    1.6360   -5.3270 O   0  0  0  0  0  0  0  0  0  0  0  0
   -8.9608    1.7657   -4.1793 C   0  0  1  0  0  0  0  0  0  0  0  0
   -7.8237    2.6336   -4.1993 O   0  0  0  0  0  0  0  0  0  0  0  0
  -10.0606    2.3088   -3.2816 C   0  0  1  0  0  0  0  0  0  0  0  0
  -10.0907    3.7422   -3.3346 O   0  0  0  0  0  0  0  0  0  0  0  0
  -11.3395    1.8408   -3.9473 C   0  0  2  0  0  0  0  0  0  0  0  0
  -14.3575   -0.3907   -0.4877 N   0  0  0  0  0  0  0  0  0  0  0  0
  -14.1112    0.9233   -0.6931 C   0  0  1  0  0  0  0  0  0  0  0  0
  -14.7235    1.8396    0.0905 N   0  0  0  0  0  0  0  0  0  0  0  0
  -13.2639    1.3289   -1.6676 N   0  0  0  0  0  0  0  0  0  0  0  0
  -12.6531    0.4061   -2.4488 C   0  0  1  0  0  0  0  0  0  0  0  0
  -12.8849   -0.9422   -2.2603 C   0  0  2  0  0  0  0  0  0  0  0  0
  -13.7600   -1.3325   -1.2534 C   0  0  0  0  0  0  0  0  0  0  0  0
  -13.9972   -2.5395   -1.0492 O   0  0  0  0  0  0  0  0  0  0  0  0
  -12.1434   -1.6061   -3.1704 N   0  0  0  0  0  0  0  0  0  0  0  0
  -11.4760   -0.6880   -3.9077 C   0  0  0  0  0  0  0  0  0  0  0  0
  -11.7989    0.5282   -3.4564 N   0  0  1  0  0  0  0  0  0  0  0  0
  1  2  1  6  0  0  0
  1  3  1  0  0  0  0
  1  4  2  0  0  0  0
  1  6  1  0  0  0  0
  5  6  1  0  0  0  0
  7  5  1  6  0  0  0
  7  8  1  0  0  0  0
  7  9  1  0  0  0  0
  9 10  1  6  0  0  0
  9 11  1  0  0  0  0
 11 12  1  6  0  0  0
 11 13  1  0  0  0  0
 13  8  1  6  0  0  0
 13 24  1  0  0  0  0
 14 15  1  0  0  0  0
 14 20  1  0  0  0  0
 15 16  1  1  0  0  0
 15 17  1  0  0  0  0
 18 17  1  6  0  0  0
 18 19  1  0  0  0  0
 18 24  1  0  0  0  0
 19 20  1  1  0  0  0
 19 22  1  0  0  0  0
 20 21  2  0  0  0  0
 22 23  1  0  0  0  0
 24 23  1  6  0  0  0
M  CHG  1   3  -1
M  END
>  <CHROM.1>
61.62779509,171.96494738,-167.14076464,-152.73477012,-10.42584676,0.63506900
-4.34278558,0.19081897,-0.75851638,-2.77143804

>  <Name>
ligand

>  <RI>
0

>  <Rbt.Current_Directory>
/home/itssahil/PROJECTS/Mol_Feturizer/New_Systems/rnas/3SLQ

>  <Rbt.Executable>
rbdock ($Id: //depot/dev/client3/rdock/2013.1/src/exe/rbdock.cxx#4 $)

>  <Rbt.Library>
libRbt.so (2013.1, Build901 2013/11/27)

>  <Rbt.Parameter_File>
/export/apps/rDock/src/rDock_2013.1_src/data/scripts/dock_solv.prm

>  <Rbt.Receptor>
prm/blind_docking_80.prm

>  <SCORE>
-21.5495

>  <SCORE.INTER>
-15.7241

>  <SCORE.INTER.CONST>
1

>  <SCORE.INTER.POLAR>
0

>  <SCORE.INTER.ROT>
4

>  <SCORE.INTER.SOLV>
9.72954

>  <SCORE.INTER.VDW>
-19.9926

>  <SCORE.INTER.norm>
-0.65517

>  <SCORE.INTRA>
-5.82542

>  <SCORE.INTRA.DIHEDRAL>
-11.0092

>  <SCORE.INTRA.DIHEDRAL.0>
13.2525

>  <SCORE.INTRA.POLAR>
0

>  <SCORE.INTRA.POLAR.0>
0

>  <SCORE.INTRA.REPUL>
0

>  <SCORE.INTRA.REPUL.0>
0

>  <SCORE.INTRA.SOLV>
0.00689601

>  <SCORE.INTRA.SOLV.lig_0>
-70.7221

>  <SCORE.INTRA.VDW>
-0.324253

>  <SCORE.INTRA.VDW.0>
-1.46337

>  <SCORE.INTRA.norm>
-0.242726

>  <SCORE.RESTR>
0

>  <SCORE.RESTR.CAVITY>
0

>  <SCORE.RESTR.norm>
0

>  <SCORE.SYSTEM>
0

>  <SCORE.SYSTEM.CONST>
0

>  <SCORE.SYSTEM.DIHEDRAL>
0

>  <SCORE.SYSTEM.SOLV>
0

>  <SCORE.SYSTEM.norm>
0

>  <SCORE.heavy>
24

>  <SCORE.norm>
-0.897895

>  <RMSD>
17.968

$$$$
ligand
 OpenBabel11021811483D
libRbt.so/2013.1/901 2013/11/27
 24 26  0  0  0  0  0  0  0  0999 V2000
   -6.8954    1.7723   -7.5236 P   0  0  1  0  0  0  0  0  0  0  0  0
   -8.0640    2.5139   -8.1367 O   0  0  0  0  0  0  0  0  0  0  0  0
   -6.0655    0.9326   -8.4660 O   0  5  0  0  0  0  0  0  0  0  0  0
   -6.0460    2.6203   -6.5888 O   0  0  0  0  0  0  0  0  0  0  0  0
   -9.0217    0.4637   -6.4844 C   0  0  0  0  0  0  0  0  0  0  0  0
   -7.5987    0.6175   -6.6241 O   0  0  0  0  0  0  0  0  0  0  0  0
   -9.5855    1.5954   -5.6201 C   0  0  1  0  0  0  0  0  0  0  0  0
  -11.0068    1.4935   -5.4669 O   0  0  0  0  0  0  0  0  0  0  0  0
   -9.0246    1.6611   -4.2099 C   0  0  1  0  0  0  0  0  0  0  0  0
   -7.8771    2.5156   -4.2073 O   0  0  0  0  0  0  0  0  0  0  0  0
  -10.1671    2.2600   -3.4061 C   0  0  1  0  0  0  0  0  0  0  0  0
  -10.1757    3.6891   -3.5326 O   0  0  0  0  0  0  0  0  0  0  0  0
  -11.4115    1.7715   -4.1206 C   0  0  2  0  0  0  0  0  0  0  0  0
  -14.3589   -0.2625   -0.4830 N   0  0  0  0  0  0  0  0  0  0  0  0
  -14.0524    1.0342   -0.7154 C   0  0  1  0  0  0  0  0  0  0  0  0
  -14.5711    1.9891    0.0893 N   0  0  0  0  0  0  0  0  0  0  0  0
  -13.2371    1.3846   -1.7374 N   0  0  0  0  0  0  0  0  0  0  0  0
  -12.7201    0.4234   -2.5396 C   0  0  1  0  0  0  0  0  0  0  0  0
  -13.0148   -0.9085   -2.3245 C   0  0  2  0  0  0  0  0  0  0  0  0
  -13.8552   -1.2420   -1.2688 C   0  0  0  0  0  0  0  0  0  0  0  0
  -14.1469   -2.4323   -1.0393 O   0  0  0  0  0  0  0  0  0  0  0  0
  -12.3601   -1.6196   -3.2651 N   0  0  0  0  0  0  0  0  0  0  0  0
  -11.6837   -0.7456   -4.0465 C   0  0  0  0  0  0  0  0  0  0  0  0
  -11.9152    0.4901   -3.5920 N   0  0  1  0  0  0  0  0  0  0  0  0
  1  2  1  6  0  0  0
  1  3  1  0  0  0  0
  1  4  2  0  0  0  0
  1  6  1  0  0  0  0
  5  6  1  0  0  0  0
  7  5  1  1  0  0  0
  7  8  1  0  0  0  0
  7  9  1  0  0  0  0
  9 10  1  6  0  0  0
  9 11  1  0  0  0  0
 11 12  1  6  0  0  0
 11 13  1  0  0  0  0
 13  8  1  6  0  0  0
 13 24  1  0  0  0  0
 14 15  1  0  0  0  0
 14 20  1  0  0  0  0
 15 16  1  1  0  0  0
 15 17  1  0  0  0  0
 18 17  1  6  0  0  0
 18 19  1  0  0  0  0
 18 24  1  0  0  0  0
 19 20  1  1  0  0  0
 19 22  1  0  0  0  0
 20 21  2  0  0  0  0
 22 23  1  0  0  0  0
 24 23  1  6  0  0  0
M  CHG  1   3  -1
M  END
>  <CHROM.1>
-1.84263599,179.24129762,-71.82467376,-159.95498843,-10.45797060,1.00788001
-4.25632170,0.06299604,-0.74951248,-2.72989428

>  <Name>
ligand

>  <RI>
0

>  <Rbt.Current_Directory>
/home/itssahil/PROJECTS/Mol_Feturizer/New_Systems/rnas/3SLQ

>  <Rbt.Executable>
rbdock ($Id: //depot/dev/client3/rdock/2013.1/src/exe/rbdock.cxx#4 $)

>  <Rbt.Library>
libRbt.so (2013.1, Build901 2013/11/27)

>  <Rbt.Parameter_File>
/export/apps/rDock/src/rDock_2013.1_src/data/scripts/dock_solv.prm

>  <Rbt.Receptor>
prm/blind_docking_100.prm

>  <SCORE>
-22.6059

>  <SCORE.INTER>
-18.8165

>  <SCORE.INTER.CONST>
1

>  <SCORE.INTER.POLAR>
0

>  <SCORE.INTER.ROT>
4

>  <SCORE.INTER.SOLV>
12.4438

>  <SCORE.INTER.VDW>
-22.9589

>  <SCORE.INTER.norm>
-0.78402

>  <SCORE.INTRA>
-3.78942

>  <SCORE.INTRA.DIHEDRAL>
-8.97015

>  <SCORE.INTRA.DIHEDRAL.0>
13.2525

>  <SCORE.INTRA.POLAR>
0

>  <SCORE.INTRA.POLAR.0>
0

>  <SCORE.INTRA.REPUL>
0

>  <SCORE.INTRA.REPUL.0>
0

>  <SCORE.INTRA.SOLV>
2.35919

>  <SCORE.INTRA.SOLV.lig_0>
-70.7221

>  <SCORE.INTRA.VDW>
-0.48394

>  <SCORE.INTRA.VDW.0>
-1.46337

>  <SCORE.INTRA.norm>
-0.157892

>  <SCORE.RESTR>
0

>  <SCORE.RESTR.CAVITY>
0

>  <SCORE.RESTR.norm>
0

>  <SCORE.SYSTEM>
0

>  <SCORE.SYSTEM.CONST>
0

>  <SCORE.SYSTEM.DIHEDRAL>
0

>  <SCORE.SYSTEM.SOLV>
0

>  <SCORE.SYSTEM.norm>
0

>  <SCORE.heavy>
24

>  <SCORE.norm>
-0.941913

>  <RMSD>
18.015

$$$$
ligand
 OpenBabel11021811483D
libRbt.so/2013.1/901 2013/11/27
 24 26  0  0  0  0  0  0  0  0999 V2000
   -6.9979    1.7783   -7.4592 P   0  0  1  0  0  0  0  0  0  0  0  0
   -6.5742    2.8219   -6.4478 O   0  0  0  0  0  0  0  0  0  0  0  0
   -7.5657    2.2966   -8.7595 O   0  5  0  0  0  0  0  0  0  0  0  0
   -5.9806    0.6657   -7.6638 O   0  0  0  0  0  0  0  0  0  0  0  0
   -8.5130    0.9497   -5.3779 C   0  0  0  0  0  0  0  0  0  0  0  0
   -8.3195    1.1088   -6.7940 O   0  0  0  0  0  0  0  0  0  0  0  0
   -9.7214    0.0460   -5.1156 C   0  0  1  0  0  0  0  0  0  0  0  0
   -9.5251   -1.2739   -5.6387 O   0  0  0  0  0  0  0  0  0  0  0  0
  -10.0712   -0.1417   -3.6493 C   0  0  1  0  0  0  0  0  0  0  0  0
  -11.0092    0.8675   -3.2642 O   0  0  0  0  0  0  0  0  0  0  0  0
  -10.6965   -1.5266   -3.6129 C   0  0  1  0  0  0  0  0  0  0  0  0
  -12.0778   -1.4646   -3.9955 O   0  0  0  0  0  0  0  0  0  0  0  0
   -9.9898   -2.2755   -4.7253 C   0  0  2  0  0  0  0  0  0  0  0  0
   -5.6489   -4.4052   -6.3617 N   0  0  0  0  0  0  0  0  0  0  0  0
   -6.6384   -3.8171   -7.0718 C   0  0  1  0  0  0  0  0  0  0  0  0
   -6.5283   -3.7392   -8.4173 N   0  0  0  0  0  0  0  0  0  0  0  0
   -7.7309   -3.3091   -6.4549 N   0  0  0  0  0  0  0  0  0  0  0  0
   -7.8357   -3.3907   -5.1069 C   0  0  1  0  0  0  0  0  0  0  0  0
   -6.8412   -3.9873   -4.3570 C   0  0  2  0  0  0  0  0  0  0  0  0
   -5.7292   -4.5004   -5.0145 C   0  0  0  0  0  0  0  0  0  0  0  0
   -4.8086   -5.0472   -4.3757 O   0  0  0  0  0  0  0  0  0  0  0  0
   -7.2232   -3.9250   -3.0651 N   0  0  0  0  0  0  0  0  0  0  0  0
   -8.4216   -3.2977   -3.0191 C   0  0  0  0  0  0  0  0  0  0  0  0
   -8.7771   -2.9793   -4.2678 N   0  0  1  0  0  0  0  0  0  0  0  0
  1  2  1  1  0  0  0
  1  3  1  0  0  0  0
  1  4  2  0  0  0  0
  1  6  1  0  0  0  0
  5  6  1  0  0  0  0
  7  5  1  1  0  0  0
  7  8  1  0  0  0  0
  7  9  1  0  0  0  0
  9 10  1  6  0  0  0
  9 11  1  0  0  0  0
 11 12  1  6  0  0  0
 11 13  1  0  0  0  0
 13  8  1  6  0  0  0
 13 24  1  0  0  0  0
 14 15  1  0  0  0  0
 14 20  1  0  0  0  0
 15 16  1  6  0  0  0
 15 17  1  0  0  0  0
 18 17  1  1  0  0  0
 18 19  1  0  0  0  0
 18 24  1  0  0  0  0
 19 20  1  6  0  0  0
 19 22  1  0  0  0  0
 20 21  2  0  0  0  0
 22 23  1  0  0  0  0
 24 23  1  1  0  0  0
M  CHG  1   3  -1
M  END
>  <CHROM.1>
-32.81939877,62.51621928,-168.92085780,-46.74262869,-8.01280626,-1.31771166
-5.56190002,-1.78125588,-0.62915335,2.69801922

>  <Name>
ligand

>  <RI>
0

>  <Rbt.Current_Directory>
/home/itssahil/PROJECTS/Mol_Feturizer/New_Systems/rnas/3SLQ

>  <Rbt.Executable>
rbdock ($Id: //depot/dev/client3/rdock/2013.1/src/exe/rbdock.cxx#4 $)

>  <Rbt.Library>
libRbt.so (2013.1, Build901 2013/11/27)

>  <Rbt.Parameter_File>
/export/apps/rDock/src/rDock_2013.1_src/data/scripts/dock_solv.prm

>  <Rbt.Receptor>
prm/blind_docking_40.prm

>  <SCORE>
-25.4281

>  <SCORE.INTER>
-20.1152

>  <SCORE.INTER.CONST>
1

>  <SCORE.INTER.POLAR>
0

>  <SCORE.INTER.ROT>
4

>  <SCORE.INTER.SOLV>
16.2438

>  <SCORE.INTER.VDW>
-25.0914

>  <SCORE.INTER.norm>
-0.838132

>  <SCORE.INTRA>
-5.31295

>  <SCORE.INTRA.DIHEDRAL>
-10.3999

>  <SCORE.INTRA.DIHEDRAL.0>
13.2525

>  <SCORE.INTRA.POLAR>
0

>  <SCORE.INTRA.POLAR.0>
0

>  <SCORE.INTRA.REPUL>
0

>  <SCORE.INTRA.REPUL.0>
0

>  <SCORE.INTRA.SOLV>
-0.175791

>  <SCORE.INTRA.SOLV.lig_0>
-70.7221

>  <SCORE.INTRA.VDW>
-0.0251183

>  <SCORE.INTRA.VDW.0>
-1.46337

>  <SCORE.INTRA.norm>
-0.221373

>  <SCORE.RESTR>
0

>  <SCORE.RESTR.CAVITY>
0

>  <SCORE.RESTR.norm>
0

>  <SCORE.SYSTEM>
0

>  <SCORE.SYSTEM.CONST>
0

>  <SCORE.SYSTEM.DIHEDRAL>
0

>  <SCORE.SYSTEM.SOLV>
0

>  <SCORE.SYSTEM.norm>
0

>  <SCORE.heavy>
24

>  <SCORE.norm>
-1.0595

>  <RMSD>
18.017

$$$$
ligand
 OpenBabel11021811483D
libRbt.so/2013.1/901 2013/11/27
 24 26  0  0  0  0  0  0  0  0999 V2000
   -5.4516    3.6534   -5.3667 P   0  0  1  0  0  0  0  0  0  0  0  0
   -5.6119    5.0703   -5.8748 O   0  0  0  0  0  0  0  0  0  0  0  0
   -5.3021    2.5777   -6.4165 O   0  5  0  0  0  0  0  0  0  0  0  0
   -4.4468    3.5124   -4.2331 O   0  0  0  0  0  0  0  0  0  0  0  0
   -7.2714    1.9979   -4.2436 C   0  0  0  0  0  0  0  0  0  0  0  0
   -6.9151    3.2906   -4.7636 O   0  0  0  0  0  0  0  0  0  0  0  0
   -7.4094    0.9945   -5.3924 C   0  0  1  0  0  0  0  0  0  0  0  0
   -7.6726   -0.3311   -4.9153 O   0  0  0  0  0  0  0  0  0  0  0  0
   -8.5222    1.3037   -6.3792 C   0  0  1  0  0  0  0  0  0  0  0  0
   -7.9947    2.1157   -7.4324 O   0  0  0  0  0  0  0  0  0  0  0  0
   -8.9323   -0.0693   -6.8861 C   0  0  1  0  0  0  0  0  0  0  0  0
   -8.0483   -0.5047   -7.9288 O   0  0  0  0  0  0  0  0  0  0  0  0
   -8.6701   -0.9866   -5.7082 C   0  0  2  0  0  0  0  0  0  0  0  0
  -11.8123    1.6094   -2.6350 N   0  0  0  0  0  0  0  0  0  0  0  0
  -10.7475    2.0482   -3.3443 C   0  0  1  0  0  0  0  0  0  0  0  0
  -10.4090    3.3560   -3.2848 N   0  0  0  0  0  0  0  0  0  0  0  0
  -10.0213    1.1985   -4.1077 N   0  0  0  0  0  0  0  0  0  0  0  0
  -10.3651   -0.1105   -4.1626 C   0  0  1  0  0  0  0  0  0  0  0  0
  -11.4465   -0.5863   -3.4474 C   0  0  2  0  0  0  0  0  0  0  0  0
  -12.1763    0.3069   -2.6718 C   0  0  0  0  0  0  0  0  0  0  0  0
  -13.1597   -0.0809   -2.0105 O   0  0  0  0  0  0  0  0  0  0  0  0
  -11.5368   -1.9094   -3.6928 N   0  0  0  0  0  0  0  0  0  0  0  0
  -10.5389   -2.2399   -4.5454 C   0  0  0  0  0  0  0  0  0  0  0  0
   -9.8387   -1.1349   -4.8208 N   0  0  1  0  0  0  0  0  0  0  0  0
  1  2  1  6  0  0  0
  1  3  1  0  0  0  0
  1  4  2  0  0  0  0
  1  6  1  0  0  0  0
  5  6  1  0  0  0  0
  7  5  1  1  0  0  0
  7  8  1  0  0  0  0
  7  9  1  0  0  0  0
  9 10  1  6  0  0  0
  9 11  1  0  0  0  0
 11 12  1  6  0  0  0
 11 13  1  0  0  0  0
 13  8  1  1  0  0  0
 13 24  1  0  0  0  0
 14 15  1  0  0  0  0
 14 20  1  0  0  0  0
 15 16  1  1  0  0  0
 15 17  1  0  0  0  0
 18 17  1  6  0  0  0
 18 19  1  0  0  0  0
 18 24  1  0  0  0  0
 19 20  1  1  0  0  0
 19 22  1  0  0  0  0
 20 21  2  0  0  0  0
 22 23  1  0  0  0  0
 24 23  1  6  0  0  0
M  CHG  1   3  -1
M  END
>  <CHROM.1>
175.64004809,175.93736634,-72.02077606,52.73822622,-8.64040096,1.25143578
-4.83753793,0.24315996,0.59518173,0.61626210

>  <Name>
ligand

>  <RI>
0

>  <Rbt.Current_Directory>
/home/itssahil/PROJECTS/Mol_Feturizer/New_Systems/rnas/3SLQ

>  <Rbt.Executable>
rbdock ($Id: //depot/dev/client3/rdock/2013.1/src/exe/rbdock.cxx#4 $)

>  <Rbt.Library>
libRbt.so (2013.1, Build901 2013/11/27)

>  <Rbt.Parameter_File>
/export/apps/rDock/src/rDock_2013.1_src/data/scripts/dock_solv.prm

>  <Rbt.Receptor>
prm/blind_docking_60.prm

>  <SCORE>
-16.1663

>  <SCORE.INTER>
-13.3662

>  <SCORE.INTER.CONST>
1

>  <SCORE.INTER.POLAR>
0

>  <SCORE.INTER.ROT>
4

>  <SCORE.INTER.SOLV>
12.2724

>  <SCORE.INTER.VDW>
-19.2683

>  <SCORE.INTER.norm>
-0.556925

>  <SCORE.INTRA>
-2.80012

>  <SCORE.INTRA.DIHEDRAL>
-11.279

>  <SCORE.INTRA.DIHEDRAL.0>
13.2525

>  <SCORE.INTRA.POLAR>
0

>  <SCORE.INTRA.POLAR.0>
0

>  <SCORE.INTRA.REPUL>
0

>  <SCORE.INTRA.REPUL.0>
0

>  <SCORE.INTRA.SOLV>
6.76326

>  <SCORE.INTRA.SOLV.lig_0>
-70.7221

>  <SCORE.INTRA.VDW>
-0.542278

>  <SCORE.INTRA.VDW.0>
-1.46337

>  <SCORE.INTRA.norm>
-0.116672

>  <SCORE.RESTR>
0

>  <SCORE.RESTR.CAVITY>
0

>  <SCORE.RESTR.norm>
0

>  <SCORE.SYSTEM>
0

>  <SCORE.SYSTEM.CONST>
0

>  <SCORE.SYSTEM.DIHEDRAL>
0

>  <SCORE.SYSTEM.SOLV>
0

>  <SCORE.SYSTEM.norm>
0

>  <SCORE.heavy>
24

>  <SCORE.norm>
-0.673597

>  <RMSD>
18.021

$$$$
ligand
 OpenBabel11021811483D
libRbt.so/2013.1/901 2013/11/27
 24 26  0  0  0  0  0  0  0  0999 V2000
  -13.1759   -0.8252   -2.6723 P   0  0  1  0  0  0  0  0  0  0  0  0
  -12.8267   -2.1645   -3.2854 O   0  0  0  0  0  0  0  0  0  0  0  0
  -14.0805    0.0695   -3.4866 O   0  5  0  0  0  0  0  0  0  0  0  0
  -13.5872   -0.9024   -1.2096 O   0  0  0  0  0  0  0  0  0  0  0  0
  -10.7171   -0.2851   -3.6604 C   0  0  0  0  0  0  0  0  0  0  0  0
  -11.7826    0.0064   -2.7396 O   0  0  0  0  0  0  0  0  0  0  0  0
   -9.5592    0.6937   -3.4438 C   0  0  1  0  0  0  0  0  0  0  0  0
   -8.3405    0.2179   -4.0290 O   0  0  0  0  0  0  0  0  0  0  0  0
   -9.7790    2.0803   -4.0243 C   0  0  1  0  0  0  0  0  0  0  0  0
  -10.3869    2.9082   -3.0285 O   0  0  0  0  0  0  0  0  0  0  0  0
   -8.3713    2.5486   -4.3551 C   0  0  1  0  0  0  0  0  0  0  0  0
   -7.7292    3.0757   -3.1854 O   0  0  0  0  0  0  0  0  0  0  0  0
   -7.6317    1.2700   -4.6954 C   0  0  2  0  0  0  0  0  0  0  0  0
   -4.7305    0.4342   -8.8113 N   0  0  0  0  0  0  0  0  0  0  0  0
   -4.3617    0.7668   -7.5532 C   0  0  1  0  0  0  0  0  0  0  0  0
   -3.0479    0.9104   -7.2671 N   0  0  0  0  0  0  0  0  0  0  0  0
   -5.2868    0.9567   -6.5836 N   0  0  0  0  0  0  0  0  0  0  0  0
   -6.6014    0.8119   -6.8766 C   0  0  1  0  0  0  0  0  0  0  0  0
   -7.0065    0.4746   -8.1531 C   0  0  2  0  0  0  0  0  0  0  0  0
   -6.0367    0.2843   -9.1305 C   0  0  0  0  0  0  0  0  0  0  0  0
   -6.3591   -0.0210  -10.2956 O   0  0  0  0  0  0  0  0  0  0  0  0
   -8.3535    0.4097   -8.1406 N   0  0  0  0  0  0  0  0  0  0  0  0
   -8.7686    0.6930   -6.8839 C   0  0  0  0  0  0  0  0  0  0  0  0
   -7.6911    0.9331   -6.1300 N   0  0  1  0  0  0  0  0  0  0  0  0
  1  2  1  6  0  0  0
  1  3  1  0  0  0  0
  1  4  2  0  0  0  0
  1  6  1  0  0  0  0
  5  6  1  0  0  0  0
  7  5  1  6  0  0  0
  7  8  1  0  0  0  0
  7  9  1  0  0  0  0
  9 10  1  1  0  0  0
  9 11  1  0  0  0  0
 11 12  1  1  0  0  0
 11 13  1  0  0  0  0
 13  8  1  1  0  0  0
 13 24  1  0  0  0  0
 14 15  1  0  0  0  0
 14 20  1  0  0  0  0
 15 16  1  6  0  0  0
 15 17  1  0  0  0  0
 18 17  1  1  0  0  0
 18 19  1  0  0  0  0
 18 24  1  0  0  0  0
 19 20  1  6  0  0  0
 19 22  1  0  0  0  0
 20 21  2  0  0  0  0
 22 23  1  0  0  0  0
 24 23  1  1  0  0  0
M  CHG  1   3  -1
M  END
>  <CHROM.1>
22.80227101,162.45064180,-179.92340084,-124.32662249,-8.95755923,0.54833493
-5.15316885,2.68543937,0.48138080,1.00272557

>  <Name>
ligand

>  <RI>
0

>  <Rbt.Current_Directory>
/home/itssahil/PROJECTS/Mol_Feturizer/New_Systems/rnas/3SLQ

>  <Rbt.Executable>
rbdock ($Id: //depot/dev/client3/rdock/2013.1/src/exe/rbdock.cxx#4 $)

>  <Rbt.Library>
libRbt.so (2013.1, Build901 2013/11/27)

>  <Rbt.Parameter_File>
/export/apps/rDock/src/rDock_2013.1_src/data/scripts/dock_solv.prm

>  <Rbt.Receptor>
prm/blind_docking_20.prm

>  <SCORE>
-19.1025

>  <SCORE.INTER>
-14.1352

>  <SCORE.INTER.CONST>
1

>  <SCORE.INTER.POLAR>
0

>  <SCORE.INTER.ROT>
4

>  <SCORE.INTER.SOLV>
17.0499

>  <SCORE.INTER.VDW>
-21.3734

>  <SCORE.INTER.norm>
-0.588967

>  <SCORE.INTRA>
-4.96729

>  <SCORE.INTRA.DIHEDRAL>
-9.36951

>  <SCORE.INTRA.DIHEDRAL.0>
13.2525

>  <SCORE.INTRA.POLAR>
0

>  <SCORE.INTRA.POLAR.0>
0

>  <SCORE.INTRA.REPUL>
0

>  <SCORE.INTRA.REPUL.0>
0

>  <SCORE.INTRA.SOLV>
-0.220981

>  <SCORE.INTRA.SOLV.lig_0>
-70.7221

>  <SCORE.INTRA.VDW>
-0.172049

>  <SCORE.INTRA.VDW.0>
-1.46337

>  <SCORE.INTRA.norm>
-0.206971

>  <SCORE.RESTR>
0

>  <SCORE.RESTR.CAVITY>
0

>  <SCORE.RESTR.norm>
0

>  <SCORE.SYSTEM>
0

>  <SCORE.SYSTEM.CONST>
0

>  <SCORE.SYSTEM.DIHEDRAL>
0

>  <SCORE.SYSTEM.SOLV>
0

>  <SCORE.SYSTEM.norm>
0

>  <SCORE.heavy>
24

>  <SCORE.norm>
-0.795937

>  <RMSD>
18.022

$$$$
ligand
 OpenBabel11021811483D
libRbt.so/2013.1/901 2013/11/27
 24 26  0  0  0  0  0  0  0  0999 V2000
   -7.0748    1.2704   -8.0180 P   0  0  1  0  0  0  0  0  0  0  0  0
   -5.7246    1.4363   -7.3540 O   0  0  0  0  0  0  0  0  0  0  0  0
   -8.0118    2.4525   -7.9362 O   0  5  0  0  0  0  0  0  0  0  0  0
   -7.0085    0.6682   -9.4136 O   0  0  0  0  0  0  0  0  0  0  0  0
   -7.9476    0.3286   -5.6379 C   0  0  0  0  0  0  0  0  0  0  0  0
   -7.8455    0.2033   -7.0669 O   0  0  0  0  0  0  0  0  0  0  0  0
   -8.9291    1.4492   -5.2822 C   0  0  1  0  0  0  0  0  0  0  0  0
  -10.2886    1.0659   -5.5253 O   0  0  0  0  0  0  0  0  0  0  0  0
   -8.8832    1.9010   -3.8325 C   0  0  1  0  0  0  0  0  0  0  0  0
   -7.9437    2.9731   -3.7112 O   0  0  0  0  0  0  0  0  0  0  0  0
  -10.3037    2.3723   -3.5675 C   0  0  1  0  0  0  0  0  0  0  0  0
  -10.4848    3.7142   -4.0417 O   0  0  0  0  0  0  0  0  0  0  0  0
  -11.1529    1.4952   -4.4660 C   0  0  2  0  0  0  0  0  0  0  0  0
  -14.1592   -0.2743   -0.7393 N   0  0  0  0  0  0  0  0  0  0  0  0
  -13.9210    1.0021   -1.1181 C   0  0  1  0  0  0  0  0  0  0  0  0
  -14.5396    2.0108   -0.4636 N   0  0  0  0  0  0  0  0  0  0  0  0
  -13.0756    1.2795   -2.1381 N   0  0  0  0  0  0  0  0  0  0  0  0
  -12.4585    0.2648   -2.7894 C   0  0  1  0  0  0  0  0  0  0  0  0
  -12.6818   -1.0478   -2.4228 C   0  0  2  0  0  0  0  0  0  0  0  0
  -13.5552   -1.3060   -1.3727 C   0  0  0  0  0  0  0  0  0  0  0  0
  -13.7849   -2.4764   -1.0094 O   0  0  0  0  0  0  0  0  0  0  0  0
  -11.9355   -1.8224   -3.2364 N   0  0  0  0  0  0  0  0  0  0  0  0
  -11.2735   -1.0065   -4.0896 C   0  0  0  0  0  0  0  0  0  0  0  0
  -11.6044    0.2569   -3.8044 N   0  0  1  0  0  0  0  0  0  0  0  0
  1  2  1  1  0  0  0
  1  3  1  0  0  0  0
  1  4  2  0  0  0  0
  1  6  1  0  0  0  0
  5  6  1  0  0  0  0
  7  5  1  1  0  0  0
  7  8  1  0  0  0  0
  7  9  1  0  0  0  0
  9 10  1  6  0  0  0
  9 11  1  0  0  0  0
 11 12  1  6  0  0  0
 11 13  1  0  0  0  0
 13  8  1  6  0  0  0
 13 24  1  0  0  0  0
 14 15  1  0  0  0  0
 14 20  1  0  0  0  0
 15 16  1  1  0  0  0
 15 17  1  0  0  0  0
 18 17  1  6  0  0  0
 18 19  1  0  0  0  0
 18 24  1  0  0  0  0
 19 20  1  1  0  0  0
 19 22  1  0  0  0  0
 20 21  2  0  0  0  0
 22 23  1  0  0  0  0
 24 23  1  6  0  0  0
M  CHG  1   3  -1
M  END
>  <CHROM.1>
50.25057668,73.26540028,72.81388265,-178.01532357,-10.30944165,0.82691855
-4.43361999,0.05078967,-0.77933603,-2.81729717

>  <Name>
ligand

>  <RI>
0

>  <Rbt.Current_Directory>
/home/itssahil/PROJECTS/Mol_Feturizer/New_Systems/rnas/3SLQ

>  <Rbt.Executable>
rbdock ($Id: //depot/dev/client3/rdock/2013.1/src/exe/rbdock.cxx#4 $)

>  <Rbt.Library>
libRbt.so (2013.1, Build901 2013/11/27)

>  <Rbt.Parameter_File>
/export/apps/rDock/src/rDock_2013.1_src/data/scripts/dock_solv.prm

>  <Rbt.Receptor>
prm/blind_docking_80.prm

>  <SCORE>
-21.4222

>  <SCORE.INTER>
-16.5796

>  <SCORE.INTER.CONST>
1

>  <SCORE.INTER.POLAR>
0

>  <SCORE.INTER.ROT>
4

>  <SCORE.INTER.SOLV>
18.5638

>  <SCORE.INTER.VDW>
-23.5077

>  <SCORE.INTER.norm>
-0.690817

>  <SCORE.INTRA>
-4.84259

>  <SCORE.INTRA.DIHEDRAL>
-10.5085

>  <SCORE.INTRA.DIHEDRAL.0>
13.2525

>  <SCORE.INTRA.POLAR>
0

>  <SCORE.INTRA.POLAR.0>
0

>  <SCORE.INTRA.REPUL>
0

>  <SCORE.INTRA.REPUL.0>
0

>  <SCORE.INTRA.SOLV>
1.79278

>  <SCORE.INTRA.SOLV.lig_0>
-70.7221

>  <SCORE.INTRA.VDW>
-0.484743

>  <SCORE.INTRA.VDW.0>
-1.46337

>  <SCORE.INTRA.norm>
-0.201775

>  <SCORE.RESTR>
0

>  <SCORE.RESTR.CAVITY>
0

>  <SCORE.RESTR.norm>
0

>  <SCORE.SYSTEM>
0

>  <SCORE.SYSTEM.CONST>
0

>  <SCORE.SYSTEM.DIHEDRAL>
0

>  <SCORE.SYSTEM.SOLV>
0

>  <SCORE.SYSTEM.norm>
0

>  <SCORE.heavy>
24

>  <SCORE.norm>
-0.892592

>  <RMSD>
18.027

$$$$
ligand
 OpenBabel11021811483D
libRbt.so/2013.1/901 2013/11/27
 24 26  0  0  0  0  0  0  0  0999 V2000
   -5.9823   -2.5100   -7.5392 P   0  0  1  0  0  0  0  0  0  0  0  0
   -4.5415   -2.8782   -7.8217 O   0  0  0  0  0  0  0  0  0  0  0  0
   -6.8694   -2.3008   -8.7439 O   0  5  0  0  0  0  0  0  0  0  0  0
   -6.6403   -3.3640   -6.4657 O   0  0  0  0  0  0  0  0  0  0  0  0
   -5.2146    0.0813   -7.6368 C   0  0  0  0  0  0  0  0  0  0  0  0
   -5.8887   -0.9950   -6.9619 O   0  0  0  0  0  0  0  0  0  0  0  0
   -5.2765    1.3513   -6.7830 C   0  0  1  0  0  0  0  0  0  0  0  0
   -6.6100    1.8684   -6.6903 O   0  0  0  0  0  0  0  0  0  0  0  0
   -4.8023    1.1803   -5.3499 C   0  0  1  0  0  0  0  0  0  0  0  0
   -3.4009    1.4616   -5.2892 O   0  0  0  0  0  0  0  0  0  0  0  0
   -5.6122    2.2159   -4.5871 C   0  0  1  0  0  0  0  0  0  0  0  0
   -5.0032    3.5103   -4.6965 O   0  0  0  0  0  0  0  0  0  0  0  0
   -6.9141    2.3020   -5.3587 C   0  0  2  0  0  0  0  0  0  0  0  0
  -11.1847    2.0177   -2.5771 N   0  0  0  0  0  0  0  0  0  0  0  0
  -10.4063    3.0899   -2.8494 C   0  0  1  0  0  0  0  0  0  0  0  0
  -10.7506    4.2987   -2.3507 N   0  0  0  0  0  0  0  0  0  0  0  0
   -9.2936    2.9672   -3.6101 N   0  0  0  0  0  0  0  0  0  0  0  0
   -8.9536    1.7535   -4.1063 C   0  0  1  0  0  0  0  0  0  0  0  0
   -9.7290    0.6415   -3.8428 C   0  0  2  0  0  0  0  0  0  0  0  0
  -10.8672    0.7943   -3.0596 C   0  0  0  0  0  0  0  0  0  0  0  0
  -11.5950   -0.1835   -2.7974 O   0  0  0  0  0  0  0  0  0  0  0  0
   -9.1445   -0.4077   -4.4563 N   0  0  0  0  0  0  0  0  0  0  0  0
   -8.0386    0.0485   -5.0896 C   0  0  0  0  0  0  0  0  0  0  0  0
   -7.9396    1.3630   -4.8672 N   0  0  1  0  0  0  0  0  0  0  0  0
  1  2  1  6  0  0  0
  1  3  1  0  0  0  0
  1  4  2  0  0  0  0
  1  6  1  0  0  0  0
  5  6  1  0  0  0  0
  7  5  1  1  0  0  0
  7  8  1  0  0  0  0
  7  9  1  0  0  0  0
  9 10  1  6  0  0  0
  9 11  1  0  0  0  0
 11 12  1  6  0  0  0
 11 13  1  0  0  0  0
 13  8  1  6  0  0  0
 13 24  1  0  0  0  0
 14 15  1  0  0  0  0
 14 20  1  0  0  0  0
 15 16  1  1  0  0  0
 15 17  1  0  0  0  0
 18 17  1  6  0  0  0
 18 19  1  0  0  0  0
 18 24  1  0  0  0  0
 19 20  1  1  0  0  0
 19 22  1  0  0  0  0
 20 21  2  0  0  0  0
 22 23  1  0  0  0  0
 24 23  1  6  0  0  0
M  CHG  1   3  -1
M  END
>  <CHROM.1>
53.00230980,-68.25820512,-177.74759843,-142.08371435,-7.36190952,0.53073181
-5.34203530,0.77946429,-0.42651607,-2.68576962

>  <Name>
ligand

>  <RI>
0

>  <Rbt.Current_Directory>
/home/itssahil/PROJECTS/Mol_Feturizer/New_Systems/rnas/3SLQ

>  <Rbt.Executable>
rbdock ($Id: //depot/dev/client3/rdock/2013.1/src/exe/rbdock.cxx#4 $)

>  <Rbt.Library>
libRbt.so (2013.1, Build901 2013/11/27)

>  <Rbt.Parameter_File>
/export/apps/rDock/src/rDock_2013.1_src/data/scripts/dock_solv.prm

>  <Rbt.Receptor>
prm/blind_docking_40.prm

>  <SCORE>
-19.06

>  <SCORE.INTER>
-12.4354

>  <SCORE.INTER.CONST>
1

>  <SCORE.INTER.POLAR>
0

>  <SCORE.INTER.ROT>
4

>  <SCORE.INTER.SOLV>
8.69578

>  <SCORE.INTER.VDW>
-17.4555

>  <SCORE.INTER.norm>
-0.518142

>  <SCORE.INTRA>
-6.6246

>  <SCORE.INTRA.DIHEDRAL>
-11.6851

>  <SCORE.INTRA.DIHEDRAL.0>
13.2525

>  <SCORE.INTRA.POLAR>
0

>  <SCORE.INTRA.POLAR.0>
0

>  <SCORE.INTRA.REPUL>
0

>  <SCORE.INTRA.REPUL.0>
0

>  <SCORE.INTRA.SOLV>
0.0762447

>  <SCORE.INTRA.SOLV.lig_0>
-70.7221

>  <SCORE.INTRA.VDW>
-0.820176

>  <SCORE.INTRA.VDW.0>
-1.46337

>  <SCORE.INTRA.norm>
-0.276025

>  <SCORE.RESTR>
0

>  <SCORE.RESTR.CAVITY>
0

>  <SCORE.RESTR.norm>
0

>  <SCORE.SYSTEM>
0

>  <SCORE.SYSTEM.CONST>
0

>  <SCORE.SYSTEM.DIHEDRAL>
0

>  <SCORE.SYSTEM.SOLV>
0

>  <SCORE.SYSTEM.norm>
0

>  <SCORE.heavy>
24

>  <SCORE.norm>
-0.794167

>  <RMSD>
18.034

$$$$
ligand
 OpenBabel11021811483D
libRbt.so/2013.1/901 2013/11/27
 24 26  0  0  0  0  0  0  0  0999 V2000
   -6.7518    0.2857   -8.1314 P   0  0  1  0  0  0  0  0  0  0  0  0
   -7.4529    0.7577   -9.3872 O   0  0  0  0  0  0  0  0  0  0  0  0
   -6.9581   -1.1619   -7.7523 O   0  5  0  0  0  0  0  0  0  0  0  0
   -5.2958    0.7166   -8.0363 O   0  0  0  0  0  0  0  0  0  0  0  0
   -8.9186    0.7402   -6.5783 C   0  0  0  0  0  0  0  0  0  0  0  0
   -7.5563    1.0326   -6.9348 O   0  0  0  0  0  0  0  0  0  0  0  0
   -9.4552    1.8242   -5.6387 C   0  0  1  0  0  0  0  0  0  0  0  0
  -10.8654    1.6916   -5.4201 O   0  0  0  0  0  0  0  0  0  0  0  0
   -8.8253    1.8390   -4.2564 C   0  0  1  0  0  0  0  0  0  0  0  0
   -7.6921    2.7121   -4.2733 O   0  0  0  0  0  0  0  0  0  0  0  0
   -9.9350    2.3834   -3.3718 C   0  0  1  0  0  0  0  0  0  0  0  0
   -9.9712    3.8162   -3.4354 O   0  0  0  0  0  0  0  0  0  0  0  0
  -11.2062    1.9047   -4.0446 C   0  0  2  0  0  0  0  0  0  0  0  0
  -14.2858   -0.3153   -0.6323 N   0  0  0  0  0  0  0  0  0  0  0  0
  -14.0486    0.9986   -0.8487 C   0  0  1  0  0  0  0  0  0  0  0  0
  -14.6901    1.9181   -0.0928 N   0  0  0  0  0  0  0  0  0  0  0  0
  -13.1815    1.4009   -1.8071 N   0  0  0  0  0  0  0  0  0  0  0  0
  -12.5414    0.4750   -2.5606 C   0  0  1  0  0  0  0  0  0  0  0  0
  -12.7633   -0.8733   -2.3602 C   0  0  2  0  0  0  0  0  0  0  0  0
  -13.6592   -1.2603   -1.3704 C   0  0  0  0  0  0  0  0  0  0  0  0
  -13.8885   -2.4671   -1.1563 O   0  0  0  0  0  0  0  0  0  0  0  0
  -11.9921   -1.5406   -3.2427 N   0  0  0  0  0  0  0  0  0  0  0  0
  -11.3164   -0.6247   -3.9752 C   0  0  0  0  0  0  0  0  0  0  0  0
  -11.6636    0.5935   -3.5481 N   0  0  1  0  0  0  0  0  0  0  0  0
  1  2  1  6  0  0  0
  1  3  1  0  0  0  0
  1  4  2  0  0  0  0
  1  6  1  0  0  0  0
  5  6  1  0  0  0  0
  7  5  1  6  0  0  0
  7  8  1  0  0  0  0
  7  9  1  0  0  0  0
  9 10  1  6  0  0  0
  9 11  1  0  0  0  0
 11 12  1  6  0  0  0
 11 13  1  0  0  0  0
 13  8  1  6  0  0  0
 13 24  1  0  0  0  0
 14 15  1  0  0  0  0
 14 20  1  0  0  0  0
 15 16  1  1  0  0  0
 15 17  1  0  0  0  0
 18 17  1  6  0  0  0
 18 19  1  0  0  0  0
 18 24  1  0  0  0  0
 19 20  1  1  0  0  0
 19 22  1  0  0  0  0
 20 21  2  0  0  0  0
 22 23  1  0  0  0  0
 24 23  1  6  0  0  0
M  CHG  1   3  -1
M  END
>  <CHROM.1>
67.92023950,171.00277728,-167.38225752,-151.65914401,-10.29612612,0.70301924
-4.43717188,0.17974368,-0.75003697,-2.78492975

>  <Name>
ligand

>  <RI>
0

>  <Rbt.Current_Directory>
/home/itssahil/PROJECTS/Mol_Feturizer/New_Systems/rnas/3SLQ

>  <Rbt.Executable>
rbdock ($Id: //depot/dev/client3/rdock/2013.1/src/exe/rbdock.cxx#4 $)

>  <Rbt.Library>
libRbt.so (2013.1, Build901 2013/11/27)

>  <Rbt.Parameter_File>
/export/apps/rDock/src/rDock_2013.1_src/data/scripts/dock_solv.prm

>  <Rbt.Receptor>
prm/blind_docking_40.prm

>  <SCORE>
-21.6813

>  <SCORE.INTER>
-15.971

>  <SCORE.INTER.CONST>
1

>  <SCORE.INTER.POLAR>
0

>  <SCORE.INTER.ROT>
4

>  <SCORE.INTER.SOLV>
10.4402

>  <SCORE.INTER.VDW>
-20.394

>  <SCORE.INTER.norm>
-0.665457

>  <SCORE.INTRA>
-5.71031

>  <SCORE.INTRA.DIHEDRAL>
-10.8811

>  <SCORE.INTRA.DIHEDRAL.0>
13.2525

>  <SCORE.INTRA.POLAR>
0

>  <SCORE.INTRA.POLAR.0>
0

>  <SCORE.INTRA.REPUL>
0

>  <SCORE.INTRA.REPUL.0>
0

>  <SCORE.INTRA.SOLV>
0.0525081

>  <SCORE.INTRA.SOLV.lig_0>
-70.7221

>  <SCORE.INTRA.VDW>
-0.296002

>  <SCORE.INTRA.VDW.0>
-1.46337

>  <SCORE.INTRA.norm>
-0.23793

>  <SCORE.RESTR>
0

>  <SCORE.RESTR.CAVITY>
0

>  <SCORE.RESTR.norm>
0

>  <SCORE.SYSTEM>
0

>  <SCORE.SYSTEM.CONST>
0

>  <SCORE.SYSTEM.DIHEDRAL>
0

>  <SCORE.SYSTEM.SOLV>
0

>  <SCORE.SYSTEM.norm>
0

>  <SCORE.heavy>
24

>  <SCORE.norm>
-0.903386

>  <RMSD>
18.036

$$$$
ligand
 OpenBabel11021811483D
libRbt.so/2013.1/901 2013/11/27
 24 26  0  0  0  0  0  0  0  0999 V2000
   -7.0593    1.0036   -8.7872 P   0  0  1  0  0  0  0  0  0  0  0  0
   -7.6490    2.3517   -8.4319 O   0  0  0  0  0  0  0  0  0  0  0  0
   -7.5227    0.3910  -10.0879 O   0  5  0  0  0  0  0  0  0  0  0  0
   -5.5516    0.9193   -8.6018 O   0  0  0  0  0  0  0  0  0  0  0  0
   -7.7441    0.2131   -6.2932 C   0  0  0  0  0  0  0  0  0  0  0  0
   -7.7360   -0.0100   -7.7139 O   0  0  0  0  0  0  0  0  0  0  0  0
   -8.2231   -1.0494   -5.5705 C   0  0  1  0  0  0  0  0  0  0  0  0
   -8.5221   -0.7951   -4.1921 O   0  0  0  0  0  0  0  0  0  0  0  0
   -9.4761   -1.6810   -6.1524 C   0  0  1  0  0  0  0  0  0  0  0  0
   -9.0940   -2.6453   -7.1377 O   0  0  0  0  0  0  0  0  0  0  0  0
  -10.1265   -2.3423   -4.9483 C   0  0  1  0  0  0  0  0  0  0  0  0
   -9.5288   -3.6214   -4.6935 O   0  0  0  0  0  0  0  0  0  0  0  0
   -9.7262   -1.4568   -3.7850 C   0  0  2  0  0  0  0  0  0  0  0  0
  -14.0562   -0.3779   -1.3063 N   0  0  0  0  0  0  0  0  0  0  0  0
  -13.3753   -1.5443   -1.3785 C   0  0  1  0  0  0  0  0  0  0  0  0
  -13.8469   -2.6256   -0.7176 N   0  0  0  0  0  0  0  0  0  0  0  0
  -12.2345   -1.6410   -2.1007 N   0  0  0  0  0  0  0  0  0  0  0  0
  -11.7675   -0.5544   -2.7610 C   0  0  1  0  0  0  0  0  0  0  0  0
  -12.4433    0.6487   -2.7061 C   0  0  2  0  0  0  0  0  0  0  0  0
  -13.6118    0.7219   -1.9569 C   0  0  0  0  0  0  0  0  0  0  0  0
  -14.2529    1.7886   -1.8807 O   0  0  0  0  0  0  0  0  0  0  0  0
  -11.7510    1.5304   -3.4559 N   0  0  0  0  0  0  0  0  0  0  0  0
  -10.6695    0.8877   -3.9551 C   0  0  0  0  0  0  0  0  0  0  0  0
  -10.6952   -0.3766   -3.5216 N   0  0  1  0  0  0  0  0  0  0  0  0
  1  2  1  1  0  0  0
  1  3  1  0  0  0  0
  1  4  2  0  0  0  0
  1  6  1  0  0  0  0
  5  6  1  0  0  0  0
  7  5  1  6  0  0  0
  7  8  1  0  0  0  0
  7  9  1  0  0  0  0
  9 10  1  6  0  0  0
  9 11  1  0  0  0  0
 11 12  1  1  0  0  0
 11 13  1  0  0  0  0
 13  8  1  6  0  0  0
 13 24  1  0  0  0  0
 14 15  1  0  0  0  0
 14 20  1  0  0  0  0
 15 16  1  6  0  0  0
 15 17  1  0  0  0  0
 18 17  1  1  0  0  0
 18 19  1  0  0  0  0
 18 24  1  0  0  0  0
 19 20  1  6  0  0  0
 19 22  1  0  0  0  0
 20 21  2  0  0  0  0
 22 23  1  0  0  0  0
 24 23  1  1  0  0  0
M  CHG  1   3  -1
M  END
>  <CHROM.1>
-51.14585039,-167.53329652,-169.39825904,-159.36880209,-10.00539765,-0.34871480
-5.00987050,0.30998149,0.79587841,-0.26759113

>  <Name>
ligand

>  <RI>
0

>  <Rbt.Current_Directory>
/home/itssahil/PROJECTS/Mol_Feturizer/New_Systems/rnas/3SLQ

>  <Rbt.Executable>
rbdock ($Id: //depot/dev/client3/rdock/2013.1/src/exe/rbdock.cxx#4 $)

>  <Rbt.Library>
libRbt.so (2013.1, Build901 2013/11/27)

>  <Rbt.Parameter_File>
/export/apps/rDock/src/rDock_2013.1_src/data/scripts/dock_solv.prm

>  <Rbt.Receptor>
prm/blind_docking_20.prm

>  <SCORE>
-16.5239

>  <SCORE.INTER>
-10.8825

>  <SCORE.INTER.CONST>
1

>  <SCORE.INTER.POLAR>
0

>  <SCORE.INTER.ROT>
4

>  <SCORE.INTER.SOLV>
21.69

>  <SCORE.INTER.VDW>
-20.7517

>  <SCORE.INTER.norm>
-0.453438

>  <SCORE.INTRA>
-5.64139

>  <SCORE.INTRA.DIHEDRAL>
-10.8232

>  <SCORE.INTRA.DIHEDRAL.0>
13.2525

>  <SCORE.INTRA.POLAR>
0

>  <SCORE.INTRA.POLAR.0>
0

>  <SCORE.INTRA.REPUL>
0

>  <SCORE.INTRA.REPUL.0>
0

>  <SCORE.INTRA.SOLV>
0.0467568

>  <SCORE.INTRA.SOLV.lig_0>
-70.7221

>  <SCORE.INTRA.VDW>
-0.253174

>  <SCORE.INTRA.VDW.0>
-1.46337

>  <SCORE.INTRA.norm>
-0.235058

>  <SCORE.RESTR>
0

>  <SCORE.RESTR.CAVITY>
0

>  <SCORE.RESTR.norm>
0

>  <SCORE.SYSTEM>
0

>  <SCORE.SYSTEM.CONST>
0

>  <SCORE.SYSTEM.DIHEDRAL>
0

>  <SCORE.SYSTEM.SOLV>
0

>  <SCORE.SYSTEM.norm>
0

>  <SCORE.heavy>
24

>  <SCORE.norm>
-0.688496

>  <RMSD>
18.040

$$$$
ligand
 OpenBabel11021811483D
libRbt.so/2013.1/901 2013/11/27
 24 26  0  0  0  0  0  0  0  0999 V2000
   -5.9568   -2.6133   -7.5439 P   0  0  1  0  0  0  0  0  0  0  0  0
   -6.5110   -3.3751   -6.3590 O   0  0  0  0  0  0  0  0  0  0  0  0
   -4.5099   -2.8738   -7.8910 O   0  5  0  0  0  0  0  0  0  0  0  0
   -6.8649   -2.6214   -8.7645 O   0  0  0  0  0  0  0  0  0  0  0  0
   -5.2495   -0.0109   -7.7456 C   0  0  0  0  0  0  0  0  0  0  0  0
   -5.8727   -1.0806   -7.0138 O   0  0  0  0  0  0  0  0  0  0  0  0
   -5.3273    1.2876   -6.9371 C   0  0  1  0  0  0  0  0  0  0  0  0
   -6.6699    1.7805   -6.8456 O   0  0  0  0  0  0  0  0  0  0  0  0
   -4.8320    1.1781   -5.5051 C   0  0  1  0  0  0  0  0  0  0  0  0
   -3.4361    1.4898   -5.4728 O   0  0  0  0  0  0  0  0  0  0  0  0
   -5.6537    2.2239   -4.7694 C   0  0  1  0  0  0  0  0  0  0  0  0
   -5.0731    3.5256   -4.9331 O   0  0  0  0  0  0  0  0  0  0  0  0
   -6.9665    2.2556   -5.5266 C   0  0  2  0  0  0  0  0  0  0  0  0
  -11.1361    1.9708   -2.5957 N   0  0  0  0  0  0  0  0  0  0  0  0
  -10.3770    3.0459   -2.9079 C   0  0  1  0  0  0  0  0  0  0  0  0
  -10.7145    4.2580   -2.4125 N   0  0  0  0  0  0  0  0  0  0  0  0
   -9.2901    2.9229   -3.7051 N   0  0  0  0  0  0  0  0  0  0  0  0
   -8.9568    1.7059   -4.1977 C   0  0  1  0  0  0  0  0  0  0  0  0
   -9.7129    0.5909   -3.8939 C   0  0  2  0  0  0  0  0  0  0  0  0
  -10.8247    0.7441   -3.0738 C   0  0  0  0  0  0  0  0  0  0  0  0
  -11.5344   -0.2364   -2.7747 O   0  0  0  0  0  0  0  0  0  0  0  0
   -9.1406   -0.4610   -4.5144 N   0  0  0  0  0  0  0  0  0  0  0  0
   -8.0613   -0.0036   -5.1910 C   0  0  0  0  0  0  0  0  0  0  0  0
   -7.9662    1.3143   -4.9884 N   0  0  1  0  0  0  0  0  0  0  0  0
  1  2  1  1  0  0  0
  1  3  1  0  0  0  0
  1  4  2  0  0  0  0
  1  6  1  0  0  0  0
  5  6  1  0  0  0  0
  7  5  1  1  0  0  0
  7  8  1  0  0  0  0
  7  9  1  0  0  0  0
  9 10  1  6  0  0  0
  9 11  1  0  0  0  0
 11 12  1  6  0  0  0
 11 13  1  0  0  0  0
 13  8  1  6  0  0  0
 13 24  1  0  0  0  0
 14 15  1  0  0  0  0
 14 20  1  0  0  0  0
 15 16  1  1  0  0  0
 15 17  1  0  0  0  0
 18 17  1  6  0  0  0
 18 19  1  0  0  0  0
 18 24  1  0  0  0  0
 19 20  1  1  0  0  0
 19 22  1  0  0  0  0
 20 21  2  0  0  0  0
 22 23  1  0  0  0  0
 24 23  1  6  0  0  0
M  CHG  1   3  -1
M  END
>  <CHROM.1>
172.17040142,-69.23140936,-178.78085914,-144.04679979,-7.35931670,0.47377348
-5.42210055,0.77215057,-0.45584569,-2.71958799

>  <Name>
ligand

>  <RI>
0

>  <Rbt.Current_Directory>
/home/itssahil/PROJECTS/Mol_Feturizer/New_Systems/rnas/3SLQ

>  <Rbt.Executable>
rbdock ($Id: //depot/dev/client3/rdock/2013.1/src/exe/rbdock.cxx#4 $)

>  <Rbt.Library>
libRbt.so (2013.1, Build901 2013/11/27)

>  <Rbt.Parameter_File>
/export/apps/rDock/src/rDock_2013.1_src/data/scripts/dock_solv.prm

>  <Rbt.Receptor>
prm/blind_docking_100.prm

>  <SCORE>
-18.165

>  <SCORE.INTER>
-11.8592

>  <SCORE.INTER.CONST>
1

>  <SCORE.INTER.POLAR>
0

>  <SCORE.INTER.ROT>
4

>  <SCORE.INTER.SOLV>
9.08389

>  <SCORE.INTER.VDW>
-17.2008

>  <SCORE.INTER.norm>
-0.494134

>  <SCORE.INTRA>
-6.30579

>  <SCORE.INTRA.DIHEDRAL>
-11.6229

>  <SCORE.INTRA.DIHEDRAL.0>
13.2525

>  <SCORE.INTRA.POLAR>
0

>  <SCORE.INTRA.POLAR.0>
0

>  <SCORE.INTRA.REPUL>
0

>  <SCORE.INTRA.REPUL.0>
0

>  <SCORE.INTRA.SOLV>
0.587826

>  <SCORE.INTRA.SOLV.lig_0>
-70.7221

>  <SCORE.INTRA.VDW>
-0.788258

>  <SCORE.INTRA.VDW.0>
-1.46337

>  <SCORE.INTRA.norm>
-0.262741

>  <SCORE.RESTR>
0

>  <SCORE.RESTR.CAVITY>
0

>  <SCORE.RESTR.norm>
0

>  <SCORE.SYSTEM>
0

>  <SCORE.SYSTEM.CONST>
0

>  <SCORE.SYSTEM.DIHEDRAL>
0

>  <SCORE.SYSTEM.SOLV>
0

>  <SCORE.SYSTEM.norm>
0

>  <SCORE.heavy>
24

>  <SCORE.norm>
-0.756875

>  <RMSD>
18.087

$$$$
ligand
 OpenBabel11021811483D
libRbt.so/2013.1/901 2013/11/27
 24 26  0  0  0  0  0  0  0  0999 V2000
  -13.6999   -0.4399   -2.1636 P   0  0  1  0  0  0  0  0  0  0  0  0
  -14.4063   -0.6608   -3.4841 O   0  0  0  0  0  0  0  0  0  0  0  0
  -14.0043    0.8558   -1.4491 O   0  5  0  0  0  0  0  0  0  0  0  0
  -13.7320   -1.6448   -1.2353 O   0  0  0  0  0  0  0  0  0  0  0  0
  -11.7332    0.7277   -3.6067 C   0  0  0  0  0  0  0  0  0  0  0  0
  -12.1514   -0.1979   -2.5886 O   0  0  0  0  0  0  0  0  0  0  0  0
  -10.2053    0.8326   -3.6195 C   0  0  1  0  0  0  0  0  0  0  0  0
   -9.5815   -0.4569   -3.6656 O   0  0  0  0  0  0  0  0  0  0  0  0
   -9.6290    1.6093   -4.7910 C   0  0  1  0  0  0  0  0  0  0  0  0
   -9.5095    2.9859   -4.4201 O   0  0  0  0  0  0  0  0  0  0  0  0
   -8.2668    0.9682   -5.0001 C   0  0  1  0  0  0  0  0  0  0  0  0
   -7.3069    1.5185   -4.0868 O   0  0  0  0  0  0  0  0  0  0  0  0
   -8.4713   -0.4714   -4.5716 C   0  0  2  0  0  0  0  0  0  0  0  0
   -7.8932   -1.2606   -9.5815 N   0  0  0  0  0  0  0  0  0  0  0  0
   -7.3651   -0.2932   -8.7975 C   0  0  1  0  0  0  0  0  0  0  0  0
   -6.5495    0.6325   -9.3510 N   0  0  0  0  0  0  0  0  0  0  0  0
   -7.6423   -0.2413   -7.4736 N   0  0  0  0  0  0  0  0  0  0  0  0
   -8.4604   -1.1711   -6.9252 C   0  0  1  0  0  0  0  0  0  0  0  0
   -9.0149   -2.1691   -7.7023 C   0  0  2  0  0  0  0  0  0  0  0  0
   -8.7138   -2.2007   -9.0590 C   0  0  0  0  0  0  0  0  0  0  0  0
   -9.1932   -3.0844   -9.7965 O   0  0  0  0  0  0  0  0  0  0  0  0
   -9.7778   -2.9298   -6.8911 N   0  0  0  0  0  0  0  0  0  0  0  0
   -9.6896   -2.4171   -5.6416 C   0  0  0  0  0  0  0  0  0  0  0  0
   -8.8844   -1.3508   -5.6811 N   0  0  1  0  0  0  0  0  0  0  0  0
  1  2  1  6  0  0  0
  1  3  1  0  0  0  0
  1  4  2  0  0  0  0
  1  6  1  0  0  0  0
  5  6  1  0  0  0  0
  7  5  1  6  0  0  0
  7  8  1  0  0  0  0
  7  9  1  0  0  0  0
  9 10  1  1  0  0  0
  9 11  1  0  0  0  0
 11 12  1  1  0  0  0
 11 13  1  0  0  0  0
 13  8  1  1  0  0  0
 13 24  1  0  0  0  0
 14 15  1  0  0  0  0
 14 20  1  0  0  0  0
 15 16  1  6  0  0  0
 15 17  1  0  0  0  0
 18 17  1  1  0  0  0
 18 19  1  0  0  0  0
 18 24  1  0  0  0  0
 19 20  1  6  0  0  0
 19 22  1  0  0  0  0
 20 21  2  0  0  0  0
 22 23  1  0  0  0  0
 24 23  1  1  0  0  0
M  CHG  1   3  -1
M  END
>  <CHROM.1>
49.69907582,50.37205212,172.70036702,148.89939679,-10.11740945,-0.41488017
-5.20101872,2.46181698,0.59979656,0.80238454

>  <Name>
ligand

>  <RI>
0

>  <Rbt.Current_Directory>
/home/itssahil/PROJECTS/Mol_Feturizer/New_Systems/rnas/3SLQ

>  <Rbt.Executable>
rbdock ($Id: //depot/dev/client3/rdock/2013.1/src/exe/rbdock.cxx#4 $)

>  <Rbt.Library>
libRbt.so (2013.1, Build901 2013/11/27)

>  <Rbt.Parameter_File>
/export/apps/rDock/src/rDock_2013.1_src/data/scripts/dock_solv.prm

>  <Rbt.Receptor>
prm/blind_docking_20.prm

>  <SCORE>
-18.6376

>  <SCORE.INTER>
-13.2693

>  <SCORE.INTER.CONST>
1

>  <SCORE.INTER.POLAR>
0

>  <SCORE.INTER.ROT>
4

>  <SCORE.INTER.SOLV>
17.0515

>  <SCORE.INTER.VDW>
-20.7967

>  <SCORE.INTER.norm>
-0.552888

>  <SCORE.INTRA>
-5.36829

>  <SCORE.INTRA.DIHEDRAL>
-11.314

>  <SCORE.INTRA.DIHEDRAL.0>
13.2525

>  <SCORE.INTRA.POLAR>
0

>  <SCORE.INTRA.POLAR.0>
0

>  <SCORE.INTRA.REPUL>
0

>  <SCORE.INTRA.REPUL.0>
0

>  <SCORE.INTRA.SOLV>
-0.0441791

>  <SCORE.INTRA.SOLV.lig_0>
-70.7221

>  <SCORE.INTRA.VDW>
0.310808

>  <SCORE.INTRA.VDW.0>
-1.46337

>  <SCORE.INTRA.norm>
-0.223679

>  <SCORE.RESTR>
0

>  <SCORE.RESTR.CAVITY>
0

>  <SCORE.RESTR.norm>
0

>  <SCORE.SYSTEM>
0

>  <SCORE.SYSTEM.CONST>
0

>  <SCORE.SYSTEM.DIHEDRAL>
0

>  <SCORE.SYSTEM.SOLV>
0

>  <SCORE.SYSTEM.norm>
0

>  <SCORE.heavy>
24

>  <SCORE.norm>
-0.776567

>  <RMSD>
18.097

$$$$
ligand
 OpenBabel11021811483D
libRbt.so/2013.1/901 2013/11/27
 24 26  0  0  0  0  0  0  0  0999 V2000
   -7.0825    1.0244   -9.1332 P   0  0  1  0  0  0  0  0  0  0  0  0
   -5.7079    0.9378   -9.7614 O   0  0  0  0  0  0  0  0  0  0  0  0
   -7.3926    2.2912   -8.3711 O   0  5  0  0  0  0  0  0  0  0  0  0
   -8.2138    0.6035  -10.0592 O   0  0  0  0  0  0  0  0  0  0  0  0
   -8.1390   -0.3696   -7.0707 C   0  0  0  0  0  0  0  0  0  0  0  0
   -7.0228   -0.0546   -7.9210 O   0  0  0  0  0  0  0  0  0  0  0  0
   -7.7527   -1.4865   -6.0965 C   0  0  1  0  0  0  0  0  0  0  0  0
   -7.9685   -1.1040   -4.7322 O   0  0  0  0  0  0  0  0  0  0  0  0
   -8.5144   -2.7875   -6.2832 C   0  0  1  0  0  0  0  0  0  0  0  0
   -7.7916   -3.6207   -7.1942 O   0  0  0  0  0  0  0  0  0  0  0  0
   -8.5400   -3.3821   -4.8846 C   0  0  1  0  0  0  0  0  0  0  0  0
   -7.3124   -4.0716   -4.6091 O   0  0  0  0  0  0  0  0  0  0  0  0
   -8.5505   -2.1709   -3.9732 C   0  0  2  0  0  0  0  0  0  0  0  0
  -11.3262    2.0012   -3.0010 N   0  0  0  0  0  0  0  0  0  0  0  0
  -10.0060    1.8919   -3.2740 C   0  0  1  0  0  0  0  0  0  0  0  0
   -9.2468    3.0100   -3.3192 N   0  0  0  0  0  0  0  0  0  0  0  0
   -9.4396    0.6836   -3.5007 N   0  0  0  0  0  0  0  0  0  0  0  0
  -10.2052   -0.4328   -3.4534 C   0  0  1  0  0  0  0  0  0  0  0  0
  -11.5555   -0.3508   -3.1752 C   0  0  2  0  0  0  0  0  0  0  0  0
  -12.1129    0.9019   -2.9471 C   0  0  0  0  0  0  0  0  0  0  0  0
  -13.3277    1.0208   -2.6925 O   0  0  0  0  0  0  0  0  0  0  0  0
  -12.0436   -1.6079   -3.1907 N   0  0  0  0  0  0  0  0  0  0  0  0
  -11.0196   -2.4446   -3.4792 C   0  0  0  0  0  0  0  0  0  0  0  0
   -9.9116   -1.7134   -3.6369 N   0  0  1  0  0  0  0  0  0  0  0  0
  1  2  1  6  0  0  0
  1  3  1  0  0  0  0
  1  4  2  0  0  0  0
  1  6  1  0  0  0  0
  5  6  1  0  0  0  0
  7  5  1  6  0  0  0
  7  8  1  0  0  0  0
  7  9  1  0  0  0  0
  9 10  1  6  0  0  0
  9 11  1  0  0  0  0
 11 12  1  1  0  0  0
 11 13  1  0  0  0  0
 13  8  1  6  0  0  0
 13 24  1  0  0  0  0
 14 15  1  0  0  0  0
 14 20  1  0  0  0  0
 15 16  1  1  0  0  0
 15 17  1  0  0  0  0
 18 17  1  6  0  0  0
 18 19  1  0  0  0  0
 18 24  1  0  0  0  0
 19 20  1  1  0  0  0
 19 22  1  0  0  0  0
 20 21  2  0  0  0  0
 22 23  1  0  0  0  0
 24 23  1  6  0  0  0
M  CHG  1   3  -1
M  END
>  <CHROM.1>
-176.90674217,124.51667592,176.52167338,-31.12529259,-8.98429879,-0.38665026
-5.55608608,0.32529883,0.90046469,-0.35285524

>  <Name>
ligand

>  <RI>
0

>  <Rbt.Current_Directory>
/home/itssahil/PROJECTS/Mol_Feturizer/New_Systems/rnas/3SLQ

>  <Rbt.Executable>
rbdock ($Id: //depot/dev/client3/rdock/2013.1/src/exe/rbdock.cxx#4 $)

>  <Rbt.Library>
libRbt.so (2013.1, Build901 2013/11/27)

>  <Rbt.Parameter_File>
/export/apps/rDock/src/rDock_2013.1_src/data/scripts/dock_solv.prm

>  <Rbt.Receptor>
prm/blind_docking_20.prm

>  <SCORE>
-14.5329

>  <SCORE.INTER>
-11.5362

>  <SCORE.INTER.CONST>
1

>  <SCORE.INTER.POLAR>
0

>  <SCORE.INTER.ROT>
4

>  <SCORE.INTER.SOLV>
24.3301

>  <SCORE.INTER.VDW>
-22.0675

>  <SCORE.INTER.norm>
-0.480675

>  <SCORE.INTRA>
-2.9967

>  <SCORE.INTRA.DIHEDRAL>
-6.74854

>  <SCORE.INTRA.DIHEDRAL.0>
13.2525

>  <SCORE.INTRA.POLAR>
0

>  <SCORE.INTRA.POLAR.0>
0

>  <SCORE.INTRA.REPUL>
0

>  <SCORE.INTRA.REPUL.0>
0

>  <SCORE.INTRA.SOLV>
0.505837

>  <SCORE.INTRA.SOLV.lig_0>
-70.7221

>  <SCORE.INTRA.VDW>
0.124652

>  <SCORE.INTRA.VDW.0>
-1.46337

>  <SCORE.INTRA.norm>
-0.124863

>  <SCORE.RESTR>
0

>  <SCORE.RESTR.CAVITY>
0

>  <SCORE.RESTR.norm>
0

>  <SCORE.SYSTEM>
0

>  <SCORE.SYSTEM.CONST>
0

>  <SCORE.SYSTEM.DIHEDRAL>
0

>  <SCORE.SYSTEM.SOLV>
0

>  <SCORE.SYSTEM.norm>
0

>  <SCORE.heavy>
24

>  <SCORE.norm>
-0.605538

>  <RMSD>
18.104

$$$$
ligand
 OpenBabel11021811483D
libRbt.so/2013.1/901 2013/11/27
 24 26  0  0  0  0  0  0  0  0999 V2000
   -7.4881   -0.1710   -8.5175 P   0  0  1  0  0  0  0  0  0  0  0  0
   -6.0775    0.1786   -8.0939 O   0  0  0  0  0  0  0  0  0  0  0  0
   -7.9321    0.3495   -9.8642 O   0  5  0  0  0  0  0  0  0  0  0  0
   -7.8551   -1.6316   -8.3015 O   0  0  0  0  0  0  0  0  0  0  0  0
   -8.3104    0.6964   -6.0915 C   0  0  0  0  0  0  0  0  0  0  0  0
   -8.4208    0.7138   -7.5253 O   0  0  0  0  0  0  0  0  0  0  0  0
   -9.2003    1.7867   -5.4874 C   0  0  1  0  0  0  0  0  0  0  0  0
  -10.5907    1.4494   -5.5721 O   0  0  0  0  0  0  0  0  0  0  0  0
   -8.9388    2.0834   -4.0206 C   0  0  1  0  0  0  0  0  0  0  0  0
   -7.9617    3.1241   -3.9257 O   0  0  0  0  0  0  0  0  0  0  0  0
  -10.2942    2.5434   -3.5093 C   0  0  1  0  0  0  0  0  0  0  0  0
  -10.5021    3.9299   -3.8137 O   0  0  0  0  0  0  0  0  0  0  0  0
  -11.2855    1.7769   -4.3624 C   0  0  2  0  0  0  0  0  0  0  0  0
  -14.1328   -0.3424   -0.6939 N   0  0  0  0  0  0  0  0  0  0  0  0
  -13.9515    0.9639   -0.9941 C   0  0  1  0  0  0  0  0  0  0  0  0
  -14.5911    1.9040   -0.2622 N   0  0  0  0  0  0  0  0  0  0  0  0
  -13.1419    1.3385   -2.0121 N   0  0  0  0  0  0  0  0  0  0  0  0
  -12.5034    0.3922   -2.7412 C   0  0  1  0  0  0  0  0  0  0  0  0
  -12.6689   -0.9489   -2.4557 C   0  0  2  0  0  0  0  0  0  0  0  0
  -13.5064   -1.3073   -1.4058 C   0  0  0  0  0  0  0  0  0  0  0  0
  -13.6836   -2.5066   -1.1144 O   0  0  0  0  0  0  0  0  0  0  0  0
  -11.9143   -1.6404   -3.3339 N   0  0  0  0  0  0  0  0  0  0  0  0
  -11.3038   -0.7466   -4.1466 C   0  0  0  0  0  0  0  0  0  0  0  0
  -11.6744    0.4822   -3.7729 N   0  0  1  0  0  0  0  0  0  0  0  0
  1  2  1  1  0  0  0
  1  3  1  0  0  0  0
  1  4  2  0  0  0  0
  1  6  1  0  0  0  0
  5  6  1  0  0  0  0
  7  5  1  1  0  0  0
  7  8  1  0  0  0  0
  7  9  1  0  0  0  0
  9 10  1  6  0  0  0
  9 11  1  0  0  0  0
 11 12  1  6  0  0  0
 11 13  1  0  0  0  0
 13  8  1  6  0  0  0
 13 24  1  0  0  0  0
 14 15  1  0  0  0  0
 14 20  1  0  0  0  0
 15 16  1  1  0  0  0
 15 17  1  0  0  0  0
 18 17  1  6  0  0  0
 18 19  1  0  0  0  0
 18 24  1  0  0  0  0
 19 20  1  1  0  0  0
 19 22  1  0  0  0  0
 20 21  2  0  0  0  0
 22 23  1  0  0  0  0
 24 23  1  6  0  0  0
M  CHG  1   3  -1
M  END
>  <CHROM.1>
-53.35207540,72.84240757,172.09127130,-170.07743364,-10.47033749,0.57842706
-4.58678968,0.28851058,-0.80542562,-2.72362972

>  <Name>
ligand

>  <RI>
0

>  <Rbt.Current_Directory>
/home/itssahil/PROJECTS/Mol_Feturizer/New_Systems/rnas/3SLQ

>  <Rbt.Executable>
rbdock ($Id: //depot/dev/client3/rdock/2013.1/src/exe/rbdock.cxx#4 $)

>  <Rbt.Library>
libRbt.so (2013.1, Build901 2013/11/27)

>  <Rbt.Parameter_File>
/export/apps/rDock/src/rDock_2013.1_src/data/scripts/dock_solv.prm

>  <Rbt.Receptor>
prm/blind_docking_40.prm

>  <SCORE>
-21.075

>  <SCORE.INTER>
-15.1475

>  <SCORE.INTER.CONST>
1

>  <SCORE.INTER.POLAR>
0

>  <SCORE.INTER.ROT>
4

>  <SCORE.INTER.SOLV>
15.9824

>  <SCORE.INTER.VDW>
-21.6924

>  <SCORE.INTER.norm>
-0.631144

>  <SCORE.INTRA>
-5.92751

>  <SCORE.INTRA.DIHEDRAL>
-11.0907

>  <SCORE.INTRA.DIHEDRAL.0>
13.2525

>  <SCORE.INTRA.POLAR>
0

>  <SCORE.INTRA.POLAR.0>
0

>  <SCORE.INTRA.REPUL>
0

>  <SCORE.INTRA.REPUL.0>
0

>  <SCORE.INTRA.SOLV>
-0.253181

>  <SCORE.INTRA.SOLV.lig_0>
-70.7221

>  <SCORE.INTRA.VDW>
-0.255562

>  <SCORE.INTRA.VDW.0>
-1.46337

>  <SCORE.INTRA.norm>
-0.246979

>  <SCORE.RESTR>
0

>  <SCORE.RESTR.CAVITY>
0

>  <SCORE.RESTR.norm>
0

>  <SCORE.SYSTEM>
0

>  <SCORE.SYSTEM.CONST>
0

>  <SCORE.SYSTEM.DIHEDRAL>
0

>  <SCORE.SYSTEM.SOLV>
0

>  <SCORE.SYSTEM.norm>
0

>  <SCORE.heavy>
24

>  <SCORE.norm>
-0.878124

>  <RMSD>
18.115

$$$$
ligand
 OpenBabel11021811483D
libRbt.so/2013.1/901 2013/11/27
 24 26  0  0  0  0  0  0  0  0999 V2000
   -7.2795    2.0145   -7.6935 P   0  0  1  0  0  0  0  0  0  0  0  0
   -7.9826    2.9822   -8.6211 O   0  0  0  0  0  0  0  0  0  0  0  0
   -6.5557    0.8625   -8.3500 O   0  5  0  0  0  0  0  0  0  0  0  0
   -6.4516    2.6875   -6.6089 O   0  0  0  0  0  0  0  0  0  0  0  0
   -8.5064    0.8977   -5.5579 C   0  0  0  0  0  0  0  0  0  0  0  0
   -8.4962    1.2309   -6.9568 O   0  0  0  0  0  0  0  0  0  0  0  0
   -9.7221    0.0220   -5.2399 C   0  0  1  0  0  0  0  0  0  0  0  0
   -9.5504   -1.3214   -5.7088 O   0  0  0  0  0  0  0  0  0  0  0  0
  -10.0526   -0.0983   -3.7621 C   0  0  1  0  0  0  0  0  0  0  0  0
  -10.9719    0.9388   -3.4072 O   0  0  0  0  0  0  0  0  0  0  0  0
  -10.6947   -1.4720   -3.6575 C   0  0  1  0  0  0  0  0  0  0  0  0
  -12.0807   -1.4080   -4.0227 O   0  0  0  0  0  0  0  0  0  0  0  0
  -10.0141   -2.2769   -4.7468 C   0  0  2  0  0  0  0  0  0  0  0  0
   -5.6231   -4.3416   -6.3320 N   0  0  0  0  0  0  0  0  0  0  0  0
   -6.6044   -3.7516   -7.0519 C   0  0  1  0  0  0  0  0  0  0  0  0
   -6.4695   -3.6520   -8.3937 N   0  0  0  0  0  0  0  0  0  0  0  0
   -7.7132   -3.2632   -6.4484 N   0  0  0  0  0  0  0  0  0  0  0  0
   -7.8428   -3.3665   -5.1040 C   0  0  1  0  0  0  0  0  0  0  0  0
   -6.8572   -3.9655   -4.3444 C   0  0  2  0  0  0  0  0  0  0  0  0
   -5.7281   -4.4582   -4.9882 C   0  0  0  0  0  0  0  0  0  0  0  0
   -4.8147   -5.0064   -4.3403 O   0  0  0  0  0  0  0  0  0  0  0  0
   -7.2642   -3.9265   -3.0592 N   0  0  0  0  0  0  0  0  0  0  0  0
   -8.4692   -3.3109   -3.0266 C   0  0  0  0  0  0  0  0  0  0  0  0
   -8.8038   -2.9766   -4.2769 N   0  0  1  0  0  0  0  0  0  0  0  0
  1  2  1  6  0  0  0
  1  3  1  0  0  0  0
  1  4  2  0  0  0  0
  1  6  1  0  0  0  0
  5  6  1  0  0  0  0
  7  5  1  1  0  0  0
  7  8  1  0  0  0  0
  7  9  1  0  0  0  0
  9 10  1  6  0  0  0
  9 11  1  0  0  0  0
 11 12  1  6  0  0  0
 11 13  1  0  0  0  0
 13  8  1  6  0  0  0
 13 24  1  0  0  0  0
 14 15  1  0  0  0  0
 14 20  1  0  0  0  0
 15 16  1  6  0  0  0
 15 17  1  0  0  0  0
 18 17  1  1  0  0  0
 18 19  1  0  0  0  0
 18 24  1  0  0  0  0
 19 20  1  6  0  0  0
 19 22  1  0  0  0  0
 20 21  2  0  0  0  0
 22 23  1  0  0  0  0
 24 23  1  1  0  0  0
M  CHG  1   3  -1
M  END
>  <CHROM.1>
-138.97688776,74.80958693,-173.34531323,-42.69351763,-8.08410807,-1.23929976
-5.64499481,-1.77936207,-0.63156871,2.64804810

>  <Name>
ligand

>  <RI>
0

>  <Rbt.Current_Directory>
/home/itssahil/PROJECTS/Mol_Feturizer/New_Systems/rnas/3SLQ

>  <Rbt.Executable>
rbdock ($Id: //depot/dev/client3/rdock/2013.1/src/exe/rbdock.cxx#4 $)

>  <Rbt.Library>
libRbt.so (2013.1, Build901 2013/11/27)

>  <Rbt.Parameter_File>
/export/apps/rDock/src/rDock_2013.1_src/data/scripts/dock_solv.prm

>  <Rbt.Receptor>
prm/blind_docking_80.prm

>  <SCORE>
-27.4955

>  <SCORE.INTER>
-23.0918

>  <SCORE.INTER.CONST>
1

>  <SCORE.INTER.POLAR>
0

>  <SCORE.INTER.ROT>
4

>  <SCORE.INTER.SOLV>
14.4057

>  <SCORE.INTER.VDW>
-26.4631

>  <SCORE.INTER.norm>
-0.962159

>  <SCORE.INTRA>
-4.40364

>  <SCORE.INTRA.DIHEDRAL>
-9.20927

>  <SCORE.INTRA.DIHEDRAL.0>
13.2525

>  <SCORE.INTRA.POLAR>
0

>  <SCORE.INTRA.POLAR.0>
0

>  <SCORE.INTRA.REPUL>
0

>  <SCORE.INTRA.REPUL.0>
0

>  <SCORE.INTRA.SOLV>
0.394501

>  <SCORE.INTRA.SOLV.lig_0>
-70.7221

>  <SCORE.INTRA.VDW>
0.00374349

>  <SCORE.INTRA.VDW.0>
-1.46337

>  <SCORE.INTRA.norm>
-0.183485

>  <SCORE.RESTR>
0

>  <SCORE.RESTR.CAVITY>
0

>  <SCORE.RESTR.norm>
0

>  <SCORE.SYSTEM>
0

>  <SCORE.SYSTEM.CONST>
0

>  <SCORE.SYSTEM.DIHEDRAL>
0

>  <SCORE.SYSTEM.SOLV>
0

>  <SCORE.SYSTEM.norm>
0

>  <SCORE.heavy>
24

>  <SCORE.norm>
-1.14564

>  <RMSD>
18.116

$$$$
ligand
 OpenBabel11021811483D
libRbt.so/2013.1/901 2013/11/27
 24 26  0  0  0  0  0  0  0  0999 V2000
   -7.5713   -0.0597   -8.5670 P   0  0  1  0  0  0  0  0  0  0  0  0
   -7.9821    0.4667   -9.9256 O   0  0  0  0  0  0  0  0  0  0  0  0
   -8.0086   -1.4665   -8.2330 O   0  5  0  0  0  0  0  0  0  0  0  0
   -6.1140    0.2017   -8.2167 O   0  0  0  0  0  0  0  0  0  0  0  0
   -8.3338    0.7416   -6.0992 C   0  0  0  0  0  0  0  0  0  0  0  0
   -8.4795    0.7973   -7.5289 O   0  0  0  0  0  0  0  0  0  0  0  0
   -9.1885    1.8317   -5.4458 C   0  0  1  0  0  0  0  0  0  0  0  0
  -10.5871    1.5256   -5.5120 O   0  0  0  0  0  0  0  0  0  0  0  0
   -8.8920    2.0797   -3.9767 C   0  0  1  0  0  0  0  0  0  0  0  0
   -7.8914    3.0969   -3.8715 O   0  0  0  0  0  0  0  0  0  0  0  0
  -10.2271    2.5521   -3.4248 C   0  0  1  0  0  0  0  0  0  0  0  0
  -10.4116    3.9510   -3.6846 O   0  0  0  0  0  0  0  0  0  0  0  0
  -11.2509    1.8316   -4.2795 C   0  0  2  0  0  0  0  0  0  0  0  0
  -14.1591   -0.3394   -0.6898 N   0  0  0  0  0  0  0  0  0  0  0  0
  -13.9660    0.9712   -0.9626 C   0  0  1  0  0  0  0  0  0  0  0  0
  -14.6095    1.9012   -0.2212 N   0  0  0  0  0  0  0  0  0  0  0  0
  -13.1407    1.3601   -1.9625 N   0  0  0  0  0  0  0  0  0  0  0  0
  -12.4985    0.4238   -2.7012 C   0  0  1  0  0  0  0  0  0  0  0  0
  -12.6758   -0.9214   -2.4436 C   0  0  2  0  0  0  0  0  0  0  0  0
  -13.5292   -1.2945   -1.4118 C   0  0  0  0  0  0  0  0  0  0  0  0
  -13.7174   -2.4980   -1.1457 O   0  0  0  0  0  0  0  0  0  0  0  0
  -11.9137   -1.6007   -3.3249 N   0  0  0  0  0  0  0  0  0  0  0  0
  -11.2873   -0.6955   -4.1123 C   0  0  0  0  0  0  0  0  0  0  0  0
  -11.6554    0.5283   -3.7200 N   0  0  1  0  0  0  0  0  0  0  0  0
  1  2  1  6  0  0  0
  1  3  1  0  0  0  0
  1  4  2  0  0  0  0
  1  6  1  0  0  0  0
  5  6  1  0  0  0  0
  7  5  1  1  0  0  0
  7  8  1  0  0  0  0
  7  9  1  0  0  0  0
  9 10  1  6  0  0  0
  9 11  1  0  0  0  0
 11 12  1  6  0  0  0
 11 13  1  0  0  0  0
 13  8  1  6  0  0  0
 13 24  1  0  0  0  0
 14 15  1  0  0  0  0
 14 20  1  0  0  0  0
 15 16  1  1  0  0  0
 15 17  1  0  0  0  0
 18 17  1  6  0  0  0
 18 19  1  0  0  0  0
 18 24  1  0  0  0  0
 19 20  1  1  0  0  0
 19 22  1  0  0  0  0
 20 21  2  0  0  0  0
 22 23  1  0  0  0  0
 24 23  1  6  0  0  0
M  CHG  1   3  -1
M  END
>  <CHROM.1>
-173.20570801,72.43483831,171.03112571,-167.92267571,-10.48191608,0.62346833
-4.56800739,0.31752742,-0.80513608,-2.67293102

>  <Name>
ligand

>  <RI>
0

>  <Rbt.Current_Directory>
/home/itssahil/PROJECTS/Mol_Feturizer/New_Systems/rnas/3SLQ

>  <Rbt.Executable>
rbdock ($Id: //depot/dev/client3/rdock/2013.1/src/exe/rbdock.cxx#4 $)

>  <Rbt.Library>
libRbt.so (2013.1, Build901 2013/11/27)

>  <Rbt.Parameter_File>
/export/apps/rDock/src/rDock_2013.1_src/data/scripts/dock_solv.prm

>  <Rbt.Receptor>
prm/blind_docking_60.prm

>  <SCORE>
-22.3998

>  <SCORE.INTER>
-16.838

>  <SCORE.INTER.CONST>
1

>  <SCORE.INTER.POLAR>
0

>  <SCORE.INTER.ROT>
4

>  <SCORE.INTER.SOLV>
12.4514

>  <SCORE.INTER.VDW>
-21.6425

>  <SCORE.INTER.norm>
-0.701584

>  <SCORE.INTRA>
-5.56175

>  <SCORE.INTRA.DIHEDRAL>
-11.0347

>  <SCORE.INTRA.DIHEDRAL.0>
13.2525

>  <SCORE.INTRA.POLAR>
0

>  <SCORE.INTRA.POLAR.0>
0

>  <SCORE.INTRA.REPUL>
0

>  <SCORE.INTRA.REPUL.0>
0

>  <SCORE.INTRA.SOLV>
0.418776

>  <SCORE.INTRA.SOLV.lig_0>
-70.7221

>  <SCORE.INTRA.VDW>
-0.253801

>  <SCORE.INTRA.VDW.0>
-1.46337

>  <SCORE.INTRA.norm>
-0.23174

>  <SCORE.RESTR>
0

>  <SCORE.RESTR.CAVITY>
0

>  <SCORE.RESTR.norm>
0

>  <SCORE.SYSTEM>
0

>  <SCORE.SYSTEM.CONST>
0

>  <SCORE.SYSTEM.DIHEDRAL>
0

>  <SCORE.SYSTEM.SOLV>
0

>  <SCORE.SYSTEM.norm>
0

>  <SCORE.heavy>
24

>  <SCORE.norm>
-0.933324

>  <RMSD>
18.122

$$$$
ligand
 OpenBabel11021811483D
libRbt.so/2013.1/901 2013/11/27
 24 26  0  0  0  0  0  0  0  0999 V2000
   -7.7061   -0.1350   -8.5933 P   0  0  1  0  0  0  0  0  0  0  0  0
   -8.3435   -1.4878   -8.3583 O   0  0  0  0  0  0  0  0  0  0  0  0
   -6.2668    0.0125   -8.1591 O   0  5  0  0  0  0  0  0  0  0  0  0
   -7.9640    0.4385   -9.9787 O   0  0  0  0  0  0  0  0  0  0  0  0
   -8.3113    0.7100   -6.0966 C   0  0  0  0  0  0  0  0  0  0  0  0
   -8.4490    0.8342   -7.5228 O   0  0  0  0  0  0  0  0  0  0  0  0
   -9.1164    1.8098   -5.3980 C   0  0  1  0  0  0  0  0  0  0  0  0
  -10.5279    1.5797   -5.4909 O   0  0  0  0  0  0  0  0  0  0  0  0
   -8.8237    1.9710   -3.9161 C   0  0  1  0  0  0  0  0  0  0  0  0
   -7.7738    2.9291   -3.7530 O   0  0  0  0  0  0  0  0  0  0  0  0
  -10.1389    2.4844   -3.3531 C   0  0  1  0  0  0  0  0  0  0  0  0
  -10.2490    3.9018   -3.5459 O   0  0  0  0  0  0  0  0  0  0  0  0
  -11.1887    1.8596   -4.2505 C   0  0  2  0  0  0  0  0  0  0  0  0
  -14.2059   -0.3313   -0.7644 N   0  0  0  0  0  0  0  0  0  0  0  0
  -13.9392    0.9789   -0.9683 C   0  0  1  0  0  0  0  0  0  0  0  0
  -14.5268    1.9030   -0.1750 N   0  0  0  0  0  0  0  0  0  0  0  0
  -13.0960    1.3731   -1.9510 N   0  0  0  0  0  0  0  0  0  0  0  0
  -12.5101    0.4426   -2.7420 C   0  0  1  0  0  0  0  0  0  0  0  0
  -12.7630   -0.9021   -2.5552 C   0  0  2  0  0  0  0  0  0  0  0  0
  -13.6334   -1.2807   -1.5398 C   0  0  0  0  0  0  0  0  0  0  0  0
  -13.8892   -2.4841   -1.3368 O   0  0  0  0  0  0  0  0  0  0  0  0
  -12.0433   -1.5756   -3.4757 N   0  0  0  0  0  0  0  0  0  0  0  0
  -11.3684   -0.6666   -4.2175 C   0  0  0  0  0  0  0  0  0  0  0  0
  -11.6652    0.5534   -3.7587 N   0  0  1  0  0  0  0  0  0  0  0  0
  1  2  1  1  0  0  0
  1  3  1  0  0  0  0
  1  4  2  0  0  0  0
  1  6  1  0  0  0  0
  5  6  1  0  0  0  0
  7  5  1  1  0  0  0
  7  8  1  0  0  0  0
  7  9  1  0  0  0  0
  9 10  1  6  0  0  0
  9 11  1  0  0  0  0
 11 12  1  6  0  0  0
 11 13  1  0  0  0  0
 13  8  1  6  0  0  0
 13 24  1  0  0  0  0
 14 15  1  0  0  0  0
 14 20  1  0  0  0  0
 15 16  1  1  0  0  0
 15 17  1  0  0  0  0
 18 17  1  6  0  0  0
 18 19  1  0  0  0  0
 18 24  1  0  0  0  0
 19 20  1  1  0  0  0
 19 22  1  0  0  0  0
 20 21  2  0  0  0  0
 22 23  1  0  0  0  0
 24 23  1  6  0  0  0
M  CHG  1   3  -1
M  END
>  <CHROM.1>
66.29558394,71.87309428,178.38278341,-168.82420257,-10.50536780,0.59948934
-4.58512997,0.40477240,-0.77543785,-2.56401106

>  <Name>
ligand

>  <RI>
0

>  <Rbt.Current_Directory>
/home/itssahil/PROJECTS/Mol_Feturizer/New_Systems/rnas/3SLQ

>  <Rbt.Executable>
rbdock ($Id: //depot/dev/client3/rdock/2013.1/src/exe/rbdock.cxx#4 $)

>  <Rbt.Library>
libRbt.so (2013.1, Build901 2013/11/27)

>  <Rbt.Parameter_File>
/export/apps/rDock/src/rDock_2013.1_src/data/scripts/dock_solv.prm

>  <Rbt.Receptor>
prm/blind_docking_20.prm

>  <SCORE>
-21.1327

>  <SCORE.INTER>
-15.2064

>  <SCORE.INTER.CONST>
1

>  <SCORE.INTER.POLAR>
0

>  <SCORE.INTER.ROT>
4

>  <SCORE.INTER.SOLV>
15.5555

>  <SCORE.INTER.VDW>
-21.5895

>  <SCORE.INTER.norm>
-0.633601

>  <SCORE.INTRA>
-5.92629

>  <SCORE.INTRA.DIHEDRAL>
-11.469

>  <SCORE.INTRA.DIHEDRAL.0>
13.2525

>  <SCORE.INTRA.POLAR>
0

>  <SCORE.INTRA.POLAR.0>
0

>  <SCORE.INTRA.REPUL>
0

>  <SCORE.INTRA.REPUL.0>
0

>  <SCORE.INTRA.SOLV>
-0.0433221

>  <SCORE.INTRA.SOLV.lig_0>
-70.7221

>  <SCORE.INTRA.VDW>
-0.170135

>  <SCORE.INTRA.VDW.0>
-1.46337

>  <SCORE.INTRA.norm>
-0.246929

>  <SCORE.RESTR>
0

>  <SCORE.RESTR.CAVITY>
0

>  <SCORE.RESTR.norm>
0

>  <SCORE.SYSTEM>
0

>  <SCORE.SYSTEM.CONST>
0

>  <SCORE.SYSTEM.DIHEDRAL>
0

>  <SCORE.SYSTEM.SOLV>
0

>  <SCORE.SYSTEM.norm>
0

>  <SCORE.heavy>
24

>  <SCORE.norm>
-0.88053

>  <RMSD>
18.123

$$$$
ligand
 OpenBabel11021811483D
libRbt.so/2013.1/901 2013/11/27
 24 26  0  0  0  0  0  0  0  0999 V2000
   -7.3817    1.2058   -8.2635 P   0  0  1  0  0  0  0  0  0  0  0  0
   -7.9037    2.5661   -7.8531 O   0  0  0  0  0  0  0  0  0  0  0  0
   -8.0274    0.5779   -9.4762 O   0  5  0  0  0  0  0  0  0  0  0  0
   -5.8637    1.1071   -8.2883 O   0  0  0  0  0  0  0  0  0  0  0  0
   -9.2871    0.1198   -6.6812 C   0  0  0  0  0  0  0  0  0  0  0  0
   -7.9114    0.2173   -7.0890 O   0  0  0  0  0  0  0  0  0  0  0  0
   -9.6554    1.3176   -5.8007 C   0  0  1  0  0  0  0  0  0  0  0  0
  -11.0538    1.3407   -5.4875 O   0  0  0  0  0  0  0  0  0  0  0  0
   -8.9348    1.3726   -4.4645 C   0  0  1  0  0  0  0  0  0  0  0  0
   -7.7288    2.1265   -4.6194 O   0  0  0  0  0  0  0  0  0  0  0  0
   -9.9265    2.0871   -3.5609 C   0  0  1  0  0  0  0  0  0  0  0  0
   -9.8331    3.5079   -3.7367 O   0  0  0  0  0  0  0  0  0  0  0  0
  -11.2794    1.6872   -4.1155 C   0  0  2  0  0  0  0  0  0  0  0  0
  -14.3799    0.0404   -0.4099 N   0  0  0  0  0  0  0  0  0  0  0  0
  -14.0434    1.3056   -0.7497 C   0  0  1  0  0  0  0  0  0  0  0  0
  -14.5717    2.3381   -0.0545 N   0  0  0  0  0  0  0  0  0  0  0  0
  -13.1889    1.5484   -1.7710 N   0  0  0  0  0  0  0  0  0  0  0  0
  -12.6626    0.5099   -2.4633 C   0  0  1  0  0  0  0  0  0  0  0  0
  -12.9874   -0.7921   -2.1369 C   0  0  2  0  0  0  0  0  0  0  0  0
  -13.8677   -1.0145   -1.0846 C   0  0  0  0  0  0  0  0  0  0  0  0
  -14.1875   -2.1743   -0.7569 O   0  0  0  0  0  0  0  0  0  0  0  0
  -12.3145   -1.5963   -2.9851 N   0  0  0  0  0  0  0  0  0  0  0  0
  -11.5976   -0.8080   -3.8198 C   0  0  0  0  0  0  0  0  0  0  0  0
  -11.8224    0.4676   -3.4890 N   0  0  1  0  0  0  0  0  0  0  0  0
  1  2  1  1  0  0  0
  1  3  1  0  0  0  0
  1  4  2  0  0  0  0
  1  6  1  0  0  0  0
  5  6  1  0  0  0  0
  7  5  1  1  0  0  0
  7  8  1  0  0  0  0
  7  9  1  0  0  0  0
  9 10  1  6  0  0  0
  9 11  1  0  0  0  0
 11 12  1  6  0  0  0
 11 13  1  0  0  0  0
 13  8  1  6  0  0  0
 13 24  1  0  0  0  0
 14 15  1  0  0  0  0
 14 20  1  0  0  0  0
 15 16  1  1  0  0  0
 15 17  1  0  0  0  0
 18 17  1  6  0  0  0
 18 19  1  0  0  0  0
 18 24  1  0  0  0  0
 19 20  1  1  0  0  0
 19 22  1  0  0  0  0
 20 21  2  0  0  0  0
 22 23  1  0  0  0  0
 24 23  1  6  0  0  0
M  CHG  1   3  -1
M  END
>  <CHROM.1>
53.52438153,173.74064993,-77.28878996,-150.09280771,-10.55315340,0.84775898
-4.46358693,0.20276821,-0.80810421,-2.68934116

>  <Name>
ligand

>  <RI>
0

>  <Rbt.Current_Directory>
/home/itssahil/PROJECTS/Mol_Feturizer/New_Systems/rnas/3SLQ

>  <Rbt.Executable>
rbdock ($Id: //depot/dev/client3/rdock/2013.1/src/exe/rbdock.cxx#4 $)

>  <Rbt.Library>
libRbt.so (2013.1, Build901 2013/11/27)

>  <Rbt.Parameter_File>
/export/apps/rDock/src/rDock_2013.1_src/data/scripts/dock_solv.prm

>  <Rbt.Receptor>
prm/blind_docking_100.prm

>  <SCORE>
-22.1807

>  <SCORE.INTER>
-16.7744

>  <SCORE.INTER.CONST>
1

>  <SCORE.INTER.POLAR>
0

>  <SCORE.INTER.ROT>
4

>  <SCORE.INTER.SOLV>
15.2855

>  <SCORE.INTER.VDW>
-22.5448

>  <SCORE.INTER.norm>
-0.698933

>  <SCORE.INTRA>
-5.40633

>  <SCORE.INTRA.DIHEDRAL>
-10.4454

>  <SCORE.INTRA.DIHEDRAL.0>
13.2525

>  <SCORE.INTRA.POLAR>
0

>  <SCORE.INTRA.POLAR.0>
0

>  <SCORE.INTRA.REPUL>
0

>  <SCORE.INTRA.REPUL.0>
0

>  <SCORE.INTRA.SOLV>
1.20545

>  <SCORE.INTRA.SOLV.lig_0>
-70.7221

>  <SCORE.INTRA.VDW>
-0.78634

>  <SCORE.INTRA.VDW.0>
-1.46337

>  <SCORE.INTRA.norm>
-0.225264

>  <SCORE.RESTR>
0

>  <SCORE.RESTR.CAVITY>
0

>  <SCORE.RESTR.norm>
0

>  <SCORE.SYSTEM>
0

>  <SCORE.SYSTEM.CONST>
0

>  <SCORE.SYSTEM.DIHEDRAL>
0

>  <SCORE.SYSTEM.SOLV>
0

>  <SCORE.SYSTEM.norm>
0

>  <SCORE.heavy>
24

>  <SCORE.norm>
-0.924196

>  <RMSD>
18.129

$$$$
ligand
 OpenBabel11021811483D
libRbt.so/2013.1/901 2013/11/27
 24 26  0  0  0  0  0  0  0  0999 V2000
   -7.6045   -0.0448   -8.6260 P   0  0  1  0  0  0  0  0  0  0  0  0
   -8.0207    0.5202   -9.9673 O   0  0  0  0  0  0  0  0  0  0  0  0
   -8.1002   -1.4341   -8.3008 O   0  5  0  0  0  0  0  0  0  0  0  0
   -6.1289    0.1428   -8.3064 O   0  0  0  0  0  0  0  0  0  0  0  0
   -8.2898    0.7373   -6.1296 C   0  0  0  0  0  0  0  0  0  0  0  0
   -8.4473    0.8388   -7.5554 O   0  0  0  0  0  0  0  0  0  0  0  0
   -9.1072    1.8313   -5.4361 C   0  0  1  0  0  0  0  0  0  0  0  0
  -10.5150    1.5716   -5.5058 O   0  0  0  0  0  0  0  0  0  0  0  0
   -8.7975    2.0208   -3.9610 C   0  0  1  0  0  0  0  0  0  0  0  0
   -7.7650    3.0020   -3.8270 O   0  0  0  0  0  0  0  0  0  0  0  0
  -10.1149    2.5162   -3.3874 C   0  0  1  0  0  0  0  0  0  0  0  0
  -10.2562    3.9281   -3.5997 O   0  0  0  0  0  0  0  0  0  0  0  0
  -11.1641    1.8570   -4.2605 C   0  0  2  0  0  0  0  0  0  0  0  0
  -14.1781   -0.3399   -0.7754 N   0  0  0  0  0  0  0  0  0  0  0  0
  -13.9505    0.9726   -1.0097 C   0  0  1  0  0  0  0  0  0  0  0  0
  -14.5841    1.8973   -0.2534 N   0  0  0  0  0  0  0  0  0  0  0  0
  -13.1008    1.3685   -1.9861 N   0  0  0  0  0  0  0  0  0  0  0  0
  -12.4687    0.4374   -2.7399 C   0  0  1  0  0  0  0  0  0  0  0  0
  -12.6810   -0.9096   -2.5215 C   0  0  2  0  0  0  0  0  0  0  0  0
  -13.5590   -1.2900   -1.5133 C   0  0  0  0  0  0  0  0  0  0  0  0
  -13.7792   -2.4954   -1.2827 O   0  0  0  0  0  0  0  0  0  0  0  0
  -11.9210   -1.5830   -3.4092 N   0  0  0  0  0  0  0  0  0  0  0  0
  -11.2614   -0.6720   -4.1622 C   0  0  0  0  0  0  0  0  0  0  0  0
  -11.6074    0.5492   -3.7427 N   0  0  1  0  0  0  0  0  0  0  0  0
  1  2  1  6  0  0  0
  1  3  1  0  0  0  0
  1  4  2  0  0  0  0
  1  6  1  0  0  0  0
  5  6  1  0  0  0  0
  7  5  1  1  0  0  0
  7  8  1  0  0  0  0
  7  9  1  0  0  0  0
  9 10  1  6  0  0  0
  9 11  1  0  0  0  0
 11 12  1  6  0  0  0
 11 13  1  0  0  0  0
 13  8  1  6  0  0  0
 13 24  1  0  0  0  0
 14 15  1  0  0  0  0
 14 20  1  0  0  0  0
 15 16  1  1  0  0  0
 15 17  1  0  0  0  0
 18 17  1  6  0  0  0
 18 19  1  0  0  0  0
 18 24  1  0  0  0  0
 19 20  1  1  0  0  0
 19 22  1  0  0  0  0
 20 21  2  0  0  0  0
 22 23  1  0  0  0  0
 24 23  1  6  0  0  0
M  CHG  1   3  -1
M  END
>  <CHROM.1>
-174.42538105,71.99169253,172.93173678,-166.63919956,-10.45661804,0.62553582
-4.60203094,0.36406483,-0.78882814,-2.60691205

>  <Name>
ligand

>  <RI>
0

>  <Rbt.Current_Directory>
/home/itssahil/PROJECTS/Mol_Feturizer/New_Systems/rnas/3SLQ

>  <Rbt.Executable>
rbdock ($Id: //depot/dev/client3/rdock/2013.1/src/exe/rbdock.cxx#4 $)

>  <Rbt.Library>
libRbt.so (2013.1, Build901 2013/11/27)

>  <Rbt.Parameter_File>
/export/apps/rDock/src/rDock_2013.1_src/data/scripts/dock_solv.prm

>  <Rbt.Receptor>
prm/blind_docking_20.prm

>  <SCORE>
-22.4835

>  <SCORE.INTER>
-16.8124

>  <SCORE.INTER.CONST>
1

>  <SCORE.INTER.POLAR>
0

>  <SCORE.INTER.ROT>
4

>  <SCORE.INTER.SOLV>
12.519

>  <SCORE.INTER.VDW>
-21.6479

>  <SCORE.INTER.norm>
-0.700517

>  <SCORE.INTRA>
-5.67108

>  <SCORE.INTRA.DIHEDRAL>
-11.2407

>  <SCORE.INTRA.DIHEDRAL.0>
13.2525

>  <SCORE.INTRA.POLAR>
0

>  <SCORE.INTRA.POLAR.0>
0

>  <SCORE.INTRA.REPUL>
0

>  <SCORE.INTRA.REPUL.0>
0

>  <SCORE.INTRA.SOLV>
0.41723

>  <SCORE.INTRA.SOLV.lig_0>
-70.7221

>  <SCORE.INTRA.VDW>
-0.25936

>  <SCORE.INTRA.VDW.0>
-1.46337

>  <SCORE.INTRA.norm>
-0.236295

>  <SCORE.RESTR>
0

>  <SCORE.RESTR.CAVITY>
0

>  <SCORE.RESTR.norm>
0

>  <SCORE.SYSTEM>
0

>  <SCORE.SYSTEM.CONST>
0

>  <SCORE.SYSTEM.DIHEDRAL>
0

>  <SCORE.SYSTEM.SOLV>
0

>  <SCORE.SYSTEM.norm>
0

>  <SCORE.heavy>
24

>  <SCORE.norm>
-0.936813

>  <RMSD>
18.145

$$$$
ligand
 OpenBabel11021811483D
libRbt.so/2013.1/901 2013/11/27
 24 26  0  0  0  0  0  0  0  0999 V2000
   -7.5370    1.2534   -8.4035 P   0  0  1  0  0  0  0  0  0  0  0  0
   -8.0568    0.7547   -9.7349 O   0  0  0  0  0  0  0  0  0  0  0  0
   -6.0721    1.0138   -8.1234 O   0  5  0  0  0  0  0  0  0  0  0  0
   -7.9781    2.6677   -8.0573 O   0  0  0  0  0  0  0  0  0  0  0  0
   -8.0950    0.4047   -5.8971 C   0  0  0  0  0  0  0  0  0  0  0  0
   -8.2223    0.2547   -7.3217 O   0  0  0  0  0  0  0  0  0  0  0  0
   -9.0154    1.5266   -5.4072 C   0  0  1  0  0  0  0  0  0  0  0  0
  -10.3995    1.1857   -5.5562 O   0  0  0  0  0  0  0  0  0  0  0  0
   -8.8406    1.9028   -3.9458 C   0  0  1  0  0  0  0  0  0  0  0  0
   -7.8672    2.9467   -3.8496 O   0  0  0  0  0  0  0  0  0  0  0  0
  -10.2224    2.3904   -3.5420 C   0  0  1  0  0  0  0  0  0  0  0  0
  -10.4069    3.7583   -3.9332 O   0  0  0  0  0  0  0  0  0  0  0  0
  -11.1639    1.5788   -4.4097 C   0  0  2  0  0  0  0  0  0  0  0  0
  -14.1242   -0.3253   -0.7127 N   0  0  0  0  0  0  0  0  0  0  0  0
  -13.9089    0.9633   -1.0631 C   0  0  1  0  0  0  0  0  0  0  0  0
  -14.5413    1.9463   -0.3832 N   0  0  0  0  0  0  0  0  0  0  0  0
  -13.0726    1.2780   -2.0798 N   0  0  0  0  0  0  0  0  0  0  0  0
  -12.4416    0.2888   -2.7566 C   0  0  1  0  0  0  0  0  0  0  0  0
  -12.6415   -1.0354   -2.4193 C   0  0  2  0  0  0  0  0  0  0  0  0
  -13.5059   -1.3320   -1.3719 C   0  0  0  0  0  0  0  0  0  0  0  0
  -13.7146   -2.5141   -1.0347 O   0  0  0  0  0  0  0  0  0  0  0  0
  -11.8860   -1.7786   -3.2534 N   0  0  0  0  0  0  0  0  0  0  0  0
  -11.2413   -0.9325   -4.0903 C   0  0  0  0  0  0  0  0  0  0  0  0
  -11.5918    0.3183   -3.7749 N   0  0  1  0  0  0  0  0  0  0  0  0
  1  2  1  6  0  0  0
  1  3  1  0  0  0  0
  1  4  2  0  0  0  0
  1  6  1  0  0  0  0
  5  6  1  0  0  0  0
  7  5  1  1  0  0  0
  7  8  1  0  0  0  0
  7  9  1  0  0  0  0
  9 10  1  6  0  0  0
  9 11  1  0  0  0  0
 11 12  1  6  0  0  0
 11 13  1  0  0  0  0
 13  8  1  6  0  0  0
 13 24  1  0  0  0  0
 14 15  1  0  0  0  0
 14 20  1  0  0  0  0
 15 16  1  1  0  0  0
 15 17  1  0  0  0  0
 18 17  1  6  0  0  0
 18 19  1  0  0  0  0
 18 24  1  0  0  0  0
 19 20  1  1  0  0  0
 19 22  1  0  0  0  0
 20 21  2  0  0  0  0
 22 23  1  0  0  0  0
 24 23  1  6  0  0  0
M  CHG  1   3  -1
M  END
>  <CHROM.1>
-175.24869517,67.06306737,77.13663657,-172.76622039,-10.41883586,0.83751514
-4.54305749,0.14161649,-0.83421413,-2.71318402

>  <Name>
ligand

>  <RI>
0

>  <Rbt.Current_Directory>
/home/itssahil/PROJECTS/Mol_Feturizer/New_Systems/rnas/3SLQ

>  <Rbt.Executable>
rbdock ($Id: //depot/dev/client3/rdock/2013.1/src/exe/rbdock.cxx#4 $)

>  <Rbt.Library>
libRbt.so (2013.1, Build901 2013/11/27)

>  <Rbt.Parameter_File>
/export/apps/rDock/src/rDock_2013.1_src/data/scripts/dock_solv.prm

>  <Rbt.Receptor>
prm/blind_docking_40.prm

>  <SCORE>
-23.1955

>  <SCORE.INTER>
-18.6362

>  <SCORE.INTER.CONST>
1

>  <SCORE.INTER.POLAR>
0

>  <SCORE.INTER.ROT>
4

>  <SCORE.INTER.SOLV>
18.4642

>  <SCORE.INTER.VDW>
-24.8455

>  <SCORE.INTER.norm>
-0.776508

>  <SCORE.INTRA>
-4.55933

>  <SCORE.INTRA.DIHEDRAL>
-10.4739

>  <SCORE.INTRA.DIHEDRAL.0>
13.2525

>  <SCORE.INTRA.POLAR>
0

>  <SCORE.INTRA.POLAR.0>
0

>  <SCORE.INTRA.REPUL>
0

>  <SCORE.INTRA.REPUL.0>
0

>  <SCORE.INTRA.SOLV>
2.4281

>  <SCORE.INTRA.SOLV.lig_0>
-70.7221

>  <SCORE.INTRA.VDW>
-0.536423

>  <SCORE.INTRA.VDW.0>
-1.46337

>  <SCORE.INTRA.norm>
-0.189972

>  <SCORE.RESTR>
0

>  <SCORE.RESTR.CAVITY>
0

>  <SCORE.RESTR.norm>
0

>  <SCORE.SYSTEM>
0

>  <SCORE.SYSTEM.CONST>
0

>  <SCORE.SYSTEM.DIHEDRAL>
0

>  <SCORE.SYSTEM.SOLV>
0

>  <SCORE.SYSTEM.norm>
0

>  <SCORE.heavy>
24

>  <SCORE.norm>
-0.96648

>  <RMSD>
18.146

$$$$
ligand
 OpenBabel11021811483D
libRbt.so/2013.1/901 2013/11/27
 24 26  0  0  0  0  0  0  0  0999 V2000
   -7.5518   -0.0676   -8.5849 P   0  0  1  0  0  0  0  0  0  0  0  0
   -7.9821    0.4432   -9.9433 O   0  0  0  0  0  0  0  0  0  0  0  0
   -7.9936   -1.4663   -8.2238 O   0  5  0  0  0  0  0  0  0  0  0  0
   -6.0869    0.1877   -8.2632 O   0  0  0  0  0  0  0  0  0  0  0  0
   -8.2872    0.7500   -6.1141 C   0  0  0  0  0  0  0  0  0  0  0  0
   -8.4358    0.8104   -7.5433 O   0  0  0  0  0  0  0  0  0  0  0  0
   -9.1356    1.8419   -5.4557 C   0  0  1  0  0  0  0  0  0  0  0  0
  -10.5371    1.5549   -5.5426 O   0  0  0  0  0  0  0  0  0  0  0  0
   -8.8535    2.0658   -3.9798 C   0  0  1  0  0  0  0  0  0  0  0  0
   -7.8413    3.0684   -3.8488 O   0  0  0  0  0  0  0  0  0  0  0  0
  -10.1889    2.5479   -3.4372 C   0  0  1  0  0  0  0  0  0  0  0  0
  -10.3524    3.9524   -3.6797 O   0  0  0  0  0  0  0  0  0  0  0  0
  -11.2116    1.8525   -4.3138 C   0  0  2  0  0  0  0  0  0  0  0  0
  -14.1489   -0.3290   -0.7544 N   0  0  0  0  0  0  0  0  0  0  0  0
  -13.9314    0.9826   -1.0032 C   0  0  1  0  0  0  0  0  0  0  0  0
  -14.5542    1.9107   -0.2422 N   0  0  0  0  0  0  0  0  0  0  0  0
  -13.1022    1.3741   -1.9989 N   0  0  0  0  0  0  0  0  0  0  0  0
  -12.4808    0.4396   -2.7574 C   0  0  1  0  0  0  0  0  0  0  0  0
  -12.6833   -0.9064   -2.5245 C   0  0  2  0  0  0  0  0  0  0  0  0
  -13.5402   -1.2823   -1.4966 C   0  0  0  0  0  0  0  0  0  0  0  0
  -13.7509   -2.4868   -1.2524 O   0  0  0  0  0  0  0  0  0  0  0  0
  -11.9376   -1.5837   -3.4213 N   0  0  0  0  0  0  0  0  0  0  0  0
  -11.2964   -0.6761   -4.1939 C   0  0  0  0  0  0  0  0  0  0  0  0
  -11.6394    0.5470   -3.7773 N   0  0  1  0  0  0  0  0  0  0  0  0
  1  2  1  6  0  0  0
  1  3  1  0  0  0  0
  1  4  2  0  0  0  0
  1  6  1  0  0  0  0
  5  6  1  0  0  0  0
  7  5  1  1  0  0  0
  7  8  1  0  0  0  0
  7  9  1  0  0  0  0
  9 10  1  6  0  0  0
  9 11  1  0  0  0  0
 11 12  1  6  0  0  0
 11 13  1  0  0  0  0
 13  8  1  6  0  0  0
 13 24  1  0  0  0  0
 14 15  1  0  0  0  0
 14 20  1  0  0  0  0
 15 16  1  1  0  0  0
 15 17  1  0  0  0  0
 18 17  1  6  0  0  0
 18 19  1  0  0  0  0
 18 24  1  0  0  0  0
 19 20  1  1  0  0  0
 19 22  1  0  0  0  0
 20 21  2  0  0  0  0
 22 23  1  0  0  0  0
 24 23  1  6  0  0  0
M  CHG  1   3  -1
M  END
>  <CHROM.1>
-174.72472261,71.30378236,172.18142697,-168.92599943,-10.45802529,0.62834278
-4.60291447,0.33774411,-0.79362331,-2.64634421

>  <Name>
ligand

>  <RI>
0

>  <Rbt.Current_Directory>
/home/itssahil/PROJECTS/Mol_Feturizer/New_Systems/rnas/3SLQ

>  <Rbt.Executable>
rbdock ($Id: //depot/dev/client3/rdock/2013.1/src/exe/rbdock.cxx#4 $)

>  <Rbt.Library>
libRbt.so (2013.1, Build901 2013/11/27)

>  <Rbt.Parameter_File>
/export/apps/rDock/src/rDock_2013.1_src/data/scripts/dock_solv.prm

>  <Rbt.Receptor>
prm/blind_docking_80.prm

>  <SCORE>
-22.5081

>  <SCORE.INTER>
-16.8489

>  <SCORE.INTER.CONST>
1

>  <SCORE.INTER.POLAR>
0

>  <SCORE.INTER.ROT>
4

>  <SCORE.INTER.SOLV>
12.3552

>  <SCORE.INTER.VDW>
-21.6177

>  <SCORE.INTER.norm>
-0.702037

>  <SCORE.INTRA>
-5.65919

>  <SCORE.INTRA.DIHEDRAL>
-11.2486

>  <SCORE.INTRA.DIHEDRAL.0>
13.2525

>  <SCORE.INTRA.POLAR>
0

>  <SCORE.INTRA.POLAR.0>
0

>  <SCORE.INTRA.REPUL>
0

>  <SCORE.INTRA.REPUL.0>
0

>  <SCORE.INTRA.SOLV>
0.419181

>  <SCORE.INTRA.SOLV.lig_0>
-70.7221

>  <SCORE.INTRA.VDW>
-0.244465

>  <SCORE.INTRA.VDW.0>
-1.46337

>  <SCORE.INTRA.norm>
-0.2358

>  <SCORE.RESTR>
0

>  <SCORE.RESTR.CAVITY>
0

>  <SCORE.RESTR.norm>
0

>  <SCORE.SYSTEM>
0

>  <SCORE.SYSTEM.CONST>
0

>  <SCORE.SYSTEM.DIHEDRAL>
0

>  <SCORE.SYSTEM.SOLV>
0

>  <SCORE.SYSTEM.norm>
0

>  <SCORE.heavy>
24

>  <SCORE.norm>
-0.937837

>  <RMSD>
18.147

$$$$
ligand
 OpenBabel11021811483D
libRbt.so/2013.1/901 2013/11/27
 24 26  0  0  0  0  0  0  0  0999 V2000
   -7.2806    1.2585   -8.2631 P   0  0  1  0  0  0  0  0  0  0  0  0
   -7.6740    2.6546   -7.8299 O   0  0  0  0  0  0  0  0  0  0  0  0
   -8.0000    0.7034   -9.4698 O   0  5  0  0  0  0  0  0  0  0  0  0
   -5.7778    1.0274   -8.3167 O   0  0  0  0  0  0  0  0  0  0  0  0
   -9.2680    0.2366   -6.7400 C   0  0  0  0  0  0  0  0  0  0  0  0
   -7.8746    0.3069   -7.0888 O   0  0  0  0  0  0  0  0  0  0  0  0
   -9.6326    1.4011   -5.8144 C   0  0  1  0  0  0  0  0  0  0  0  0
  -11.0306    1.4155   -5.4991 O   0  0  0  0  0  0  0  0  0  0  0  0
   -8.9105    1.4039   -4.4779 C   0  0  1  0  0  0  0  0  0  0  0  0
   -7.7029    2.1603   -4.6056 O   0  0  0  0  0  0  0  0  0  0  0  0
   -9.8995    2.0860   -3.5469 C   0  0  1  0  0  0  0  0  0  0  0  0
   -9.8030    3.5122   -3.6689 O   0  0  0  0  0  0  0  0  0  0  0  0
  -11.2539    1.7105   -4.1146 C   0  0  2  0  0  0  0  0  0  0  0  0
  -14.3537   -0.0682   -0.4699 N   0  0  0  0  0  0  0  0  0  0  0  0
  -14.0146    1.2081   -0.7620 C   0  0  1  0  0  0  0  0  0  0  0  0
  -14.5395    2.2148   -0.0274 N   0  0  0  0  0  0  0  0  0  0  0  0
  -13.1608    1.4874   -1.7745 N   0  0  0  0  0  0  0  0  0  0  0  0
  -12.6379    0.4746   -2.5063 C   0  0  1  0  0  0  0  0  0  0  0  0
  -12.9655   -0.8381   -2.2292 C   0  0  2  0  0  0  0  0  0  0  0  0
  -13.8450   -1.0981   -1.1848 C   0  0  0  0  0  0  0  0  0  0  0  0
  -14.1672   -2.2687   -0.9008 O   0  0  0  0  0  0  0  0  0  0  0  0
  -12.2956   -1.6111   -3.1082 N   0  0  0  0  0  0  0  0  0  0  0  0
  -11.5779   -0.7935   -3.9133 C   0  0  0  0  0  0  0  0  0  0  0  0
  -11.7992    0.4692   -3.5341 N   0  0  1  0  0  0  0  0  0  0  0  0
  1  2  1  1  0  0  0
  1  3  1  0  0  0  0
  1  4  2  0  0  0  0
  1  6  1  0  0  0  0
  5  6  1  0  0  0  0
  7  5  1  1  0  0  0
  7  8  1  0  0  0  0
  7  9  1  0  0  0  0
  9 10  1  6  0  0  0
  9 11  1  0  0  0  0
 11 12  1  6  0  0  0
 11 13  1  0  0  0  0
 13  8  1  6  0  0  0
 13 24  1  0  0  0  0
 14 15  1  0  0  0  0
 14 20  1  0  0  0  0
 15 16  1  1  0  0  0
 15 17  1  0  0  0  0
 18 17  1  6  0  0  0
 18 19  1  0  0  0  0
 18 24  1  0  0  0  0
 19 20  1  1  0  0  0
 19 22  1  0  0  0  0
 20 21  2  0  0  0  0
 22 23  1  0  0  0  0
 24 23  1  6  0  0  0
M  CHG  1   3  -1
M  END
>  <CHROM.1>
59.47804081,176.76181165,-81.79985003,-150.10764448,-10.50929893,0.85244028
-4.48921318,0.20717472,-0.79975734,-2.66083814

>  <Name>
ligand

>  <RI>
0

>  <Rbt.Current_Directory>
/home/itssahil/PROJECTS/Mol_Feturizer/New_Systems/rnas/3SLQ

>  <Rbt.Executable>
rbdock ($Id: //depot/dev/client3/rdock/2013.1/src/exe/rbdock.cxx#4 $)

>  <Rbt.Library>
libRbt.so (2013.1, Build901 2013/11/27)

>  <Rbt.Parameter_File>
/export/apps/rDock/src/rDock_2013.1_src/data/scripts/dock_solv.prm

>  <Rbt.Receptor>
prm/blind_docking_80.prm

>  <SCORE>
-22.2464

>  <SCORE.INTER>
-17.0462

>  <SCORE.INTER.CONST>
1

>  <SCORE.INTER.POLAR>
0

>  <SCORE.INTER.ROT>
4

>  <SCORE.INTER.SOLV>
15.3935

>  <SCORE.INTER.VDW>
-22.7619

>  <SCORE.INTER.norm>
-0.710257

>  <SCORE.INTRA>
-5.20023

>  <SCORE.INTRA.DIHEDRAL>
-9.89064

>  <SCORE.INTRA.DIHEDRAL.0>
13.2525

>  <SCORE.INTRA.POLAR>
0

>  <SCORE.INTRA.POLAR.0>
0

>  <SCORE.INTRA.REPUL>
0

>  <SCORE.INTRA.REPUL.0>
0

>  <SCORE.INTRA.SOLV>
1.14093

>  <SCORE.INTRA.SOLV.lig_0>
-70.7221

>  <SCORE.INTRA.VDW>
-0.825371

>  <SCORE.INTRA.VDW.0>
-1.46337

>  <SCORE.INTRA.norm>
-0.216676

>  <SCORE.RESTR>
0

>  <SCORE.RESTR.CAVITY>
0

>  <SCORE.RESTR.norm>
0

>  <SCORE.SYSTEM>
0

>  <SCORE.SYSTEM.CONST>
0

>  <SCORE.SYSTEM.DIHEDRAL>
0

>  <SCORE.SYSTEM.SOLV>
0

>  <SCORE.SYSTEM.norm>
0

>  <SCORE.heavy>
24

>  <SCORE.norm>
-0.926933

>  <RMSD>
18.152

$$$$
ligand
 OpenBabel11021811483D
libRbt.so/2013.1/901 2013/11/27
 24 26  0  0  0  0  0  0  0  0999 V2000
   -7.5826   -0.0368   -8.5994 P   0  0  1  0  0  0  0  0  0  0  0  0
   -7.9900    0.5091   -9.9512 O   0  0  0  0  0  0  0  0  0  0  0  0
   -8.0530   -1.4343   -8.2714 O   0  5  0  0  0  0  0  0  0  0  0  0
   -6.1167    0.1853   -8.2583 O   0  0  0  0  0  0  0  0  0  0  0  0
   -8.3261    0.7457   -6.1198 C   0  0  0  0  0  0  0  0  0  0  0  0
   -8.4612    0.8357   -7.5487 O   0  0  0  0  0  0  0  0  0  0  0  0
   -9.1621    1.8389   -5.4477 C   0  0  1  0  0  0  0  0  0  0  0  0
  -10.5665    1.5662   -5.5332 O   0  0  0  0  0  0  0  0  0  0  0  0
   -8.8735    2.0452   -3.9706 C   0  0  1  0  0  0  0  0  0  0  0  0
   -7.8514    3.0368   -3.8325 O   0  0  0  0  0  0  0  0  0  0  0  0
  -10.2026    2.5345   -3.4190 C   0  0  1  0  0  0  0  0  0  0  0  0
  -10.3534    3.9429   -3.6468 O   0  0  0  0  0  0  0  0  0  0  0  0
  -11.2345    1.8578   -4.2994 C   0  0  2  0  0  0  0  0  0  0  0  0
  -14.1727   -0.3315   -0.7455 N   0  0  0  0  0  0  0  0  0  0  0  0
  -13.9423    0.9803   -0.9810 C   0  0  1  0  0  0  0  0  0  0  0  0
  -14.5500    1.9065   -0.2056 N   0  0  0  0  0  0  0  0  0  0  0  0
  -13.1153    1.3740   -1.9777 N   0  0  0  0  0  0  0  0  0  0  0  0
  -12.5091    0.4414   -2.7506 C   0  0  1  0  0  0  0  0  0  0  0  0
  -12.7248   -0.9049   -2.5315 C   0  0  2  0  0  0  0  0  0  0  0  0
  -13.5792   -1.2830   -1.5023 C   0  0  0  0  0  0  0  0  0  0  0  0
  -13.8015   -2.4878   -1.2702 O   0  0  0  0  0  0  0  0  0  0  0  0
  -11.9925   -1.5801   -3.4407 N   0  0  0  0  0  0  0  0  0  0  0  0
  -11.3463   -0.6709   -4.2073 C   0  0  0  0  0  0  0  0  0  0  0  0
  -11.6731    0.5510   -3.7748 N   0  0  1  0  0  0  0  0  0  0  0  0
  1  2  1  6  0  0  0
  1  3  1  0  0  0  0
  1  4  2  0  0  0  0
  1  6  1  0  0  0  0
  5  6  1  0  0  0  0
  7  5  1  1  0  0  0
  7  8  1  0  0  0  0
  7  9  1  0  0  0  0
  9 10  1  6  0  0  0
  9 11  1  0  0  0  0
 11 12  1  6  0  0  0
 11 13  1  0  0  0  0
 13  8  1  6  0  0  0
 13 24  1  0  0  0  0
 14 15  1  0  0  0  0
 14 20  1  0  0  0  0
 15 16  1  1  0  0  0
 15 17  1  0  0  0  0
 18 17  1  6  0  0  0
 18 19  1  0  0  0  0
 18 24  1  0  0  0  0
 19 20  1  1  0  0  0
 19 22  1  0  0  0  0
 20 21  2  0  0  0  0
 22 23  1  0  0  0  0
 24 23  1  6  0  0  0
M  CHG  1   3  -1
M  END
>  <CHROM.1>
-174.58439393,72.23729289,172.17082082,-169.14955315,-10.48544718,0.63396300
-4.60118810,0.34810542,-0.79215653,-2.62874957

>  <Name>
ligand

>  <RI>
0

>  <Rbt.Current_Directory>
/home/itssahil/PROJECTS/Mol_Feturizer/New_Systems/rnas/3SLQ

>  <Rbt.Executable>
rbdock ($Id: //depot/dev/client3/rdock/2013.1/src/exe/rbdock.cxx#4 $)

>  <Rbt.Library>
libRbt.so (2013.1, Build901 2013/11/27)

>  <Rbt.Parameter_File>
/export/apps/rDock/src/rDock_2013.1_src/data/scripts/dock_solv.prm

>  <Rbt.Receptor>
prm/blind_docking_100.prm

>  <SCORE>
-22.5421

>  <SCORE.INTER>
-16.9232

>  <SCORE.INTER.CONST>
1

>  <SCORE.INTER.POLAR>
0

>  <SCORE.INTER.ROT>
4

>  <SCORE.INTER.SOLV>
12.336

>  <SCORE.INTER.VDW>
-21.6608

>  <SCORE.INTER.norm>
-0.705131

>  <SCORE.INTRA>
-5.61893

>  <SCORE.INTRA.DIHEDRAL>
-11.1711

>  <SCORE.INTRA.DIHEDRAL.0>
13.2525

>  <SCORE.INTRA.POLAR>
0

>  <SCORE.INTRA.POLAR.0>
0

>  <SCORE.INTRA.REPUL>
0

>  <SCORE.INTRA.REPUL.0>
0

>  <SCORE.INTRA.SOLV>
0.419095

>  <SCORE.INTRA.SOLV.lig_0>
-70.7221

>  <SCORE.INTRA.VDW>
-0.242918

>  <SCORE.INTRA.VDW.0>
-1.46337

>  <SCORE.INTRA.norm>
-0.234122

>  <SCORE.RESTR>
0

>  <SCORE.RESTR.CAVITY>
0

>  <SCORE.RESTR.norm>
0

>  <SCORE.SYSTEM>
0

>  <SCORE.SYSTEM.CONST>
0

>  <SCORE.SYSTEM.DIHEDRAL>
0

>  <SCORE.SYSTEM.SOLV>
0

>  <SCORE.SYSTEM.norm>
0

>  <SCORE.heavy>
24

>  <SCORE.norm>
-0.939254

>  <RMSD>
18.155

$$$$
ligand
 OpenBabel11021811483D
libRbt.so/2013.1/901 2013/11/27
 24 26  0  0  0  0  0  0  0  0999 V2000
   -6.9731    1.2718   -8.8459 P   0  0  1  0  0  0  0  0  0  0  0  0
   -7.3569    2.7336   -8.7599 O   0  0  0  0  0  0  0  0  0  0  0  0
   -6.8184    0.7001  -10.2355 O   0  5  0  0  0  0  0  0  0  0  0  0
   -5.8356    0.8748   -7.9168 O   0  0  0  0  0  0  0  0  0  0  0  0
   -8.7675    0.4912   -6.9793 C   0  0  0  0  0  0  0  0  0  0  0  0
   -8.3048    0.4915   -8.3409 O   0  0  0  0  0  0  0  0  0  0  0  0
   -8.0883   -0.6382   -6.1988 C   0  0  1  0  0  0  0  0  0  0  0  0
   -8.2583   -0.4871   -4.7837 O   0  0  0  0  0  0  0  0  0  0  0  0
   -8.5932   -2.0331   -6.5260 C   0  0  1  0  0  0  0  0  0  0  0  0
   -7.8011   -2.5753   -7.5868 O   0  0  0  0  0  0  0  0  0  0  0  0
   -8.3829   -2.7952   -5.2279 C   0  0  1  0  0  0  0  0  0  0  0  0
   -7.0251   -3.2468   -5.1246 O   0  0  0  0  0  0  0  0  0  0  0  0
   -8.5533   -1.7397   -4.1533 C   0  0  2  0  0  0  0  0  0  0  0  0
  -12.0306    1.6257   -2.5291 N   0  0  0  0  0  0  0  0  0  0  0  0
  -10.7457    1.8289   -2.8994 C   0  0  1  0  0  0  0  0  0  0  0  0
  -10.2399    3.0825   -2.8664 N   0  0  0  0  0  0  0  0  0  0  0  0
   -9.9652    0.7980   -3.2997 N   0  0  0  0  0  0  0  0  0  0  0  0
  -10.4774   -0.4556   -3.3300 C   0  0  1  0  0  0  0  0  0  0  0  0
  -11.7856   -0.6922   -2.9557 C   0  0  2  0  0  0  0  0  0  0  0  0
  -12.5664    0.3836   -2.5494 C   0  0  0  0  0  0  0  0  0  0  0  0
  -13.7522    0.2142   -2.2032 O   0  0  0  0  0  0  0  0  0  0  0  0
  -12.0040   -2.0170   -3.0826 N   0  0  0  0  0  0  0  0  0  0  0  0
  -10.8594   -2.5827   -3.5319 C   0  0  0  0  0  0  0  0  0  0  0  0
   -9.9441   -1.6194   -3.6777 N   0  0  1  0  0  0  0  0  0  0  0  0
  1  2  1  6  0  0  0
  1  3  1  0  0  0  0
  1  4  2  0  0  0  0
  1  6  1  0  0  0  0
  5  6  1  0  0  0  0
  7  5  1  6  0  0  0
  7  8  1  0  0  0  0
  7  9  1  0  0  0  0
  9 10  1  6  0  0  0
  9 11  1  0  0  0  0
 11 12  1  6  0  0  0
 11 13  1  0  0  0  0
 13  8  1  6  0  0  0
 13 24  1  0  0  0  0
 14 15  1  0  0  0  0
 14 20  1  0  0  0  0
 15 16  1  1  0  0  0
 15 17  1  0  0  0  0
 18 17  1  6  0  0  0
 18 19  1  0  0  0  0
 18 24  1  0  0  0  0
 19 20  1  1  0  0  0
 19 22  1  0  0  0  0
 20 21  2  0  0  0  0
 22 23  1  0  0  0  0
 24 23  1  6  0  0  0
M  CHG  1   3  -1
M  END
>  <CHROM.1>
-70.54971294,165.86442948,-87.00894933,-29.28829218,-9.16712981,-0.16976536
-5.45872393,0.31010163,0.85784327,-0.29654559

>  <Name>
ligand

>  <RI>
0

>  <Rbt.Current_Directory>
/home/itssahil/PROJECTS/Mol_Feturizer/New_Systems/rnas/3SLQ

>  <Rbt.Executable>
rbdock ($Id: //depot/dev/client3/rdock/2013.1/src/exe/rbdock.cxx#4 $)

>  <Rbt.Library>
libRbt.so (2013.1, Build901 2013/11/27)

>  <Rbt.Parameter_File>
/export/apps/rDock/src/rDock_2013.1_src/data/scripts/dock_solv.prm

>  <Rbt.Receptor>
prm/blind_docking_20.prm

>  <SCORE>
-18.4101

>  <SCORE.INTER>
-14.9878

>  <SCORE.INTER.CONST>
1

>  <SCORE.INTER.POLAR>
0

>  <SCORE.INTER.ROT>
4

>  <SCORE.INTER.SOLV>
16.1915

>  <SCORE.INTER.VDW>
-21.6557

>  <SCORE.INTER.norm>
-0.624492

>  <SCORE.INTRA>
-3.42225

>  <SCORE.INTRA.DIHEDRAL>
-8.12366

>  <SCORE.INTRA.DIHEDRAL.0>
13.2525

>  <SCORE.INTRA.POLAR>
0

>  <SCORE.INTRA.POLAR.0>
0

>  <SCORE.INTRA.REPUL>
0

>  <SCORE.INTRA.REPUL.0>
0

>  <SCORE.INTRA.SOLV>
1.98815

>  <SCORE.INTRA.SOLV.lig_0>
-70.7221

>  <SCORE.INTRA.VDW>
-0.354495

>  <SCORE.INTRA.VDW.0>
-1.46337

>  <SCORE.INTRA.norm>
-0.142594

>  <SCORE.RESTR>
0

>  <SCORE.RESTR.CAVITY>
0

>  <SCORE.RESTR.norm>
0

>  <SCORE.SYSTEM>
0

>  <SCORE.SYSTEM.CONST>
0

>  <SCORE.SYSTEM.DIHEDRAL>
0

>  <SCORE.SYSTEM.SOLV>
0

>  <SCORE.SYSTEM.norm>
0

>  <SCORE.heavy>
24

>  <SCORE.norm>
-0.767086

>  <RMSD>
18.165

$$$$
ligand
 OpenBabel11021811483D
libRbt.so/2013.1/901 2013/11/27
 24 26  0  0  0  0  0  0  0  0999 V2000
   -7.5326    1.2400   -8.4134 P   0  0  1  0  0  0  0  0  0  0  0  0
   -8.0641    0.7324   -9.7368 O   0  0  0  0  0  0  0  0  0  0  0  0
   -6.0694    0.9860   -8.1369 O   0  5  0  0  0  0  0  0  0  0  0  0
   -7.9552    2.6633   -8.0817 O   0  0  0  0  0  0  0  0  0  0  0  0
   -8.0853    0.4235   -5.8952 C   0  0  0  0  0  0  0  0  0  0  0  0
   -8.2250    0.2620   -7.3174 O   0  0  0  0  0  0  0  0  0  0  0  0
   -8.9959    1.5544   -5.4076 C   0  0  1  0  0  0  0  0  0  0  0  0
  -10.3828    1.2313   -5.5697 O   0  0  0  0  0  0  0  0  0  0  0  0
   -8.8286    1.9215   -3.9430 C   0  0  1  0  0  0  0  0  0  0  0  0
   -7.8432    2.9529   -3.8337 O   0  0  0  0  0  0  0  0  0  0  0  0
  -10.2076    2.4243   -3.5483 C   0  0  1  0  0  0  0  0  0  0  0  0
  -10.3718    3.7962   -3.9344 O   0  0  0  0  0  0  0  0  0  0  0  0
  -11.1517    1.6286   -4.4276 C   0  0  2  0  0  0  0  0  0  0  0  0
  -14.1518   -0.2551   -0.7523 N   0  0  0  0  0  0  0  0  0  0  0  0
  -13.9162    1.0323   -1.0935 C   0  0  1  0  0  0  0  0  0  0  0  0
  -14.5359    2.0203   -0.4090 N   0  0  0  0  0  0  0  0  0  0  0  0
  -13.0721    1.3411   -2.1055 N   0  0  0  0  0  0  0  0  0  0  0  0
  -12.4538    0.3470   -2.7869 C   0  0  1  0  0  0  0  0  0  0  0  0
  -12.6746   -0.9762   -2.4589 C   0  0  2  0  0  0  0  0  0  0  0  0
  -13.5466   -1.2666   -1.4162 C   0  0  0  0  0  0  0  0  0  0  0  0
  -13.7740   -2.4477   -1.0874 O   0  0  0  0  0  0  0  0  0  0  0  0
  -11.9276   -1.7252   -3.2956 N   0  0  0  0  0  0  0  0  0  0  0  0
  -11.2677   -0.8834   -4.1250 C   0  0  0  0  0  0  0  0  0  0  0  0
  -11.6005    0.3705   -3.8024 N   0  0  1  0  0  0  0  0  0  0  0  0
  1  2  1  6  0  0  0
  1  3  1  0  0  0  0
  1  4  2  0  0  0  0
  1  6  1  0  0  0  0
  5  6  1  0  0  0  0
  7  5  1  1  0  0  0
  7  8  1  0  0  0  0
  7  9  1  0  0  0  0
  9 10  1  6  0  0  0
  9 11  1  0  0  0  0
 11 12  1  6  0  0  0
 11 13  1  0  0  0  0
 13  8  1  6  0  0  0
 13 24  1  0  0  0  0
 14 15  1  0  0  0  0
 14 20  1  0  0  0  0
 15 16  1  1  0  0  0
 15 17  1  0  0  0  0
 18 17  1  6  0  0  0
 18 19  1  0  0  0  0
 18 24  1  0  0  0  0
 19 20  1  1  0  0  0
 19 22  1  0  0  0  0
 20 21  2  0  0  0  0
 22 23  1  0  0  0  0
 24 23  1  6  0  0  0
M  CHG  1   3  -1
M  END
>  <CHROM.1>
-175.50894206,65.78485318,77.70201388,-173.11464462,-10.42136693,0.86928593
-4.56096853,0.16597188,-0.82449279,-2.68957079

>  <Name>
ligand

>  <RI>
0

>  <Rbt.Current_Directory>
/home/itssahil/PROJECTS/Mol_Feturizer/New_Systems/rnas/3SLQ

>  <Rbt.Executable>
rbdock ($Id: //depot/dev/client3/rdock/2013.1/src/exe/rbdock.cxx#4 $)

>  <Rbt.Library>
libRbt.so (2013.1, Build901 2013/11/27)

>  <Rbt.Parameter_File>
/export/apps/rDock/src/rDock_2013.1_src/data/scripts/dock_solv.prm

>  <Rbt.Receptor>
prm/blind_docking_100.prm

>  <SCORE>
-23.2876

>  <SCORE.INTER>
-18.6905

>  <SCORE.INTER.CONST>
1

>  <SCORE.INTER.POLAR>
0

>  <SCORE.INTER.ROT>
4

>  <SCORE.INTER.SOLV>
18.5328

>  <SCORE.INTER.VDW>
-24.9046

>  <SCORE.INTER.norm>
-0.77877

>  <SCORE.INTRA>
-4.59715

>  <SCORE.INTRA.DIHEDRAL>
-10.4521

>  <SCORE.INTRA.DIHEDRAL.0>
13.2525

>  <SCORE.INTRA.POLAR>
0

>  <SCORE.INTRA.POLAR.0>
0

>  <SCORE.INTRA.REPUL>
0

>  <SCORE.INTRA.REPUL.0>
0

>  <SCORE.INTRA.SOLV>
2.39222

>  <SCORE.INTRA.SOLV.lig_0>
-70.7221

>  <SCORE.INTRA.VDW>
-0.567223

>  <SCORE.INTRA.VDW.0>
-1.46337

>  <SCORE.INTRA.norm>
-0.191548

>  <SCORE.RESTR>
0

>  <SCORE.RESTR.CAVITY>
0

>  <SCORE.RESTR.norm>
0

>  <SCORE.SYSTEM>
0

>  <SCORE.SYSTEM.CONST>
0

>  <SCORE.SYSTEM.DIHEDRAL>
0

>  <SCORE.SYSTEM.SOLV>
0

>  <SCORE.SYSTEM.norm>
0

>  <SCORE.heavy>
24

>  <SCORE.norm>
-0.970318

>  <RMSD>
18.170

$$$$
ligand
 OpenBabel11021811483D
libRbt.so/2013.1/901 2013/11/27
 24 26  0  0  0  0  0  0  0  0999 V2000
   -7.2136    1.1874   -8.4425 P   0  0  1  0  0  0  0  0  0  0  0  0
   -5.7473    0.8701   -8.6444 O   0  0  0  0  0  0  0  0  0  0  0  0
   -7.5319    2.5457   -7.8632 O   0  5  0  0  0  0  0  0  0  0  0  0
   -8.0927    0.8355   -9.6333 O   0  0  0  0  0  0  0  0  0  0  0  0
   -9.0126    0.0431   -6.7789 C   0  0  0  0  0  0  0  0  0  0  0  0
   -7.6535    0.2206   -7.2142 O   0  0  0  0  0  0  0  0  0  0  0  0
   -9.4375    1.2254   -5.9029 C   0  0  1  0  0  0  0  0  0  0  0  0
  -10.8381    1.1907   -5.6011 O   0  0  0  0  0  0  0  0  0  0  0  0
   -8.7306    1.3114   -4.5609 C   0  0  1  0  0  0  0  0  0  0  0  0
   -7.5557    2.1144   -4.7070 O   0  0  0  0  0  0  0  0  0  0  0  0
   -9.7584    1.9850   -3.6663 C   0  0  1  0  0  0  0  0  0  0  0  0
   -9.7225    3.4083   -3.8430 O   0  0  0  0  0  0  0  0  0  0  0  0
  -11.0890    1.5288   -4.2313 C   0  0  2  0  0  0  0  0  0  0  0  0
  -14.2599   -0.2464   -0.6466 N   0  0  0  0  0  0  0  0  0  0  0  0
  -13.9855    1.0315   -0.9946 C   0  0  1  0  0  0  0  0  0  0  0  0
  -14.6096    2.0405   -0.3457 N   0  0  0  0  0  0  0  0  0  0  0  0
  -13.0987    1.3102   -1.9785 N   0  0  0  0  0  0  0  0  0  0  0  0
  -12.4763    0.2951   -2.6243 C   0  0  1  0  0  0  0  0  0  0  0  0
  -12.7361   -1.0190   -2.2885 C   0  0  2  0  0  0  0  0  0  0  0  0
  -13.6516   -1.2784   -1.2753 C   0  0  0  0  0  0  0  0  0  0  0  0
  -13.9151   -2.4502   -0.9406 O   0  0  0  0  0  0  0  0  0  0  0  0
  -11.9745   -1.7937   -3.0877 N   0  0  0  0  0  0  0  0  0  0  0  0
  -11.2674   -0.9762   -3.9024 C   0  0  0  0  0  0  0  0  0  0  0  0
  -11.5861    0.2882   -3.6078 N   0  0  1  0  0  0  0  0  0  0  0  0
  1  2  1  6  0  0  0
  1  3  1  0  0  0  0
  1  4  2  0  0  0  0
  1  6  1  0  0  0  0
  5  6  1  0  0  0  0
  7  5  1  1  0  0  0
  7  8  1  0  0  0  0
  7  9  1  0  0  0  0
  9 10  1  6  0  0  0
  9 11  1  0  0  0  0
 11 12  1  6  0  0  0
 11 13  1  0  0  0  0
 13  8  1  6  0  0  0
 13 24  1  0  0  0  0
 14 15  1  0  0  0  0
 14 20  1  0  0  0  0
 15 16  1  1  0  0  0
 15 17  1  0  0  0  0
 18 17  1  6  0  0  0
 18 19  1  0  0  0  0
 18 24  1  0  0  0  0
 19 20  1  1  0  0  0
 19 22  1  0  0  0  0
 20 21  2  0  0  0  0
 22 23  1  0  0  0  0
 24 23  1  6  0  0  0
M  CHG  1   3  -1
M  END
>  <CHROM.1>
-171.49819035,171.73628198,-79.53632530,-147.32732589,-10.36886109,0.71776548
-4.61563899,0.13679741,-0.81793365,-2.74322260

>  <Name>
ligand

>  <RI>
0

>  <Rbt.Current_Directory>
/home/itssahil/PROJECTS/Mol_Feturizer/New_Systems/rnas/3SLQ

>  <Rbt.Executable>
rbdock ($Id: //depot/dev/client3/rdock/2013.1/src/exe/rbdock.cxx#4 $)

>  <Rbt.Library>
libRbt.so (2013.1, Build901 2013/11/27)

>  <Rbt.Parameter_File>
/export/apps/rDock/src/rDock_2013.1_src/data/scripts/dock_solv.prm

>  <Rbt.Receptor>
prm/blind_docking_60.prm

>  <SCORE>
-19.938

>  <SCORE.INTER>
-15.7971

>  <SCORE.INTER.CONST>
1

>  <SCORE.INTER.POLAR>
0

>  <SCORE.INTER.ROT>
4

>  <SCORE.INTER.SOLV>
19.6831

>  <SCORE.INTER.VDW>
-23.3591

>  <SCORE.INTER.norm>
-0.658214

>  <SCORE.INTRA>
-4.14084

>  <SCORE.INTRA.DIHEDRAL>
-9.94283

>  <SCORE.INTRA.DIHEDRAL.0>
13.2525

>  <SCORE.INTRA.POLAR>
0

>  <SCORE.INTRA.POLAR.0>
0

>  <SCORE.INTRA.REPUL>
0

>  <SCORE.INTRA.REPUL.0>
0

>  <SCORE.INTRA.SOLV>
3.4011

>  <SCORE.INTRA.SOLV.lig_0>
-70.7221

>  <SCORE.INTRA.VDW>
-0.869969

>  <SCORE.INTRA.VDW.0>
-1.46337

>  <SCORE.INTRA.norm>
-0.172535

>  <SCORE.RESTR>
0

>  <SCORE.RESTR.CAVITY>
0

>  <SCORE.RESTR.norm>
0

>  <SCORE.SYSTEM>
0

>  <SCORE.SYSTEM.CONST>
0

>  <SCORE.SYSTEM.DIHEDRAL>
0

>  <SCORE.SYSTEM.SOLV>
0

>  <SCORE.SYSTEM.norm>
0

>  <SCORE.heavy>
24

>  <SCORE.norm>
-0.830749

>  <RMSD>
18.170

$$$$
ligand
 OpenBabel11021811483D
libRbt.so/2013.1/901 2013/11/27
 24 26  0  0  0  0  0  0  0  0999 V2000
   -7.3605    1.2599   -8.3611 P   0  0  1  0  0  0  0  0  0  0  0  0
   -7.8227    2.6239   -7.8951 O   0  0  0  0  0  0  0  0  0  0  0  0
   -8.0742    0.6842   -9.5616 O   0  5  0  0  0  0  0  0  0  0  0  0
   -5.8486    1.1161   -8.4512 O   0  0  0  0  0  0  0  0  0  0  0  0
   -9.2445    0.1436   -6.7742 C   0  0  0  0  0  0  0  0  0  0  0  0
   -7.8728    0.2569   -7.1911 O   0  0  0  0  0  0  0  0  0  0  0  0
   -9.6118    1.3212   -5.8663 C   0  0  1  0  0  0  0  0  0  0  0  0
  -11.0054    1.3235   -5.5316 O   0  0  0  0  0  0  0  0  0  0  0  0
   -8.8714    1.3595   -4.5404 C   0  0  1  0  0  0  0  0  0  0  0  0
   -7.6759    2.1290   -4.6997 O   0  0  0  0  0  0  0  0  0  0  0  0
   -9.8565    2.0468   -3.6090 C   0  0  1  0  0  0  0  0  0  0  0  0
   -9.7807    3.4715   -3.7599 O   0  0  0  0  0  0  0  0  0  0  0  0
  -11.2135    1.6426   -4.1502 C   0  0  2  0  0  0  0  0  0  0  0  0
  -14.3163   -0.1038   -0.4924 N   0  0  0  0  0  0  0  0  0  0  0  0
  -14.0067    1.1715   -0.8200 C   0  0  1  0  0  0  0  0  0  0  0  0
  -14.5680    2.1862   -0.1245 N   0  0  0  0  0  0  0  0  0  0  0  0
  -13.1464    1.4417   -1.8295 N   0  0  0  0  0  0  0  0  0  0  0  0
  -12.5869    0.4209   -2.5221 C   0  0  1  0  0  0  0  0  0  0  0  0
  -12.8838   -0.8907   -2.2081 C   0  0  2  0  0  0  0  0  0  0  0  0
  -13.7708   -1.1415   -1.1677 C   0  0  0  0  0  0  0  0  0  0  0  0
  -14.0661   -2.3108   -0.8513 O   0  0  0  0  0  0  0  0  0  0  0  0
  -12.1817   -1.6727   -3.0534 N   0  0  0  0  0  0  0  0  0  0  0  0
  -11.4744   -0.8616   -3.8743 C   0  0  0  0  0  0  0  0  0  0  0  0
  -11.7340    0.4059   -3.5381 N   0  0  1  0  0  0  0  0  0  0  0  0
  1  2  1  1  0  0  0
  1  3  1  0  0  0  0
  1  4  2  0  0  0  0
  1  6  1  0  0  0  0
  5  6  1  0  0  0  0
  7  5  1  1  0  0  0
  7  8  1  0  0  0  0
  7  9  1  0  0  0  0
  9 10  1  6  0  0  0
  9 11  1  0  0  0  0
 11 12  1  6  0  0  0
 11 13  1  0  0  0  0
 13  8  1  6  0  0  0
 13 24  1  0  0  0  0
 14 15  1  0  0  0  0
 14 20  1  0  0  0  0
 15 16  1  1  0  0  0
 15 17  1  0  0  0  0
 18 17  1  6  0  0  0
 18 19  1  0  0  0  0
 18 24  1  0  0  0  0
 19 20  1  1  0  0  0
 19 22  1  0  0  0  0
 20 21  2  0  0  0  0
 22 23  1  0  0  0  0
 24 23  1  6  0  0  0
M  CHG  1   3  -1
M  END
>  <CHROM.1>
56.67523425,174.26055238,-78.01681302,-148.22980381,-10.49658153,0.81276534
-4.53697054,0.18434703,-0.81940308,-2.69230697

>  <Name>
ligand

>  <RI>
0

>  <Rbt.Current_Directory>
/home/itssahil/PROJECTS/Mol_Feturizer/New_Systems/rnas/3SLQ

>  <Rbt.Executable>
rbdock ($Id: //depot/dev/client3/rdock/2013.1/src/exe/rbdock.cxx#4 $)

>  <Rbt.Library>
libRbt.so (2013.1, Build901 2013/11/27)

>  <Rbt.Parameter_File>
/export/apps/rDock/src/rDock_2013.1_src/data/scripts/dock_solv.prm

>  <Rbt.Receptor>
prm/blind_docking_100.prm

>  <SCORE>
-22.2297

>  <SCORE.INTER>
-16.8029

>  <SCORE.INTER.CONST>
1

>  <SCORE.INTER.POLAR>
0

>  <SCORE.INTER.ROT>
4

>  <SCORE.INTER.SOLV>
16.4854

>  <SCORE.INTER.VDW>
-22.9638

>  <SCORE.INTER.norm>
-0.700123

>  <SCORE.INTRA>
-5.42673

>  <SCORE.INTRA.DIHEDRAL>
-10.4077

>  <SCORE.INTRA.DIHEDRAL.0>
13.2525

>  <SCORE.INTRA.POLAR>
0

>  <SCORE.INTRA.POLAR.0>
0

>  <SCORE.INTRA.REPUL>
0

>  <SCORE.INTRA.REPUL.0>
0

>  <SCORE.INTRA.SOLV>
1.19272

>  <SCORE.INTRA.SOLV.lig_0>
-70.7221

>  <SCORE.INTRA.VDW>
-0.819249

>  <SCORE.INTRA.VDW.0>
-1.46337

>  <SCORE.INTRA.norm>
-0.226114

>  <SCORE.RESTR>
0

>  <SCORE.RESTR.CAVITY>
0

>  <SCORE.RESTR.norm>
0

>  <SCORE.SYSTEM>
0

>  <SCORE.SYSTEM.CONST>
0

>  <SCORE.SYSTEM.DIHEDRAL>
0

>  <SCORE.SYSTEM.SOLV>
0

>  <SCORE.SYSTEM.norm>
0

>  <SCORE.heavy>
24

>  <SCORE.norm>
-0.926236

>  <RMSD>
18.172

$$$$
ligand
 OpenBabel11021811483D
libRbt.so/2013.1/901 2013/11/27
 24 26  0  0  0  0  0  0  0  0999 V2000
   -7.7094   -1.4759   -7.8853 P   0  0  1  0  0  0  0  0  0  0  0  0
   -8.9952   -1.6833   -7.1139 O   0  0  0  0  0  0  0  0  0  0  0  0
   -6.6356   -2.5206   -7.6918 O   0  5  0  0  0  0  0  0  0  0  0  0
   -7.9168   -1.1099   -9.3474 O   0  0  0  0  0  0  0  0  0  0  0  0
   -5.8775    0.5024   -7.6749 C   0  0  0  0  0  0  0  0  0  0  0  0
   -7.0242   -0.1953   -7.1587 O   0  0  0  0  0  0  0  0  0  0  0  0
   -5.4852    1.6357   -6.7223 C   0  0  1  0  0  0  0  0  0  0  0  0
   -6.5967    2.4884   -6.4198 O   0  0  0  0  0  0  0  0  0  0  0  0
   -4.9400    1.1804   -5.3795 C   0  0  1  0  0  0  0  0  0  0  0  0
   -3.5183    1.0536   -5.4758 O   0  0  0  0  0  0  0  0  0  0  0  0
   -5.3366    2.3075   -4.4401 C   0  0  1  0  0  0  0  0  0  0  0  0
   -4.3943    3.3862   -4.5234 O   0  0  0  0  0  0  0  0  0  0  0  0
   -6.6285    2.8370   -5.0302 C   0  0  2  0  0  0  0  0  0  0  0  0
  -10.8263    3.6340   -2.2372 N   0  0  0  0  0  0  0  0  0  0  0  0
   -9.8378    4.4959   -2.5680 C   0  0  1  0  0  0  0  0  0  0  0  0
   -9.9066    5.7756   -2.1365 N   0  0  0  0  0  0  0  0  0  0  0  0
   -8.7870    4.0946   -3.3209 N   0  0  0  0  0  0  0  0  0  0  0  0
   -8.7234    2.8112   -3.7495 C   0  0  1  0  0  0  0  0  0  0  0  0
   -9.7177    1.9093   -3.4254 C   0  0  2  0  0  0  0  0  0  0  0  0
  -10.7865    2.3467   -2.6518 C   0  0  0  0  0  0  0  0  0  0  0  0
  -11.7054    1.5652   -2.3363 O   0  0  0  0  0  0  0  0  0  0  0  0
   -9.3811    0.7271   -3.9803 N   0  0  0  0  0  0  0  0  0  0  0  0
   -8.2104    0.8983   -4.6376 C   0  0  0  0  0  0  0  0  0  0  0  0
   -7.8269    2.1701   -4.4878 N   0  0  1  0  0  0  0  0  0  0  0  0
  1  2  1  1  0  0  0
  1  3  1  0  0  0  0
  1  4  2  0  0  0  0
  1  6  1  0  0  0  0
  5  6  1  0  0  0  0
  7  5  1  6  0  0  0
  7  8  1  0  0  0  0
  7  9  1  0  0  0  0
  9 10  1  6  0  0  0
  9 11  1  0  0  0  0
 11 12  1  6  0  0  0
 11 13  1  0  0  0  0
 13  8  1  6  0  0  0
 13 24  1  0  0  0  0
 14 15  1  0  0  0  0
 14 20  1  0  0  0  0
 15 16  1  1  0  0  0
 15 17  1  0  0  0  0
 18 17  1  6  0  0  0
 18 19  1  0  0  0  0
 18 24  1  0  0  0  0
 19 20  1  1  0  0  0
 19 22  1  0  0  0  0
 20 21  2  0  0  0  0
 22 23  1  0  0  0  0
 24 23  1  6  0  0  0
M  CHG  1   3  -1
M  END
>  <CHROM.1>
-170.05909052,-52.40859252,-178.83653049,-130.64647499,-7.72501173,1.38562837
-5.25043323,1.09376755,-0.28992823,-2.43936333

>  <Name>
ligand

>  <RI>
0

>  <Rbt.Current_Directory>
/home/itssahil/PROJECTS/Mol_Feturizer/New_Systems/rnas/3SLQ

>  <Rbt.Executable>
rbdock ($Id: //depot/dev/client3/rdock/2013.1/src/exe/rbdock.cxx#4 $)

>  <Rbt.Library>
libRbt.so (2013.1, Build901 2013/11/27)

>  <Rbt.Parameter_File>
/export/apps/rDock/src/rDock_2013.1_src/data/scripts/dock_solv.prm

>  <Rbt.Receptor>
prm/blind_docking_80.prm

>  <SCORE>
-18.2565

>  <SCORE.INTER>
-11.6944

>  <SCORE.INTER.CONST>
1

>  <SCORE.INTER.POLAR>
0

>  <SCORE.INTER.ROT>
4

>  <SCORE.INTER.SOLV>
11.1642

>  <SCORE.INTER.VDW>
-17.7843

>  <SCORE.INTER.norm>
-0.487266

>  <SCORE.INTRA>
-6.56783

>  <SCORE.INTRA.DIHEDRAL>
-11.6676

>  <SCORE.INTRA.DIHEDRAL.0>
13.2525

>  <SCORE.INTRA.POLAR>
0

>  <SCORE.INTRA.POLAR.0>
0

>  <SCORE.INTRA.REPUL>
0

>  <SCORE.INTRA.REPUL.0>
0

>  <SCORE.INTRA.SOLV>
0.569311

>  <SCORE.INTRA.SOLV.lig_0>
-70.7221

>  <SCORE.INTRA.VDW>
-1.01867

>  <SCORE.INTRA.VDW.0>
-1.46337

>  <SCORE.INTRA.norm>
-0.27366

>  <SCORE.RESTR>
0.00568549

>  <SCORE.RESTR.CAVITY>
0.00568549

>  <SCORE.RESTR.norm>
0.000236895

>  <SCORE.SYSTEM>
0

>  <SCORE.SYSTEM.CONST>
0

>  <SCORE.SYSTEM.DIHEDRAL>
0

>  <SCORE.SYSTEM.SOLV>
0

>  <SCORE.SYSTEM.norm>
0

>  <SCORE.heavy>
24

>  <SCORE.norm>
-0.760688

>  <RMSD>
18.174

$$$$
ligand
 OpenBabel11021811483D
libRbt.so/2013.1/901 2013/11/27
 24 26  0  0  0  0  0  0  0  0999 V2000
   -7.5118    1.2730   -8.4606 P   0  0  1  0  0  0  0  0  0  0  0  0
   -8.0512    2.6585   -8.1760 O   0  0  0  0  0  0  0  0  0  0  0  0
   -7.8834    0.6700   -9.7949 O   0  5  0  0  0  0  0  0  0  0  0  0
   -6.0369    1.1029   -8.1288 O   0  0  0  0  0  0  0  0  0  0  0  0
   -8.2395    0.3728   -6.0165 C   0  0  0  0  0  0  0  0  0  0  0  0
   -8.3485    0.3166   -7.4494 O   0  0  0  0  0  0  0  0  0  0  0  0
   -9.1115    1.5081   -5.4720 C   0  0  1  0  0  0  0  0  0  0  0  0
  -10.5080    1.1979   -5.5587 O   0  0  0  0  0  0  0  0  0  0  0  0
   -8.8598    1.8639   -4.0167 C   0  0  1  0  0  0  0  0  0  0  0  0
   -7.8607    2.8861   -3.9560 O   0  0  0  0  0  0  0  0  0  0  0  0
  -10.2102    2.3757   -3.5428 C   0  0  1  0  0  0  0  0  0  0  0  0
  -10.3835    3.7516   -3.9106 O   0  0  0  0  0  0  0  0  0  0  0  0
  -11.2088    1.5940   -4.3731 C   0  0  2  0  0  0  0  0  0  0  0  0
  -14.1629   -0.2991   -0.6656 N   0  0  0  0  0  0  0  0  0  0  0  0
  -13.9511    0.9882   -1.0225 C   0  0  1  0  0  0  0  0  0  0  0  0
  -14.5858    1.9730   -0.3474 N   0  0  0  0  0  0  0  0  0  0  0  0
  -13.1160    1.3000   -2.0411 N   0  0  0  0  0  0  0  0  0  0  0  0
  -12.4826    0.3090   -2.7131 C   0  0  1  0  0  0  0  0  0  0  0  0
  -12.6790   -1.0140   -2.3690 C   0  0  2  0  0  0  0  0  0  0  0  0
  -13.5422   -1.3075   -1.3199 C   0  0  0  0  0  0  0  0  0  0  0  0
  -13.7478   -2.4885   -0.9766 O   0  0  0  0  0  0  0  0  0  0  0  0
  -11.9218   -1.7594   -3.1996 N   0  0  0  0  0  0  0  0  0  0  0  0
  -11.2795   -0.9160   -4.0410 C   0  0  0  0  0  0  0  0  0  0  0  0
  -11.6333    0.3356   -3.7318 N   0  0  1  0  0  0  0  0  0  0  0  0
  1  2  1  1  0  0  0
  1  3  1  0  0  0  0
  1  4  2  0  0  0  0
  1  6  1  0  0  0  0
  5  6  1  0  0  0  0
  7  5  1  1  0  0  0
  7  8  1  0  0  0  0
  7  9  1  0  0  0  0
  9 10  1  6  0  0  0
  9 11  1  0  0  0  0
 11 12  1  6  0  0  0
 11 13  1  0  0  0  0
 13  8  1  6  0  0  0
 13 24  1  0  0  0  0
 14 15  1  0  0  0  0
 14 20  1  0  0  0  0
 15 16  1  1  0  0  0
 15 17  1  0  0  0  0
 18 17  1  6  0  0  0
 18 19  1  0  0  0  0
 18 24  1  0  0  0  0
 19 20  1  1  0  0  0
 19 22  1  0  0  0  0
 20 21  2  0  0  0  0
 22 23  1  0  0  0  0
 24 23  1  6  0  0  0
M  CHG  1   3  -1
M  END
>  <CHROM.1>
-65.88664007,72.02111501,81.76764997,-169.61125038,-10.44702722,0.84514857
-4.55514079,0.14306440,-0.83900679,-2.71936217

>  <Name>
ligand

>  <RI>
0

>  <Rbt.Current_Directory>
/home/itssahil/PROJECTS/Mol_Feturizer/New_Systems/rnas/3SLQ

>  <Rbt.Executable>
rbdock ($Id: //depot/dev/client3/rdock/2013.1/src/exe/rbdock.cxx#4 $)

>  <Rbt.Library>
libRbt.so (2013.1, Build901 2013/11/27)

>  <Rbt.Parameter_File>
/export/apps/rDock/src/rDock_2013.1_src/data/scripts/dock_solv.prm

>  <Rbt.Receptor>
prm/blind_docking_40.prm

>  <SCORE>
-24.0631

>  <SCORE.INTER>
-19.0376

>  <SCORE.INTER.CONST>
1

>  <SCORE.INTER.POLAR>
0

>  <SCORE.INTER.ROT>
4

>  <SCORE.INTER.SOLV>
18.0147

>  <SCORE.INTER.VDW>
-24.9633

>  <SCORE.INTER.norm>
-0.793233

>  <SCORE.INTRA>
-5.02549

>  <SCORE.INTRA.DIHEDRAL>
-9.38556

>  <SCORE.INTRA.DIHEDRAL.0>
13.2525

>  <SCORE.INTRA.POLAR>
0

>  <SCORE.INTRA.POLAR.0>
0

>  <SCORE.INTRA.REPUL>
0

>  <SCORE.INTRA.REPUL.0>
0

>  <SCORE.INTRA.SOLV>
0.551088

>  <SCORE.INTRA.SOLV.lig_0>
-70.7221

>  <SCORE.INTRA.VDW>
-0.608259

>  <SCORE.INTRA.VDW.0>
-1.46337

>  <SCORE.INTRA.norm>
-0.209396

>  <SCORE.RESTR>
0

>  <SCORE.RESTR.CAVITY>
0

>  <SCORE.RESTR.norm>
0

>  <SCORE.SYSTEM>
0

>  <SCORE.SYSTEM.CONST>
0

>  <SCORE.SYSTEM.DIHEDRAL>
0

>  <SCORE.SYSTEM.SOLV>
0

>  <SCORE.SYSTEM.norm>
0

>  <SCORE.heavy>
24

>  <SCORE.norm>
-1.00263

>  <RMSD>
18.176

$$$$
ligand
 OpenBabel11021811483D
libRbt.so/2013.1/901 2013/11/27
 24 26  0  0  0  0  0  0  0  0999 V2000
   -7.0817    1.3633   -8.2950 P   0  0  1  0  0  0  0  0  0  0  0  0
   -8.0868    1.2625   -9.4225 O   0  0  0  0  0  0  0  0  0  0  0  0
   -5.6871    0.8656   -8.5938 O   0  5  0  0  0  0  0  0  0  0  0  0
   -7.0861    2.7062   -7.5801 O   0  0  0  0  0  0  0  0  0  0  0  0
   -8.9510    0.0877   -6.8145 C   0  0  0  0  0  0  0  0  0  0  0  0
   -7.5829    0.2460   -7.2284 O   0  0  0  0  0  0  0  0  0  0  0  0
   -9.3673    1.2669   -5.9302 C   0  0  1  0  0  0  0  0  0  0  0  0
  -10.7715    1.2508   -5.6441 O   0  0  0  0  0  0  0  0  0  0  0  0
   -8.6742    1.3273   -4.5797 C   0  0  1  0  0  0  0  0  0  0  0  0
   -7.4854    2.1136   -4.7041 O   0  0  0  0  0  0  0  0  0  0  0  0
   -9.7012    2.0071   -3.6891 C   0  0  1  0  0  0  0  0  0  0  0  0
   -9.6415    3.4315   -3.8496 O   0  0  0  0  0  0  0  0  0  0  0  0
  -11.0324    1.5779   -4.2735 C   0  0  2  0  0  0  0  0  0  0  0  0
  -14.2073   -0.1850   -0.6863 N   0  0  0  0  0  0  0  0  0  0  0  0
  -13.9025    1.0920   -1.0116 C   0  0  1  0  0  0  0  0  0  0  0  0
  -14.4912    2.1037   -0.3347 N   0  0  0  0  0  0  0  0  0  0  0  0
  -13.0202    1.3669   -2.0007 N   0  0  0  0  0  0  0  0  0  0  0  0
  -12.4334    0.3490   -2.6748 C   0  0  1  0  0  0  0  0  0  0  0  0
  -12.7248   -0.9643   -2.3625 C   0  0  2  0  0  0  0  0  0  0  0  0
  -13.6348   -1.2198   -1.3433 C   0  0  0  0  0  0  0  0  0  0  0  0
  -13.9260   -2.3908   -1.0293 O   0  0  0  0  0  0  0  0  0  0  0  0
  -11.9940   -1.7425   -3.1867 N   0  0  0  0  0  0  0  0  0  0  0  0
  -11.2748   -0.9277   -3.9934 C   0  0  0  0  0  0  0  0  0  0  0  0
  -11.5555    0.3385   -3.6692 N   0  0  1  0  0  0  0  0  0  0  0  0
  1  2  1  6  0  0  0
  1  3  1  0  0  0  0
  1  4  2  0  0  0  0
  1  6  1  0  0  0  0
  5  6  1  0  0  0  0
  7  5  1  1  0  0  0
  7  8  1  0  0  0  0
  7  9  1  0  0  0  0
  9 10  1  6  0  0  0
  9 11  1  0  0  0  0
 11 12  1  6  0  0  0
 11 13  1  0  0  0  0
 13  8  1  6  0  0  0
 13 24  1  0  0  0  0
 14 15  1  0  0  0  0
 14 20  1  0  0  0  0
 15 16  1  1  0  0  0
 15 17  1  0  0  0  0
 18 17  1  6  0  0  0
 18 19  1  0  0  0  0
 18 24  1  0  0  0  0
 19 20  1  1  0  0  0
 19 22  1  0  0  0  0
 20 21  2  0  0  0  0
 22 23  1  0  0  0  0
 24 23  1  6  0  0  0
M  CHG  1   3  -1
M  END
>  <CHROM.1>
-46.18917347,171.96770024,-70.80671036,-148.91140620,-10.29530149,0.79386718
-4.60895221,0.12795357,-0.80047992,-2.73153715

>  <Name>
ligand

>  <RI>
0

>  <Rbt.Current_Directory>
/home/itssahil/PROJECTS/Mol_Feturizer/New_Systems/rnas/3SLQ

>  <Rbt.Executable>
rbdock ($Id: //depot/dev/client3/rdock/2013.1/src/exe/rbdock.cxx#4 $)

>  <Rbt.Library>
libRbt.so (2013.1, Build901 2013/11/27)

>  <Rbt.Parameter_File>
/export/apps/rDock/src/rDock_2013.1_src/data/scripts/dock_solv.prm

>  <Rbt.Receptor>
prm/blind_docking_80.prm

>  <SCORE>
-22.541

>  <SCORE.INTER>
-17.5254

>  <SCORE.INTER.CONST>
1

>  <SCORE.INTER.POLAR>
0

>  <SCORE.INTER.ROT>
4

>  <SCORE.INTER.SOLV>
15.8264

>  <SCORE.INTER.VDW>
-23.2258

>  <SCORE.INTER.norm>
-0.730226

>  <SCORE.INTRA>
-5.01562

>  <SCORE.INTRA.DIHEDRAL>
-10.9355

>  <SCORE.INTRA.DIHEDRAL.0>
13.2525

>  <SCORE.INTRA.POLAR>
0

>  <SCORE.INTRA.POLAR.0>
0

>  <SCORE.INTRA.REPUL>
0

>  <SCORE.INTRA.REPUL.0>
0

>  <SCORE.INTRA.SOLV>
2.79658

>  <SCORE.INTRA.SOLV.lig_0>
-70.7221

>  <SCORE.INTRA.VDW>
-0.946162

>  <SCORE.INTRA.VDW.0>
-1.46337

>  <SCORE.INTRA.norm>
-0.208984

>  <SCORE.RESTR>
0

>  <SCORE.RESTR.CAVITY>
0

>  <SCORE.RESTR.norm>
0

>  <SCORE.SYSTEM>
0

>  <SCORE.SYSTEM.CONST>
0

>  <SCORE.SYSTEM.DIHEDRAL>
0

>  <SCORE.SYSTEM.SOLV>
0

>  <SCORE.SYSTEM.norm>
0

>  <SCORE.heavy>
24

>  <SCORE.norm>
-0.93921

>  <RMSD>
18.180

$$$$
ligand
 OpenBabel11021811483D
libRbt.so/2013.1/901 2013/11/27
 24 26  0  0  0  0  0  0  0  0999 V2000
   -7.0647    1.3937   -8.2725 P   0  0  1  0  0  0  0  0  0  0  0  0
   -8.1064    1.3851   -9.3708 O   0  0  0  0  0  0  0  0  0  0  0  0
   -5.7105    0.8269   -8.6286 O   0  5  0  0  0  0  0  0  0  0  0  0
   -6.9706    2.7120   -7.5190 O   0  0  0  0  0  0  0  0  0  0  0  0
   -8.9737    0.1370   -6.8269 C   0  0  0  0  0  0  0  0  0  0  0  0
   -7.5983    0.2743   -7.2240 O   0  0  0  0  0  0  0  0  0  0  0  0
   -9.3729    1.3044   -5.9194 C   0  0  1  0  0  0  0  0  0  0  0  0
  -10.7776    1.3041   -5.6351 O   0  0  0  0  0  0  0  0  0  0  0  0
   -8.6807    1.3270   -4.5674 C   0  0  1  0  0  0  0  0  0  0  0  0
   -7.4798    2.0971   -4.6747 O   0  0  0  0  0  0  0  0  0  0  0  0
   -9.6983    2.0044   -3.6642 C   0  0  1  0  0  0  0  0  0  0  0  0
   -9.6164    3.4307   -3.7960 O   0  0  0  0  0  0  0  0  0  0  0  0
  -11.0351    1.6076   -4.2585 C   0  0  2  0  0  0  0  0  0  0  0  0
  -14.2088   -0.1788   -0.6817 N   0  0  0  0  0  0  0  0  0  0  0  0
  -13.8804    1.0993   -0.9783 C   0  0  1  0  0  0  0  0  0  0  0  0
  -14.4403    2.1057   -0.2696 N   0  0  0  0  0  0  0  0  0  0  0  0
  -13.0030    1.3807   -1.9698 N   0  0  0  0  0  0  0  0  0  0  0  0
  -12.4450    0.3682   -2.6757 C   0  0  1  0  0  0  0  0  0  0  0  0
  -12.7608   -0.9463   -2.3933 C   0  0  2  0  0  0  0  0  0  0  0  0
  -13.6653   -1.2084   -1.3709 C   0  0  0  0  0  0  0  0  0  0  0  0
  -13.9779   -2.3806   -1.0831 O   0  0  0  0  0  0  0  0  0  0  0  0
  -12.0555   -1.7184   -3.2448 N   0  0  0  0  0  0  0  0  0  0  0  0
  -11.3277   -0.8986   -4.0387 C   0  0  0  0  0  0  0  0  0  0  0  0
  -11.5780    0.3645   -3.6797 N   0  0  1  0  0  0  0  0  0  0  0  0
  1  2  1  6  0  0  0
  1  3  1  0  0  0  0
  1  4  2  0  0  0  0
  1  6  1  0  0  0  0
  5  6  1  0  0  0  0
  7  5  1  1  0  0  0
  7  8  1  0  0  0  0
  7  9  1  0  0  0  0
  9 10  1  6  0  0  0
  9 11  1  0  0  0  0
 11 12  1  6  0  0  0
 11 13  1  0  0  0  0
 13  8  1  6  0  0  0
 13 24  1  0  0  0  0
 14 15  1  0  0  0  0
 14 20  1  0  0  0  0
 15 16  1  1  0  0  0
 15 17  1  0  0  0  0
 18 17  1  6  0  0  0
 18 19  1  0  0  0  0
 18 24  1  0  0  0  0
 19 20  1  1  0  0  0
 19 22  1  0  0  0  0
 20 21  2  0  0  0  0
 22 23  1  0  0  0  0
 24 23  1  6  0  0  0
M  CHG  1   3  -1
M  END
>  <CHROM.1>
-42.76128230,172.61958053,-71.53869098,-149.72206742,-10.29818942,0.81394338
-4.60087962,0.15336419,-0.79377775,-2.69252437

>  <Name>
ligand

>  <RI>
0

>  <Rbt.Current_Directory>
/home/itssahil/PROJECTS/Mol_Feturizer/New_Systems/rnas/3SLQ

>  <Rbt.Executable>
rbdock ($Id: //depot/dev/client3/rdock/2013.1/src/exe/rbdock.cxx#4 $)

>  <Rbt.Library>
libRbt.so (2013.1, Build901 2013/11/27)

>  <Rbt.Parameter_File>
/export/apps/rDock/src/rDock_2013.1_src/data/scripts/dock_solv.prm

>  <Rbt.Receptor>
prm/blind_docking_40.prm

>  <SCORE>
-22.5054

>  <SCORE.INTER>
-17.5881

>  <SCORE.INTER.CONST>
1

>  <SCORE.INTER.POLAR>
0

>  <SCORE.INTER.ROT>
4

>  <SCORE.INTER.SOLV>
15.408

>  <SCORE.INTER.VDW>
-23.1281

>  <SCORE.INTER.norm>
-0.732839

>  <SCORE.INTRA>
-4.91724

>  <SCORE.INTRA.DIHEDRAL>
-10.7381

>  <SCORE.INTRA.DIHEDRAL.0>
13.2525

>  <SCORE.INTRA.POLAR>
0

>  <SCORE.INTRA.POLAR.0>
0

>  <SCORE.INTRA.REPUL>
0

>  <SCORE.INTRA.REPUL.0>
0

>  <SCORE.INTRA.SOLV>
2.74213

>  <SCORE.INTRA.SOLV.lig_0>
-70.7221

>  <SCORE.INTRA.VDW>
-0.919239

>  <SCORE.INTRA.VDW.0>
-1.46337

>  <SCORE.INTRA.norm>
-0.204885

>  <SCORE.RESTR>
0

>  <SCORE.RESTR.CAVITY>
0

>  <SCORE.RESTR.norm>
0

>  <SCORE.SYSTEM>
0

>  <SCORE.SYSTEM.CONST>
0

>  <SCORE.SYSTEM.DIHEDRAL>
0

>  <SCORE.SYSTEM.SOLV>
0

>  <SCORE.SYSTEM.norm>
0

>  <SCORE.heavy>
24

>  <SCORE.norm>
-0.937724

>  <RMSD>
18.182

$$$$
ligand
 OpenBabel11021811483D
libRbt.so/2013.1/901 2013/11/27
 24 26  0  0  0  0  0  0  0  0999 V2000
   -6.9609    1.2769   -8.8590 P   0  0  1  0  0  0  0  0  0  0  0  0
   -7.2991    2.7469   -8.7314 O   0  0  0  0  0  0  0  0  0  0  0  0
   -6.8604    0.7316  -10.2641 O   0  5  0  0  0  0  0  0  0  0  0  0
   -5.8110    0.8270   -7.9701 O   0  0  0  0  0  0  0  0  0  0  0  0
   -8.7367    0.5231   -6.9637 C   0  0  0  0  0  0  0  0  0  0  0  0
   -8.3008    0.5244   -8.3342 O   0  0  0  0  0  0  0  0  0  0  0  0
   -8.0686   -0.6279   -6.2058 C   0  0  1  0  0  0  0  0  0  0  0  0
   -8.2351   -0.5020   -4.7879 O   0  0  0  0  0  0  0  0  0  0  0  0
   -8.5887   -2.0109   -6.5587 C   0  0  1  0  0  0  0  0  0  0  0  0
   -7.8037   -2.5412   -7.6308 O   0  0  0  0  0  0  0  0  0  0  0  0
   -8.3847   -2.7998   -5.2756 C   0  0  1  0  0  0  0  0  0  0  0  0
   -7.0317   -3.2676   -5.1829 O   0  0  0  0  0  0  0  0  0  0  0  0
   -8.5426   -1.7632   -4.1809 C   0  0  2  0  0  0  0  0  0  0  0  0
  -12.0068    1.6187   -2.5629 N   0  0  0  0  0  0  0  0  0  0  0  0
  -10.7228    1.8170   -2.9389 C   0  0  1  0  0  0  0  0  0  0  0  0
  -10.2142    3.0697   -2.9146 N   0  0  0  0  0  0  0  0  0  0  0  0
   -9.9459    0.7823   -3.3363 N   0  0  0  0  0  0  0  0  0  0  0  0
  -10.4610   -0.4704   -3.3579 C   0  0  1  0  0  0  0  0  0  0  0  0
  -11.7683   -0.7020   -2.9777 C   0  0  2  0  0  0  0  0  0  0  0  0
  -12.5454    0.3777   -2.5746 C   0  0  0  0  0  0  0  0  0  0  0  0
  -13.7303    0.2128   -2.2233 O   0  0  0  0  0  0  0  0  0  0  0  0
  -11.9901   -2.0270   -3.0965 N   0  0  0  0  0  0  0  0  0  0  0  0
  -10.8484   -2.5976   -3.5468 C   0  0  0  0  0  0  0  0  0  0  0  0
   -9.9314   -1.6372   -3.7011 N   0  0  1  0  0  0  0  0  0  0  0  0
  1  2  1  1  0  0  0
  1  3  1  0  0  0  0
  1  4  2  0  0  0  0
  1  6  1  0  0  0  0
  5  6  1  0  0  0  0
  7  5  1  6  0  0  0
  7  8  1  0  0  0  0
  7  9  1  0  0  0  0
  9 10  1  6  0  0  0
  9 11  1  0  0  0  0
 11 12  1  6  0  0  0
 11 13  1  0  0  0  0
 13  8  1  6  0  0  0
 13 24  1  0  0  0  0
 14 15  1  0  0  0  0
 14 20  1  0  0  0  0
 15 16  1  1  0  0  0
 15 17  1  0  0  0  0
 18 17  1  6  0  0  0
 18 19  1  0  0  0  0
 18 24  1  0  0  0  0
 19 20  1  1  0  0  0
 19 22  1  0  0  0  0
 20 21  2  0  0  0  0
 22 23  1  0  0  0  0
 24 23  1  6  0  0  0
M  CHG  1   3  -1
M  END
>  <CHROM.1>
-69.63913577,167.27444591,-86.94123682,-27.79972442,-9.15325406,-0.17113425
-5.48180034,0.31029639,0.85784015,-0.29132976

>  <Name>
ligand

>  <RI>
0

>  <Rbt.Current_Directory>
/home/itssahil/PROJECTS/Mol_Feturizer/New_Systems/rnas/3SLQ

>  <Rbt.Executable>
rbdock ($Id: //depot/dev/client3/rdock/2013.1/src/exe/rbdock.cxx#4 $)

>  <Rbt.Library>
libRbt.so (2013.1, Build901 2013/11/27)

>  <Rbt.Parameter_File>
/export/apps/rDock/src/rDock_2013.1_src/data/scripts/dock_solv.prm

>  <Rbt.Receptor>
prm/blind_docking_60.prm

>  <SCORE>
-18.3614

>  <SCORE.INTER>
-14.9124

>  <SCORE.INTER.CONST>
1

>  <SCORE.INTER.POLAR>
0

>  <SCORE.INTER.ROT>
4

>  <SCORE.INTER.SOLV>
16.2252

>  <SCORE.INTER.VDW>
-21.6167

>  <SCORE.INTER.norm>
-0.621351

>  <SCORE.INTRA>
-3.44899

>  <SCORE.INTRA.DIHEDRAL>
-8.29115

>  <SCORE.INTRA.DIHEDRAL.0>
13.2525

>  <SCORE.INTRA.POLAR>
0

>  <SCORE.INTRA.POLAR.0>
0

>  <SCORE.INTRA.REPUL>
0

>  <SCORE.INTRA.REPUL.0>
0

>  <SCORE.INTRA.SOLV>
2.04825

>  <SCORE.INTRA.SOLV.lig_0>
-70.7221

>  <SCORE.INTRA.VDW>
-0.327538

>  <SCORE.INTRA.VDW.0>
-1.46337

>  <SCORE.INTRA.norm>
-0.143708

>  <SCORE.RESTR>
0

>  <SCORE.RESTR.CAVITY>
0

>  <SCORE.RESTR.norm>
0

>  <SCORE.SYSTEM>
0

>  <SCORE.SYSTEM.CONST>
0

>  <SCORE.SYSTEM.DIHEDRAL>
0

>  <SCORE.SYSTEM.SOLV>
0

>  <SCORE.SYSTEM.norm>
0

>  <SCORE.heavy>
24

>  <SCORE.norm>
-0.765059

>  <RMSD>
18.182

$$$$
ligand
 OpenBabel11021811483D
libRbt.so/2013.1/901 2013/11/27
 24 26  0  0  0  0  0  0  0  0999 V2000
   -7.4823    1.2920   -8.4736 P   0  0  1  0  0  0  0  0  0  0  0  0
   -8.0327    2.6722   -8.1847 O   0  0  0  0  0  0  0  0  0  0  0  0
   -7.8509    0.6893   -9.8089 O   0  5  0  0  0  0  0  0  0  0  0  0
   -6.0055    1.1332   -8.1445 O   0  0  0  0  0  0  0  0  0  0  0  0
   -8.1967    0.3775   -6.0309 C   0  0  0  0  0  0  0  0  0  0  0  0
   -8.3095    0.3261   -7.4637 O   0  0  0  0  0  0  0  0  0  0  0  0
   -9.0567    1.5197   -5.4815 C   0  0  1  0  0  0  0  0  0  0  0  0
  -10.4568    1.2321   -5.5857 O   0  0  0  0  0  0  0  0  0  0  0  0
   -8.8142    1.8544   -4.0196 C   0  0  1  0  0  0  0  0  0  0  0  0
   -7.8003    2.8602   -3.9369 O   0  0  0  0  0  0  0  0  0  0  0  0
  -10.1614    2.3814   -3.5530 C   0  0  1  0  0  0  0  0  0  0  0  0
  -10.3098    3.7640   -3.9061 O   0  0  0  0  0  0  0  0  0  0  0  0
  -11.1634    1.6250   -4.4025 C   0  0  2  0  0  0  0  0  0  0  0  0
  -14.1640   -0.2645   -0.7306 N   0  0  0  0  0  0  0  0  0  0  0  0
  -13.9267    1.0235   -1.0684 C   0  0  1  0  0  0  0  0  0  0  0  0
  -14.5447    2.0104   -0.3810 N   0  0  0  0  0  0  0  0  0  0  0  0
  -13.0828    1.3339   -2.0801 N   0  0  0  0  0  0  0  0  0  0  0  0
  -12.4662    0.3408   -2.7646 C   0  0  1  0  0  0  0  0  0  0  0  0
  -12.6887   -0.9830   -2.4400 C   0  0  2  0  0  0  0  0  0  0  0  0
  -13.5605   -1.2751   -1.3976 C   0  0  0  0  0  0  0  0  0  0  0  0
  -13.7894   -2.4567   -1.0718 O   0  0  0  0  0  0  0  0  0  0  0  0
  -11.9432   -1.7307   -3.2791 N   0  0  0  0  0  0  0  0  0  0  0  0
  -11.2826   -0.8876   -4.1066 C   0  0  0  0  0  0  0  0  0  0  0  0
  -11.6135    0.3658   -3.7804 N   0  0  1  0  0  0  0  0  0  0  0  0
  1  2  1  1  0  0  0
  1  3  1  0  0  0  0
  1  4  2  0  0  0  0
  1  6  1  0  0  0  0
  5  6  1  0  0  0  0
  7  5  1  1  0  0  0
  7  8  1  0  0  0  0
  7  9  1  0  0  0  0
  9 10  1  6  0  0  0
  9 11  1  0  0  0  0
 11 12  1  6  0  0  0
 11 13  1  0  0  0  0
 13  8  1  6  0  0  0
 13 24  1  0  0  0  0
 14 15  1  0  0  0  0
 14 20  1  0  0  0  0
 15 16  1  1  0  0  0
 15 17  1  0  0  0  0
 18 17  1  6  0  0  0
 18 19  1  0  0  0  0
 18 24  1  0  0  0  0
 19 20  1  1  0  0  0
 19 22  1  0  0  0  0
 20 21  2  0  0  0  0
 22 23  1  0  0  0  0
 24 23  1  6  0  0  0
M  CHG  1   3  -1
M  END
>  <CHROM.1>
-66.02443043,71.07542819,80.83111175,-170.08774435,-10.42054019,0.86593326
-4.58658635,0.16813662,-0.82855276,-2.68518906

>  <Name>
ligand

>  <RI>
0

>  <Rbt.Current_Directory>
/home/itssahil/PROJECTS/Mol_Feturizer/New_Systems/rnas/3SLQ

>  <Rbt.Executable>
rbdock ($Id: //depot/dev/client3/rdock/2013.1/src/exe/rbdock.cxx#4 $)

>  <Rbt.Library>
libRbt.so (2013.1, Build901 2013/11/27)

>  <Rbt.Parameter_File>
/export/apps/rDock/src/rDock_2013.1_src/data/scripts/dock_solv.prm

>  <Rbt.Receptor>
prm/blind_docking_40.prm

>  <SCORE>
-24.0387

>  <SCORE.INTER>
-18.9157

>  <SCORE.INTER.CONST>
1

>  <SCORE.INTER.POLAR>
0

>  <SCORE.INTER.ROT>
4

>  <SCORE.INTER.SOLV>
18.0886

>  <SCORE.INTER.VDW>
-24.9066

>  <SCORE.INTER.norm>
-0.788152

>  <SCORE.INTRA>
-5.12302

>  <SCORE.INTRA.DIHEDRAL>
-9.61607

>  <SCORE.INTRA.DIHEDRAL.0>
13.2525

>  <SCORE.INTRA.POLAR>
0

>  <SCORE.INTRA.POLAR.0>
0

>  <SCORE.INTRA.REPUL>
0

>  <SCORE.INTRA.REPUL.0>
0

>  <SCORE.INTRA.SOLV>
0.575494

>  <SCORE.INTRA.SOLV.lig_0>
-70.7221

>  <SCORE.INTRA.VDW>
-0.602731

>  <SCORE.INTRA.VDW.0>
-1.46337

>  <SCORE.INTRA.norm>
-0.213459

>  <SCORE.RESTR>
0

>  <SCORE.RESTR.CAVITY>
0

>  <SCORE.RESTR.norm>
0

>  <SCORE.SYSTEM>
0

>  <SCORE.SYSTEM.CONST>
0

>  <SCORE.SYSTEM.DIHEDRAL>
0

>  <SCORE.SYSTEM.SOLV>
0

>  <SCORE.SYSTEM.norm>
0

>  <SCORE.heavy>
24

>  <SCORE.norm>
-1.00161

>  <RMSD>
18.201

$$$$
ligand
 OpenBabel11021811483D
libRbt.so/2013.1/901 2013/11/27
 24 26  0  0  0  0  0  0  0  0999 V2000
   -7.5137    1.2709   -8.4867 P   0  0  1  0  0  0  0  0  0  0  0  0
   -8.0350    0.8011   -9.8280 O   0  0  0  0  0  0  0  0  0  0  0  0
   -6.0639    0.9699   -8.1881 O   0  5  0  0  0  0  0  0  0  0  0  0
   -7.9013    2.7002   -8.1382 O   0  0  0  0  0  0  0  0  0  0  0  0
   -8.1107    0.4089   -5.9938 C   0  0  0  0  0  0  0  0  0  0  0  0
   -8.2543    0.2954   -7.4203 O   0  0  0  0  0  0  0  0  0  0  0  0
   -9.0014    1.5390   -5.4691 C   0  0  1  0  0  0  0  0  0  0  0  0
  -10.3940    1.2287   -5.6050 O   0  0  0  0  0  0  0  0  0  0  0  0
   -8.7988    1.8826   -4.0033 C   0  0  1  0  0  0  0  0  0  0  0  0
   -7.8032    2.9049   -3.9006 O   0  0  0  0  0  0  0  0  0  0  0  0
  -10.1647    2.3895   -3.5703 C   0  0  1  0  0  0  0  0  0  0  0  0
  -10.3269    3.7683   -3.9321 O   0  0  0  0  0  0  0  0  0  0  0  0
  -11.1343    1.6142   -4.4402 C   0  0  2  0  0  0  0  0  0  0  0  0
  -14.1405   -0.3069   -0.7893 N   0  0  0  0  0  0  0  0  0  0  0  0
  -13.9106    0.9838   -1.1223 C   0  0  1  0  0  0  0  0  0  0  0  0
  -14.5391    1.9643   -0.4353 N   0  0  0  0  0  0  0  0  0  0  0  0
  -13.0636    1.3030   -2.1287 N   0  0  0  0  0  0  0  0  0  0  0  0
  -12.4366    0.3162   -2.8127 C   0  0  1  0  0  0  0  0  0  0  0  0
  -12.6513   -1.0100   -2.4931 C   0  0  2  0  0  0  0  0  0  0  0  0
  -13.5265   -1.3113   -1.4560 C   0  0  0  0  0  0  0  0  0  0  0  0
  -13.7487   -2.4954   -1.1348 O   0  0  0  0  0  0  0  0  0  0  0  0
  -11.8963   -1.7501   -3.3304 N   0  0  0  0  0  0  0  0  0  0  0  0
  -11.2373   -0.9000   -4.1520 C   0  0  0  0  0  0  0  0  0  0  0  0
  -11.5788    0.3501   -3.8240 N   0  0  1  0  0  0  0  0  0  0  0  0
  1  2  1  6  0  0  0
  1  3  1  0  0  0  0
  1  4  2  0  0  0  0
  1  6  1  0  0  0  0
  5  6  1  0  0  0  0
  7  5  1  1  0  0  0
  7  8  1  0  0  0  0
  7  9  1  0  0  0  0
  9 10  1  6  0  0  0
  9 11  1  0  0  0  0
 11 12  1  6  0  0  0
 11 13  1  0  0  0  0
 13  8  1  6  0  0  0
 13 24  1  0  0  0  0
 14 15  1  0  0  0  0
 14 20  1  0  0  0  0
 15 16  1  1  0  0  0
 15 17  1  0  0  0  0
 18 17  1  6  0  0  0
 18 19  1  0  0  0  0
 18 24  1  0  0  0  0
 19 20  1  1  0  0  0
 19 22  1  0  0  0  0
 20 21  2  0  0  0  0
 22 23  1  0  0  0  0
 24 23  1  6  0  0  0
M  CHG  1   3  -1
M  END
>  <CHROM.1>
-177.07912209,67.43052711,79.44617572,-171.31151990,-10.40448865,0.85402242
-4.60811889,0.16548332,-0.82892585,-2.68254442

>  <Name>
ligand

>  <RI>
0

>  <Rbt.Current_Directory>
/home/itssahil/PROJECTS/Mol_Feturizer/New_Systems/rnas/3SLQ

>  <Rbt.Executable>
rbdock ($Id: //depot/dev/client3/rdock/2013.1/src/exe/rbdock.cxx#4 $)

>  <Rbt.Library>
libRbt.so (2013.1, Build901 2013/11/27)

>  <Rbt.Parameter_File>
/export/apps/rDock/src/rDock_2013.1_src/data/scripts/dock_solv.prm

>  <Rbt.Receptor>
prm/blind_docking_20.prm

>  <SCORE>
-23.2177

>  <SCORE.INTER>
-18.7814

>  <SCORE.INTER.CONST>
1

>  <SCORE.INTER.POLAR>
0

>  <SCORE.INTER.ROT>
4

>  <SCORE.INTER.SOLV>
18.8685

>  <SCORE.INTER.VDW>
-25.0771

>  <SCORE.INTER.norm>
-0.78256

>  <SCORE.INTRA>
-4.43629

>  <SCORE.INTRA.DIHEDRAL>
-10.1212

>  <SCORE.INTRA.DIHEDRAL.0>
13.2525

>  <SCORE.INTRA.POLAR>
0

>  <SCORE.INTRA.POLAR.0>
0

>  <SCORE.INTRA.REPUL>
0

>  <SCORE.INTRA.REPUL.0>
0

>  <SCORE.INTRA.SOLV>
2.31584

>  <SCORE.INTRA.SOLV.lig_0>
-70.7221

>  <SCORE.INTRA.VDW>
-0.533622

>  <SCORE.INTRA.VDW.0>
-1.46337

>  <SCORE.INTRA.norm>
-0.184846

>  <SCORE.RESTR>
0

>  <SCORE.RESTR.CAVITY>
0

>  <SCORE.RESTR.norm>
0

>  <SCORE.SYSTEM>
0

>  <SCORE.SYSTEM.CONST>
0

>  <SCORE.SYSTEM.DIHEDRAL>
0

>  <SCORE.SYSTEM.SOLV>
0

>  <SCORE.SYSTEM.norm>
0

>  <SCORE.heavy>
24

>  <SCORE.norm>
-0.967406

>  <RMSD>
18.206

$$$$
ligand
 OpenBabel11021811483D
libRbt.so/2013.1/901 2013/11/27
 24 26  0  0  0  0  0  0  0  0999 V2000
   -7.1122    0.9807   -9.3181 P   0  0  1  0  0  0  0  0  0  0  0  0
   -8.2257    0.5025  -10.2252 O   0  0  0  0  0  0  0  0  0  0  0  0
   -5.7105    0.8937   -9.8744 O   0  5  0  0  0  0  0  0  0  0  0  0
   -7.3945    2.3138   -8.6415 O   0  0  0  0  0  0  0  0  0  0  0  0
   -8.1404   -0.4487   -7.2656 C   0  0  0  0  0  0  0  0  0  0  0  0
   -7.0494   -0.1492   -8.1534 O   0  0  0  0  0  0  0  0  0  0  0  0
   -7.7122   -1.5186   -6.2568 C   0  0  1  0  0  0  0  0  0  0  0  0
   -7.9271   -1.0947   -4.9047 O   0  0  0  0  0  0  0  0  0  0  0  0
   -8.4364   -2.8474   -6.3901 C   0  0  1  0  0  0  0  0  0  0  0  0
   -7.6973   -3.6905   -7.2786 O   0  0  0  0  0  0  0  0  0  0  0  0
   -8.4317   -3.3927   -4.9714 C   0  0  1  0  0  0  0  0  0  0  0  0
   -7.1817   -4.0356   -4.6843 O   0  0  0  0  0  0  0  0  0  0  0  0
   -8.4702   -2.1510   -4.1029 C   0  0  2  0  0  0  0  0  0  0  0  0
  -11.3136    1.9517   -3.0352 N   0  0  0  0  0  0  0  0  0  0  0  0
   -9.9888    1.8684   -3.2952 C   0  0  1  0  0  0  0  0  0  0  0  0
   -9.2444    2.9973   -3.2962 N   0  0  0  0  0  0  0  0  0  0  0  0
   -9.4035    0.6754   -3.5525 N   0  0  0  0  0  0  0  0  0  0  0  0
  -10.1544   -0.4520   -3.5495 C   0  0  1  0  0  0  0  0  0  0  0  0
  -11.5088   -0.3965   -3.2855 C   0  0  2  0  0  0  0  0  0  0  0  0
  -12.0859    0.8410   -3.0253 C   0  0  0  0  0  0  0  0  0  0  0  0
  -13.3051    0.9358   -2.7820 O   0  0  0  0  0  0  0  0  0  0  0  0
  -11.9797   -1.6589   -3.3462 N   0  0  0  0  0  0  0  0  0  0  0  0
  -10.9410   -2.4725   -3.6481 C   0  0  0  0  0  0  0  0  0  0  0  0
   -9.8413   -1.7222   -3.7692 N   0  0  1  0  0  0  0  0  0  0  0  0
  1  2  1  6  0  0  0
  1  3  1  0  0  0  0
  1  4  2  0  0  0  0
  1  6  1  0  0  0  0
  5  6  1  0  0  0  0
  7  5  1  6  0  0  0
  7  8  1  0  0  0  0
  7  9  1  0  0  0  0
  9 10  1  6  0  0  0
  9 11  1  0  0  0  0
 11 12  1  1  0  0  0
 11 13  1  0  0  0  0
 13  8  1  6  0  0  0
 13 24  1  0  0  0  0
 14 15  1  0  0  0  0
 14 20  1  0  0  0  0
 15 16  1  1  0  0  0
 15 17  1  0  0  0  0
 18 17  1  6  0  0  0
 18 19  1  0  0  0  0
 18 24  1  0  0  0  0
 19 20  1  1  0  0  0
 19 22  1  0  0  0  0
 20 21  2  0  0  0  0
 22 23  1  0  0  0  0
 24 23  1  6  0  0  0
M  CHG  1   3  -1
M  END
>  <CHROM.1>
-61.28793243,125.58350084,-177.46464194,-35.23593071,-8.94984836,-0.42245874
-5.68172504,0.33902677,0.91083881,-0.38005204

>  <Name>
ligand

>  <RI>
0

>  <Rbt.Current_Directory>
/home/itssahil/PROJECTS/Mol_Feturizer/New_Systems/rnas/3SLQ

>  <Rbt.Executable>
rbdock ($Id: //depot/dev/client3/rdock/2013.1/src/exe/rbdock.cxx#4 $)

>  <Rbt.Library>
libRbt.so (2013.1, Build901 2013/11/27)

>  <Rbt.Parameter_File>
/export/apps/rDock/src/rDock_2013.1_src/data/scripts/dock_solv.prm

>  <Rbt.Receptor>
prm/blind_docking_60.prm

>  <SCORE>
-16.2132

>  <SCORE.INTER>
-12.7612

>  <SCORE.INTER.CONST>
1

>  <SCORE.INTER.POLAR>
0

>  <SCORE.INTER.ROT>
4

>  <SCORE.INTER.SOLV>
21.7789

>  <SCORE.INTER.VDW>
-22.0337

>  <SCORE.INTER.norm>
-0.531715

>  <SCORE.INTRA>
-3.452

>  <SCORE.INTRA.DIHEDRAL>
-6.82954

>  <SCORE.INTRA.DIHEDRAL.0>
13.2525

>  <SCORE.INTRA.POLAR>
0

>  <SCORE.INTRA.POLAR.0>
0

>  <SCORE.INTRA.REPUL>
0

>  <SCORE.INTRA.REPUL.0>
0

>  <SCORE.INTRA.SOLV>
-0.0808158

>  <SCORE.INTRA.SOLV.lig_0>
-70.7221

>  <SCORE.INTRA.VDW>
0.00317776

>  <SCORE.INTRA.VDW.0>
-1.46337

>  <SCORE.INTRA.norm>
-0.143833

>  <SCORE.RESTR>
0

>  <SCORE.RESTR.CAVITY>
0

>  <SCORE.RESTR.norm>
0

>  <SCORE.SYSTEM>
0

>  <SCORE.SYSTEM.CONST>
0

>  <SCORE.SYSTEM.DIHEDRAL>
0

>  <SCORE.SYSTEM.SOLV>
0

>  <SCORE.SYSTEM.norm>
0

>  <SCORE.heavy>
24

>  <SCORE.norm>
-0.675548

>  <RMSD>
18.218

$$$$
ligand
 OpenBabel11021811483D
libRbt.so/2013.1/901 2013/11/27
 24 26  0  0  0  0  0  0  0  0999 V2000
   -7.2791    1.3597   -8.4522 P   0  0  1  0  0  0  0  0  0  0  0  0
   -7.5860    2.7522   -7.9442 O   0  0  0  0  0  0  0  0  0  0  0  0
   -8.1201    0.8666   -9.6061 O   0  5  0  0  0  0  0  0  0  0  0  0
   -5.7954    1.0847   -8.6464 O   0  0  0  0  0  0  0  0  0  0  0  0
   -9.1750    0.2757   -6.8573 C   0  0  0  0  0  0  0  0  0  0  0  0
   -7.7987    0.3889   -7.2586 O   0  0  0  0  0  0  0  0  0  0  0  0
   -9.5442    1.4370   -5.9294 C   0  0  1  0  0  0  0  0  0  0  0  0
  -10.9321    1.4157   -5.5728 O   0  0  0  0  0  0  0  0  0  0  0  0
   -8.7834    1.4698   -4.6149 C   0  0  1  0  0  0  0  0  0  0  0  0
   -7.6013    2.2579   -4.7836 O   0  0  0  0  0  0  0  0  0  0  0  0
   -9.7629    2.1319   -3.6598 C   0  0  1  0  0  0  0  0  0  0  0  0
   -9.7093    3.5593   -3.7945 O   0  0  0  0  0  0  0  0  0  0  0  0
  -11.1226    1.7152   -4.1845 C   0  0  2  0  0  0  0  0  0  0  0  0
  -14.2053   -0.1190   -0.5528 N   0  0  0  0  0  0  0  0  0  0  0  0
  -13.9255    1.1645   -0.8747 C   0  0  1  0  0  0  0  0  0  0  0  0
  -14.5167    2.1628   -0.1802 N   0  0  0  0  0  0  0  0  0  0  0  0
  -13.0655    1.4592   -1.8776 N   0  0  0  0  0  0  0  0  0  0  0  0
  -12.4760    0.4548   -2.5693 C   0  0  1  0  0  0  0  0  0  0  0  0
  -12.7421   -0.8648   -2.2609 C   0  0  2  0  0  0  0  0  0  0  0  0
  -13.6295   -1.1407   -1.2273 C   0  0  0  0  0  0  0  0  0  0  0  0
  -13.8976   -2.3180   -0.9162 O   0  0  0  0  0  0  0  0  0  0  0  0
  -12.0150   -1.6264   -3.1036 N   0  0  0  0  0  0  0  0  0  0  0  0
  -11.3227   -0.7955   -3.9175 C   0  0  0  0  0  0  0  0  0  0  0  0
  -11.6162    0.4641   -3.5794 N   0  0  1  0  0  0  0  0  0  0  0  0
  1  2  1  1  0  0  0
  1  3  1  0  0  0  0
  1  4  2  0  0  0  0
  1  6  1  0  0  0  0
  5  6  1  0  0  0  0
  7  5  1  1  0  0  0
  7  8  1  0  0  0  0
  7  9  1  0  0  0  0
  9 10  1  6  0  0  0
  9 11  1  0  0  0  0
 11 12  1  6  0  0  0
 11 13  1  0  0  0  0
 13  8  1  6  0  0  0
 13 24  1  0  0  0  0
 14 15  1  0  0  0  0
 14 20  1  0  0  0  0
 15 16  1  1  0  0  0
 15 17  1  0  0  0  0
 18 17  1  6  0  0  0
 18 19  1  0  0  0  0
 18 24  1  0  0  0  0
 19 20  1  1  0  0  0
 19 22  1  0  0  0  0
 20 21  2  0  0  0  0
 22 23  1  0  0  0  0
 24 23  1  6  0  0  0
M  CHG  1   3  -1
M  END
>  <CHROM.1>
64.37919849,176.17405945,-81.09578565,-146.69618027,-10.40046133,0.88020345
-4.60132203,0.16605209,-0.82951622,-2.70569093

>  <Name>
ligand

>  <RI>
0

>  <Rbt.Current_Directory>
/home/itssahil/PROJECTS/Mol_Feturizer/New_Systems/rnas/3SLQ

>  <Rbt.Executable>
rbdock ($Id: //depot/dev/client3/rdock/2013.1/src/exe/rbdock.cxx#4 $)

>  <Rbt.Library>
libRbt.so (2013.1, Build901 2013/11/27)

>  <Rbt.Parameter_File>
/export/apps/rDock/src/rDock_2013.1_src/data/scripts/dock_solv.prm

>  <Rbt.Receptor>
prm/blind_docking_100.prm

>  <SCORE>
-22.0615

>  <SCORE.INTER>
-16.8294

>  <SCORE.INTER.CONST>
1

>  <SCORE.INTER.POLAR>
0

>  <SCORE.INTER.ROT>
4

>  <SCORE.INTER.SOLV>
17.6825

>  <SCORE.INTER.VDW>
-23.3804

>  <SCORE.INTER.norm>
-0.701226

>  <SCORE.INTRA>
-5.23203

>  <SCORE.INTRA.DIHEDRAL>
-9.96345

>  <SCORE.INTRA.DIHEDRAL.0>
13.2525

>  <SCORE.INTRA.POLAR>
0

>  <SCORE.INTRA.POLAR.0>
0

>  <SCORE.INTRA.REPUL>
0

>  <SCORE.INTRA.REPUL.0>
0

>  <SCORE.INTRA.SOLV>
1.14653

>  <SCORE.INTRA.SOLV.lig_0>
-70.7221

>  <SCORE.INTRA.VDW>
-0.823568

>  <SCORE.INTRA.VDW.0>
-1.46337

>  <SCORE.INTRA.norm>
-0.218001

>  <SCORE.RESTR>
0

>  <SCORE.RESTR.CAVITY>
0

>  <SCORE.RESTR.norm>
0

>  <SCORE.SYSTEM>
0

>  <SCORE.SYSTEM.CONST>
0

>  <SCORE.SYSTEM.DIHEDRAL>
0

>  <SCORE.SYSTEM.SOLV>
0

>  <SCORE.SYSTEM.norm>
0

>  <SCORE.heavy>
24

>  <SCORE.norm>
-0.919227

>  <RMSD>
18.227

$$$$
ligand
 OpenBabel11021811483D
libRbt.so/2013.1/901 2013/11/27
 24 26  0  0  0  0  0  0  0  0999 V2000
   -7.4621    1.3098   -8.5028 P   0  0  1  0  0  0  0  0  0  0  0  0
   -7.9849    2.7042   -8.2308 O   0  0  0  0  0  0  0  0  0  0  0  0
   -7.8540    0.6931   -9.8249 O   0  5  0  0  0  0  0  0  0  0  0  0
   -5.9854    1.1295   -8.1847 O   0  0  0  0  0  0  0  0  0  0  0  0
   -8.1702    0.4473   -6.0395 C   0  0  0  0  0  0  0  0  0  0  0  0
   -8.2970    0.3750   -7.4702 O   0  0  0  0  0  0  0  0  0  0  0  0
   -9.0450    1.5808   -5.4957 C   0  0  1  0  0  0  0  0  0  0  0  0
  -10.4415    1.2788   -5.6076 O   0  0  0  0  0  0  0  0  0  0  0  0
   -8.8143    1.9189   -4.0328 C   0  0  1  0  0  0  0  0  0  0  0  0
   -7.8112    2.9353   -3.9449 O   0  0  0  0  0  0  0  0  0  0  0  0
  -10.1694    2.4323   -3.5741 C   0  0  1  0  0  0  0  0  0  0  0  0
  -10.3301    3.8131   -3.9290 O   0  0  0  0  0  0  0  0  0  0  0  0
  -11.1587    1.6651   -4.4287 C   0  0  2  0  0  0  0  0  0  0  0  0
  -14.1399   -0.2515   -0.7550 N   0  0  0  0  0  0  0  0  0  0  0  0
  -13.9118    1.0388   -1.0907 C   0  0  1  0  0  0  0  0  0  0  0  0
  -14.5350    2.0202   -0.4002 N   0  0  0  0  0  0  0  0  0  0  0  0
  -13.0718    1.3567   -2.1034 N   0  0  0  0  0  0  0  0  0  0  0  0
  -12.4500    0.3691   -2.7910 C   0  0  1  0  0  0  0  0  0  0  0  0
  -12.6631   -0.9568   -2.4687 C   0  0  2  0  0  0  0  0  0  0  0  0
  -13.5310   -1.2567   -1.4252 C   0  0  0  0  0  0  0  0  0  0  0  0
  -13.7515   -2.4405   -1.1014 O   0  0  0  0  0  0  0  0  0  0  0  0
  -11.9143   -1.6979   -3.3107 N   0  0  0  0  0  0  0  0  0  0  0  0
  -11.2608   -0.8488   -4.1377 C   0  0  0  0  0  0  0  0  0  0  0  0
  -11.5994    0.4018   -3.8084 N   0  0  1  0  0  0  0  0  0  0  0  0
  1  2  1  1  0  0  0
  1  3  1  0  0  0  0
  1  4  2  0  0  0  0
  1  6  1  0  0  0  0
  5  6  1  0  0  0  0
  7  5  1  1  0  0  0
  7  8  1  0  0  0  0
  7  9  1  0  0  0  0
  9 10  1  6  0  0  0
  9 11  1  0  0  0  0
 11 12  1  6  0  0  0
 11 13  1  0  0  0  0
 13  8  1  6  0  0  0
 13 24  1  0  0  0  0
 14 15  1  0  0  0  0
 14 20  1  0  0  0  0
 15 16  1  1  0  0  0
 15 17  1  0  0  0  0
 18 17  1  6  0  0  0
 18 19  1  0  0  0  0
 18 24  1  0  0  0  0
 19 20  1  1  0  0  0
 19 22  1  0  0  0  0
 20 21  2  0  0  0  0
 22 23  1  0  0  0  0
 24 23  1  6  0  0  0
M  CHG  1   3  -1
M  END
>  <CHROM.1>
-65.99594328,69.82517869,82.89210430,-170.59253971,-10.40583775,0.89905907
-4.61042350,0.16461673,-0.82975765,-2.69007173

>  <Name>
ligand

>  <RI>
0

>  <Rbt.Current_Directory>
/home/itssahil/PROJECTS/Mol_Feturizer/New_Systems/rnas/3SLQ

>  <Rbt.Executable>
rbdock ($Id: //depot/dev/client3/rdock/2013.1/src/exe/rbdock.cxx#4 $)

>  <Rbt.Library>
libRbt.so (2013.1, Build901 2013/11/27)

>  <Rbt.Parameter_File>
/export/apps/rDock/src/rDock_2013.1_src/data/scripts/dock_solv.prm

>  <Rbt.Receptor>
prm/blind_docking_40.prm

>  <SCORE>
-24.0274

>  <SCORE.INTER>
-19.0157

>  <SCORE.INTER.CONST>
1

>  <SCORE.INTER.POLAR>
0

>  <SCORE.INTER.ROT>
4

>  <SCORE.INTER.SOLV>
18.4202

>  <SCORE.INTER.VDW>
-25.0838

>  <SCORE.INTER.norm>
-0.792319

>  <SCORE.INTRA>
-5.01174

>  <SCORE.INTRA.DIHEDRAL>
-9.35325

>  <SCORE.INTRA.DIHEDRAL.0>
13.2525

>  <SCORE.INTRA.POLAR>
0

>  <SCORE.INTRA.POLAR.0>
0

>  <SCORE.INTRA.REPUL>
0

>  <SCORE.INTRA.REPUL.0>
0

>  <SCORE.INTRA.SOLV>
0.535101

>  <SCORE.INTRA.SOLV.lig_0>
-70.7221

>  <SCORE.INTRA.VDW>
-0.602664

>  <SCORE.INTRA.VDW.0>
-1.46337

>  <SCORE.INTRA.norm>
-0.208822

>  <SCORE.RESTR>
0

>  <SCORE.RESTR.CAVITY>
0

>  <SCORE.RESTR.norm>
0

>  <SCORE.SYSTEM>
0

>  <SCORE.SYSTEM.CONST>
0

>  <SCORE.SYSTEM.DIHEDRAL>
0

>  <SCORE.SYSTEM.SOLV>
0

>  <SCORE.SYSTEM.norm>
0

>  <SCORE.heavy>
24

>  <SCORE.norm>
-1.00114

>  <RMSD>
18.229

$$$$
ligand
 OpenBabel11021811483D
libRbt.so/2013.1/901 2013/11/27
 24 26  0  0  0  0  0  0  0  0999 V2000
   -7.0164    0.8593   -9.2456 P   0  0  1  0  0  0  0  0  0  0  0  0
   -7.7739    0.3534  -10.4547 O   0  0  0  0  0  0  0  0  0  0  0  0
   -5.5425    0.5326   -9.1931 O   0  5  0  0  0  0  0  0  0  0  0  0
   -7.3099    2.3100   -8.8938 O   0  0  0  0  0  0  0  0  0  0  0  0
   -7.4261    0.2781   -6.6364 C   0  0  0  0  0  0  0  0  0  0  0  0
   -7.5760   -0.0566   -8.0270 O   0  0  0  0  0  0  0  0  0  0  0  0
   -8.0376   -0.8242   -5.7665 C   0  0  1  0  0  0  0  0  0  0  0  0
   -8.0465   -0.4666   -4.3787 O   0  0  0  0  0  0  0  0  0  0  0  0
   -9.4742   -1.1823   -6.1071 C   0  0  1  0  0  0  0  0  0  0  0  0
   -9.4718   -2.2379   -7.0726 O   0  0  0  0  0  0  0  0  0  0  0  0
  -10.0445   -1.6453   -4.7765 C   0  0  1  0  0  0  0  0  0  0  0  0
   -9.6988   -3.0160   -4.5312 O   0  0  0  0  0  0  0  0  0  0  0  0
   -9.2806   -0.8333   -3.7495 C   0  0  2  0  0  0  0  0  0  0  0  0
   -8.5004    4.2002   -3.4156 N   0  0  0  0  0  0  0  0  0  0  0  0
   -7.6352    3.2172   -3.7542 C   0  0  1  0  0  0  0  0  0  0  0  0
   -6.3605    3.5399   -4.0694 N   0  0  0  0  0  0  0  0  0  0  0  0
   -8.0283    1.9223   -3.7805 N   0  0  0  0  0  0  0  0  0  0  0  0
   -9.3065    1.6053   -3.4631 C   0  0  1  0  0  0  0  0  0  0  0  0
  -10.2106    2.5885   -3.1121 C   0  0  2  0  0  0  0  0  0  0  0  0
   -9.7821    3.9106   -3.0936 C   0  0  0  0  0  0  0  0  0  0  0  0
  -10.5658    4.8291   -2.7823 O   0  0  0  0  0  0  0  0  0  0  0  0
  -11.3833    1.9770   -2.8482 N   0  0  0  0  0  0  0  0  0  0  0  0
  -11.2081    0.6486   -3.0395 C   0  0  0  0  0  0  0  0  0  0  0  0
   -9.9416    0.4417   -3.4139 N   0  0  1  0  0  0  0  0  0  0  0  0
  1  2  1  6  0  0  0
  1  3  1  0  0  0  0
  1  4  2  0  0  0  0
  1  6  1  0  0  0  0
  5  6  1  0  0  0  0
  7  5  1  6  0  0  0
  7  8  1  0  0  0  0
  7  9  1  0  0  0  0
  9 10  1  6  0  0  0
  9 11  1  0  0  0  0
 11 12  1  1  0  0  0
 11 13  1  0  0  0  0
 13  8  1  6  0  0  0
 13 24  1  0  0  0  0
 14 15  1  0  0  0  0
 14 20  1  0  0  0  0
 15 16  1  1  0  0  0
 15 17  1  0  0  0  0
 18 17  1  6  0  0  0
 18 19  1  0  0  0  0
 18 24  1  0  0  0  0
 19 20  1  1  0  0  0
 19 22  1  0  0  0  0
 20 21  2  0  0  0  0
 22 23  1  0  0  0  0
 24 23  1  6  0  0  0
M  CHG  1   3  -1
M  END
>  <CHROM.1>
-162.67509047,-173.49294382,-178.47199563,-12.66015228,-8.59983823,0.90404184
-5.55686895,-0.79764800,1.00222069,0.49929514

>  <Name>
ligand

>  <RI>
0

>  <Rbt.Current_Directory>
/home/itssahil/PROJECTS/Mol_Feturizer/New_Systems/rnas/3SLQ

>  <Rbt.Executable>
rbdock ($Id: //depot/dev/client3/rdock/2013.1/src/exe/rbdock.cxx#4 $)

>  <Rbt.Library>
libRbt.so (2013.1, Build901 2013/11/27)

>  <Rbt.Parameter_File>
/export/apps/rDock/src/rDock_2013.1_src/data/scripts/dock_solv.prm

>  <Rbt.Receptor>
prm/blind_docking_60.prm

>  <SCORE>
-19.9929

>  <SCORE.INTER>
-15.4645

>  <SCORE.INTER.CONST>
1

>  <SCORE.INTER.POLAR>
0

>  <SCORE.INTER.ROT>
4

>  <SCORE.INTER.SOLV>
18.4081

>  <SCORE.INTER.VDW>
-22.7124

>  <SCORE.INTER.norm>
-0.644355

>  <SCORE.INTRA>
-4.53104

>  <SCORE.INTRA.DIHEDRAL>
-11.4121

>  <SCORE.INTRA.DIHEDRAL.0>
13.2525

>  <SCORE.INTRA.POLAR>
0

>  <SCORE.INTRA.POLAR.0>
0

>  <SCORE.INTRA.REPUL>
0

>  <SCORE.INTRA.REPUL.0>
0

>  <SCORE.INTRA.SOLV>
1.20074

>  <SCORE.INTRA.SOLV.lig_0>
-70.7221

>  <SCORE.INTRA.VDW>
0.574631

>  <SCORE.INTRA.VDW.0>
-1.46337

>  <SCORE.INTRA.norm>
-0.188793

>  <SCORE.RESTR>
0.00266932

>  <SCORE.RESTR.CAVITY>
0.00266932

>  <SCORE.RESTR.norm>
0.000111222

>  <SCORE.SYSTEM>
0

>  <SCORE.SYSTEM.CONST>
0

>  <SCORE.SYSTEM.DIHEDRAL>
0

>  <SCORE.SYSTEM.SOLV>
0

>  <SCORE.SYSTEM.norm>
0

>  <SCORE.heavy>
24

>  <SCORE.norm>
-0.833037

>  <RMSD>
18.230

$$$$
ligand
 OpenBabel11021811483D
libRbt.so/2013.1/901 2013/11/27
 24 26  0  0  0  0  0  0  0  0999 V2000
   -7.4845    1.4030   -8.5012 P   0  0  1  0  0  0  0  0  0  0  0  0
   -8.0339    2.7948   -8.2720 O   0  0  0  0  0  0  0  0  0  0  0  0
   -7.7823    0.7773   -9.8435 O   0  5  0  0  0  0  0  0  0  0  0  0
   -6.0312    1.2347   -8.0836 O   0  0  0  0  0  0  0  0  0  0  0  0
   -8.2615    0.4589   -6.0891 C   0  0  0  0  0  0  0  0  0  0  0  0
   -8.3805    0.4670   -7.5222 O   0  0  0  0  0  0  0  0  0  0  0  0
   -9.0993    1.5928   -5.4905 C   0  0  1  0  0  0  0  0  0  0  0  0
  -10.5042    1.3236   -5.5794 O   0  0  0  0  0  0  0  0  0  0  0  0
   -8.8287    1.8801   -4.0236 C   0  0  1  0  0  0  0  0  0  0  0  0
   -7.8022    2.8721   -3.9276 O   0  0  0  0  0  0  0  0  0  0  0  0
  -10.1618    2.4069   -3.5181 C   0  0  1  0  0  0  0  0  0  0  0  0
  -10.3007    3.8011   -3.8265 O   0  0  0  0  0  0  0  0  0  0  0  0
  -11.1863    1.6876   -4.3729 C   0  0  2  0  0  0  0  0  0  0  0  0
  -14.1677   -0.2819   -0.7275 N   0  0  0  0  0  0  0  0  0  0  0  0
  -13.9242    1.0133   -1.0318 C   0  0  1  0  0  0  0  0  0  0  0  0
  -14.5289    1.9851   -0.3118 N   0  0  0  0  0  0  0  0  0  0  0  0
  -13.0870    1.3457   -2.0422 N   0  0  0  0  0  0  0  0  0  0  0  0
  -12.4838    0.3677   -2.7594 C   0  0  1  0  0  0  0  0  0  0  0  0
  -12.7129   -0.9630   -2.4695 C   0  0  2  0  0  0  0  0  0  0  0  0
  -13.5775   -1.2778   -1.4277 C   0  0  0  0  0  0  0  0  0  0  0  0
  -13.8120   -2.4663   -1.1326 O   0  0  0  0  0  0  0  0  0  0  0  0
  -11.9804   -1.6925   -3.3357 N   0  0  0  0  0  0  0  0  0  0  0  0
  -11.3210   -0.8314   -4.1455 C   0  0  0  0  0  0  0  0  0  0  0  0
  -11.6400    0.4148   -3.7818 N   0  0  1  0  0  0  0  0  0  0  0  0
  1  2  1  1  0  0  0
  1  3  1  0  0  0  0
  1  4  2  0  0  0  0
  1  6  1  0  0  0  0
  5  6  1  0  0  0  0
  7  5  1  1  0  0  0
  7  8  1  0  0  0  0
  7  9  1  0  0  0  0
  9 10  1  6  0  0  0
  9 11  1  0  0  0  0
 11 12  1  6  0  0  0
 11 13  1  0  0  0  0
 13  8  1  6  0  0  0
 13 24  1  0  0  0  0
 14 15  1  0  0  0  0
 14 20  1  0  0  0  0
 15 16  1  1  0  0  0
 15 17  1  0  0  0  0
 18 17  1  6  0  0  0
 18 19  1  0  0  0  0
 18 24  1  0  0  0  0
 19 20  1  1  0  0  0
 19 22  1  0  0  0  0
 20 21  2  0  0  0  0
 22 23  1  0  0  0  0
 24 23  1  6  0  0  0
M  CHG  1   3  -1
M  END
>  <CHROM.1>
-72.01184368,72.07247364,84.17475846,-169.55595315,-10.43578814,0.91725340
-4.59310430,0.18245049,-0.83028750,-2.65320967

>  <Name>
ligand

>  <RI>
0

>  <Rbt.Current_Directory>
/home/itssahil/PROJECTS/Mol_Feturizer/New_Systems/rnas/3SLQ

>  <Rbt.Executable>
rbdock ($Id: //depot/dev/client3/rdock/2013.1/src/exe/rbdock.cxx#4 $)

>  <Rbt.Library>
libRbt.so (2013.1, Build901 2013/11/27)

>  <Rbt.Parameter_File>
/export/apps/rDock/src/rDock_2013.1_src/data/scripts/dock_solv.prm

>  <Rbt.Receptor>
prm/blind_docking_100.prm

>  <SCORE>
-24.032

>  <SCORE.INTER>
-19.2904

>  <SCORE.INTER.CONST>
1

>  <SCORE.INTER.POLAR>
0

>  <SCORE.INTER.ROT>
4

>  <SCORE.INTER.SOLV>
18.2087

>  <SCORE.INTER.VDW>
-25.1965

>  <SCORE.INTER.norm>
-0.803766

>  <SCORE.INTRA>
-4.74161

>  <SCORE.INTRA.DIHEDRAL>
-8.78656

>  <SCORE.INTRA.DIHEDRAL.0>
13.2525

>  <SCORE.INTRA.POLAR>
0

>  <SCORE.INTRA.POLAR.0>
0

>  <SCORE.INTRA.REPUL>
0

>  <SCORE.INTRA.REPUL.0>
0

>  <SCORE.INTRA.SOLV>
0.561524

>  <SCORE.INTRA.SOLV.lig_0>
-70.7221

>  <SCORE.INTRA.VDW>
-0.629096

>  <SCORE.INTRA.VDW.0>
-1.46337

>  <SCORE.INTRA.norm>
-0.197567

>  <SCORE.RESTR>
0

>  <SCORE.RESTR.CAVITY>
0

>  <SCORE.RESTR.norm>
0

>  <SCORE.SYSTEM>
0

>  <SCORE.SYSTEM.CONST>
0

>  <SCORE.SYSTEM.DIHEDRAL>
0

>  <SCORE.SYSTEM.SOLV>
0

>  <SCORE.SYSTEM.norm>
0

>  <SCORE.heavy>
24

>  <SCORE.norm>
-1.00133

>  <RMSD>
18.233

$$$$
ligand
 OpenBabel11021811483D
libRbt.so/2013.1/901 2013/11/27
 24 26  0  0  0  0  0  0  0  0999 V2000
   -7.2484    0.3113   -9.5153 P   0  0  1  0  0  0  0  0  0  0  0  0
   -7.8896    1.6710   -9.3377 O   0  0  0  0  0  0  0  0  0  0  0  0
   -7.8201   -0.5620  -10.6073 O   0  5  0  0  0  0  0  0  0  0  0  0
   -5.7273    0.3404   -9.5216 O   0  0  0  0  0  0  0  0  0  0  0  0
   -7.6000   -0.0026   -6.8523 C   0  0  0  0  0  0  0  0  0  0  0  0
   -7.7109   -0.5105   -8.1932 O   0  0  0  0  0  0  0  0  0  0  0  0
   -8.0925   -1.0550   -5.8545 C   0  0  1  0  0  0  0  0  0  0  0  0
   -8.0236   -0.5833   -4.5029 O   0  0  0  0  0  0  0  0  0  0  0  0
   -9.5289   -1.5051   -6.0591 C   0  0  1  0  0  0  0  0  0  0  0  0
   -9.5394   -2.6366   -6.9345 O   0  0  0  0  0  0  0  0  0  0  0  0
   -9.9813   -1.8807   -4.6575 C   0  0  1  0  0  0  0  0  0  0  0  0
   -9.5496   -3.2089   -4.3291 O   0  0  0  0  0  0  0  0  0  0  0  0
   -9.1907   -0.9518   -3.7576 C   0  0  2  0  0  0  0  0  0  0  0  0
   -8.5200    4.1000   -3.4642 N   0  0  0  0  0  0  0  0  0  0  0  0
   -7.6206    3.1284   -3.7410 C   0  0  1  0  0  0  0  0  0  0  0  0
   -6.3370    3.4703   -3.9939 N   0  0  0  0  0  0  0  0  0  0  0  0
   -7.9884    1.8261   -3.7671 N   0  0  0  0  0  0  0  0  0  0  0  0
   -9.2756    1.4899   -3.5123 C   0  0  1  0  0  0  0  0  0  0  0  0
  -10.2146    2.4611   -3.2251 C   0  0  2  0  0  0  0  0  0  0  0  0
   -9.8115    3.7912   -3.2054 C   0  0  0  0  0  0  0  0  0  0  0  0
  -10.6270    4.6993   -2.9506 O   0  0  0  0  0  0  0  0  0  0  0  0
  -11.3884    1.8316   -3.0134 N   0  0  0  0  0  0  0  0  0  0  0  0
  -11.1794    0.5040   -3.1738 C   0  0  0  0  0  0  0  0  0  0  0  0
   -9.8914    0.3155   -3.4778 N   0  0  1  0  0  0  0  0  0  0  0  0
  1  2  1  6  0  0  0
  1  3  1  0  0  0  0
  1  4  2  0  0  0  0
  1  6  1  0  0  0  0
  5  6  1  0  0  0  0
  7  5  1  6  0  0  0
  7  8  1  0  0  0  0
  7  9  1  0  0  0  0
  9 10  1  6  0  0  0
  9 11  1  0  0  0  0
 11 12  1  1  0  0  0
 11 13  1  0  0  0  0
 13  8  1  6  0  0  0
 13 24  1  0  0  0  0
 14 15  1  0  0  0  0
 14 20  1  0  0  0  0
 15 16  1  1  0  0  0
 15 17  1  0  0  0  0
 18 17  1  6  0  0  0
 18 19  1  0  0  0  0
 18 24  1  0  0  0  0
 19 20  1  1  0  0  0
 19 22  1  0  0  0  0
 20 21  2  0  0  0  0
 22 23  1  0  0  0  0
 24 23  1  6  0  0  0
M  CHG  1   3  -1
M  END
>  <CHROM.1>
-49.13866389,-178.94066323,-178.42269970,-20.90895976,-8.66111797,0.63366667
-5.65414886,-0.88224921,1.04765339,0.49801080

>  <Name>
ligand

>  <RI>
0

>  <Rbt.Current_Directory>
/home/itssahil/PROJECTS/Mol_Feturizer/New_Systems/rnas/3SLQ

>  <Rbt.Executable>
rbdock ($Id: //depot/dev/client3/rdock/2013.1/src/exe/rbdock.cxx#4 $)

>  <Rbt.Library>
libRbt.so (2013.1, Build901 2013/11/27)

>  <Rbt.Parameter_File>
/export/apps/rDock/src/rDock_2013.1_src/data/scripts/dock_solv.prm

>  <Rbt.Receptor>
prm/blind_docking_100.prm

>  <SCORE>
-20.5136

>  <SCORE.INTER>
-14.9421

>  <SCORE.INTER.CONST>
1

>  <SCORE.INTER.POLAR>
0

>  <SCORE.INTER.ROT>
4

>  <SCORE.INTER.SOLV>
16.5577

>  <SCORE.INTER.VDW>
-21.7473

>  <SCORE.INTER.norm>
-0.622588

>  <SCORE.INTRA>
-5.57148

>  <SCORE.INTRA.DIHEDRAL>
-11.8255

>  <SCORE.INTRA.DIHEDRAL.0>
13.2525

>  <SCORE.INTRA.POLAR>
0

>  <SCORE.INTRA.POLAR.0>
0

>  <SCORE.INTRA.REPUL>
0

>  <SCORE.INTRA.REPUL.0>
0

>  <SCORE.INTRA.SOLV>
0.0633625

>  <SCORE.INTRA.SOLV.lig_0>
-70.7221

>  <SCORE.INTRA.VDW>
0.309598

>  <SCORE.INTRA.VDW.0>
-1.46337

>  <SCORE.INTRA.norm>
-0.232145

>  <SCORE.RESTR>
0

>  <SCORE.RESTR.CAVITY>
0

>  <SCORE.RESTR.norm>
0

>  <SCORE.SYSTEM>
0

>  <SCORE.SYSTEM.CONST>
0

>  <SCORE.SYSTEM.DIHEDRAL>
0

>  <SCORE.SYSTEM.SOLV>
0

>  <SCORE.SYSTEM.norm>
0

>  <SCORE.heavy>
24

>  <SCORE.norm>
-0.854733

>  <RMSD>
18.242

$$$$
ligand
 OpenBabel11021811483D
libRbt.so/2013.1/901 2013/11/27
 24 26  0  0  0  0  0  0  0  0999 V2000
   -7.5268    1.2907   -8.5481 P   0  0  1  0  0  0  0  0  0  0  0  0
   -8.0395    2.6805   -8.2363 O   0  0  0  0  0  0  0  0  0  0  0  0
   -7.9757    0.6891   -9.8589 O   0  5  0  0  0  0  0  0  0  0  0  0
   -6.0371    1.1099   -8.2977 O   0  0  0  0  0  0  0  0  0  0  0  0
   -8.1559    0.4264   -6.0640 C   0  0  0  0  0  0  0  0  0  0  0  0
   -8.3136    0.3417   -7.4909 O   0  0  0  0  0  0  0  0  0  0  0  0
   -9.0277    1.5572   -5.5099 C   0  0  1  0  0  0  0  0  0  0  0  0
  -10.4250    1.2606   -5.6258 O   0  0  0  0  0  0  0  0  0  0  0  0
   -8.7971    1.8804   -4.0435 C   0  0  1  0  0  0  0  0  0  0  0  0
   -7.7910    2.8927   -3.9450 O   0  0  0  0  0  0  0  0  0  0  0  0
  -10.1510    2.3934   -3.5810 C   0  0  1  0  0  0  0  0  0  0  0  0
  -10.3072    3.7781   -3.9225 O   0  0  0  0  0  0  0  0  0  0  0  0
  -11.1420    1.6376   -4.4438 C   0  0  2  0  0  0  0  0  0  0  0  0
  -14.1372   -0.3058   -0.7957 N   0  0  0  0  0  0  0  0  0  0  0  0
  -13.9055    0.9869   -1.1191 C   0  0  1  0  0  0  0  0  0  0  0  0
  -14.5285    1.9634   -0.4213 N   0  0  0  0  0  0  0  0  0  0  0  0
  -13.0621    1.3122   -2.1265 N   0  0  0  0  0  0  0  0  0  0  0  0
  -12.4405    0.3296   -2.8214 C   0  0  1  0  0  0  0  0  0  0  0  0
  -12.6573   -0.9987   -2.5117 C   0  0  2  0  0  0  0  0  0  0  0  0
  -13.5286   -1.3062   -1.4733 C   0  0  0  0  0  0  0  0  0  0  0  0
  -13.7525   -2.4924   -1.1608 O   0  0  0  0  0  0  0  0  0  0  0  0
  -11.9077   -1.7338   -3.3583 N   0  0  0  0  0  0  0  0  0  0  0  0
  -11.2502   -0.8786   -4.1758 C   0  0  0  0  0  0  0  0  0  0  0  0
  -11.5870    0.3696   -3.8361 N   0  0  1  0  0  0  0  0  0  0  0  0
  1  2  1  1  0  0  0
  1  3  1  0  0  0  0
  1  4  2  0  0  0  0
  1  6  1  0  0  0  0
  5  6  1  0  0  0  0
  7  5  1  1  0  0  0
  7  8  1  0  0  0  0
  7  9  1  0  0  0  0
  9 10  1  6  0  0  0
  9 11  1  0  0  0  0
 11 12  1  6  0  0  0
 11 13  1  0  0  0  0
 13  8  1  6  0  0  0
 13 24  1  0  0  0  0
 14 15  1  0  0  0  0
 14 20  1  0  0  0  0
 15 16  1  1  0  0  0
 15 17  1  0  0  0  0
 18 17  1  6  0  0  0
 18 19  1  0  0  0  0
 18 24  1  0  0  0  0
 19 20  1  1  0  0  0
 19 22  1  0  0  0  0
 20 21  2  0  0  0  0
 22 23  1  0  0  0  0
 24 23  1  6  0  0  0
M  CHG  1   3  -1
M  END
>  <CHROM.1>
-63.90365374,68.05428050,81.88502013,-170.46372429,-10.41408407,0.86557292
-4.64073912,0.18281450,-0.83210748,-2.66253806

>  <Name>
ligand

>  <RI>
0

>  <Rbt.Current_Directory>
/home/itssahil/PROJECTS/Mol_Feturizer/New_Systems/rnas/3SLQ

>  <Rbt.Executable>
rbdock ($Id: //depot/dev/client3/rdock/2013.1/src/exe/rbdock.cxx#4 $)

>  <Rbt.Library>
libRbt.so (2013.1, Build901 2013/11/27)

>  <Rbt.Parameter_File>
/export/apps/rDock/src/rDock_2013.1_src/data/scripts/dock_solv.prm

>  <Rbt.Receptor>
prm/blind_docking_20.prm

>  <SCORE>
-24.0828

>  <SCORE.INTER>
-18.9221

>  <SCORE.INTER.CONST>
1

>  <SCORE.INTER.POLAR>
0

>  <SCORE.INTER.ROT>
4

>  <SCORE.INTER.SOLV>
18.8191

>  <SCORE.INTER.VDW>
-25.1544

>  <SCORE.INTER.norm>
-0.788421

>  <SCORE.INTRA>
-5.16064

>  <SCORE.INTRA.DIHEDRAL>
-9.67141

>  <SCORE.INTRA.DIHEDRAL.0>
13.2525

>  <SCORE.INTRA.POLAR>
0

>  <SCORE.INTRA.POLAR.0>
0

>  <SCORE.INTRA.REPUL>
0

>  <SCORE.INTRA.REPUL.0>
0

>  <SCORE.INTRA.SOLV>
0.543054

>  <SCORE.INTRA.SOLV.lig_0>
-70.7221

>  <SCORE.INTRA.VDW>
-0.596462

>  <SCORE.INTRA.VDW.0>
-1.46337

>  <SCORE.INTRA.norm>
-0.215027

>  <SCORE.RESTR>
0

>  <SCORE.RESTR.CAVITY>
0

>  <SCORE.RESTR.norm>
0

>  <SCORE.SYSTEM>
0

>  <SCORE.SYSTEM.CONST>
0

>  <SCORE.SYSTEM.DIHEDRAL>
0

>  <SCORE.SYSTEM.SOLV>
0

>  <SCORE.SYSTEM.norm>
0

>  <SCORE.heavy>
24

>  <SCORE.norm>
-1.00345

>  <RMSD>
18.245

$$$$
ligand
 OpenBabel11021811483D
libRbt.so/2013.1/901 2013/11/27
 24 26  0  0  0  0  0  0  0  0999 V2000
   -7.2433    1.9667   -8.2355 P   0  0  1  0  0  0  0  0  0  0  0  0
   -6.2190    2.2330   -7.1532 O   0  0  0  0  0  0  0  0  0  0  0  0
   -8.2408    3.0698   -8.5004 O   0  5  0  0  0  0  0  0  0  0  0  0
   -6.6569    1.3852   -9.5132 O   0  0  0  0  0  0  0  0  0  0  0  0
   -8.3331    0.5996   -6.1723 C   0  0  0  0  0  0  0  0  0  0  0  0
   -8.2071    0.8326   -7.5858 O   0  0  0  0  0  0  0  0  0  0  0  0
   -9.1731    1.7101   -5.5342 C   0  0  1  0  0  0  0  0  0  0  0  0
  -10.5757    1.4227   -5.5979 O   0  0  0  0  0  0  0  0  0  0  0  0
   -8.8743    1.9734   -4.0683 C   0  0  1  0  0  0  0  0  0  0  0  0
   -7.8598    2.9779   -3.9756 O   0  0  0  0  0  0  0  0  0  0  0  0
  -10.2032    2.4718   -3.5241 C   0  0  1  0  0  0  0  0  0  0  0  0
  -10.3679    3.8695   -3.8026 O   0  0  0  0  0  0  0  0  0  0  0  0
  -11.2362    1.7543   -4.3701 C   0  0  2  0  0  0  0  0  0  0  0  0
  -14.1345   -0.3262   -0.7193 N   0  0  0  0  0  0  0  0  0  0  0  0
  -13.9182    0.9778   -1.0059 C   0  0  1  0  0  0  0  0  0  0  0  0
  -14.5308    1.9270   -0.2628 N   0  0  0  0  0  0  0  0  0  0  0  0
  -13.1002    1.3412   -2.0213 N   0  0  0  0  0  0  0  0  0  0  0  0
  -12.4889    0.3857   -2.7617 C   0  0  1  0  0  0  0  0  0  0  0  0
  -12.6903   -0.9533   -2.4903 C   0  0  2  0  0  0  0  0  0  0  0  0
  -13.5356   -1.3001   -1.4427 C   0  0  0  0  0  0  0  0  0  0  0  0
  -13.7450   -2.4972   -1.1638 O   0  0  0  0  0  0  0  0  0  0  0  0
  -11.9561   -1.6556   -3.3772 N   0  0  0  0  0  0  0  0  0  0  0  0
  -11.3228   -0.7700   -4.1814 C   0  0  0  0  0  0  0  0  0  0  0  0
  -11.6593    0.4643   -3.7938 N   0  0  1  0  0  0  0  0  0  0  0  0
  1  2  1  1  0  0  0
  1  3  1  0  0  0  0
  1  4  2  0  0  0  0
  1  6  1  0  0  0  0
  5  6  1  0  0  0  0
  7  5  1  1  0  0  0
  7  8  1  0  0  0  0
  7  9  1  0  0  0  0
  9 10  1  6  0  0  0
  9 11  1  0  0  0  0
 11 12  1  6  0  0  0
 11 13  1  0  0  0  0
 13  8  1  6  0  0  0
 13 24  1  0  0  0  0
 14 15  1  0  0  0  0
 14 20  1  0  0  0  0
 15 16  1  1  0  0  0
 15 17  1  0  0  0  0
 18 17  1  6  0  0  0
 18 19  1  0  0  0  0
 18 24  1  0  0  0  0
 19 20  1  1  0  0  0
 19 22  1  0  0  0  0
 20 21  2  0  0  0  0
 22 23  1  0  0  0  0
 24 23  1  6  0  0  0
M  CHG  1   3  -1
M  END
>  <CHROM.1>
21.79776182,86.57203862,74.83719992,-168.96415369,-10.38734080,1.09690559
-4.53692028,0.05334074,-0.82669060,-2.73528124

>  <Name>
ligand

>  <RI>
0

>  <Rbt.Current_Directory>
/home/itssahil/PROJECTS/Mol_Feturizer/New_Systems/rnas/3SLQ

>  <Rbt.Executable>
rbdock ($Id: //depot/dev/client3/rdock/2013.1/src/exe/rbdock.cxx#4 $)

>  <Rbt.Library>
libRbt.so (2013.1, Build901 2013/11/27)

>  <Rbt.Parameter_File>
/export/apps/rDock/src/rDock_2013.1_src/data/scripts/dock_solv.prm

>  <Rbt.Receptor>
prm/blind_docking_60.prm

>  <SCORE>
-21.684

>  <SCORE.INTER>
-18.2295

>  <SCORE.INTER.CONST>
1

>  <SCORE.INTER.POLAR>
0

>  <SCORE.INTER.ROT>
4

>  <SCORE.INTER.SOLV>
23.2206

>  <SCORE.INTER.VDW>
-26.1599

>  <SCORE.INTER.norm>
-0.759562

>  <SCORE.INTRA>
-3.45452

>  <SCORE.INTRA.DIHEDRAL>
-7.14739

>  <SCORE.INTRA.DIHEDRAL.0>
13.2525

>  <SCORE.INTRA.POLAR>
0

>  <SCORE.INTRA.POLAR.0>
0

>  <SCORE.INTRA.REPUL>
0

>  <SCORE.INTRA.REPUL.0>
0

>  <SCORE.INTRA.SOLV>
1.00673

>  <SCORE.INTRA.SOLV.lig_0>
-70.7221

>  <SCORE.INTRA.VDW>
-0.384186

>  <SCORE.INTRA.VDW.0>
-1.46337

>  <SCORE.INTRA.norm>
-0.143938

>  <SCORE.RESTR>
0

>  <SCORE.RESTR.CAVITY>
0

>  <SCORE.RESTR.norm>
0

>  <SCORE.SYSTEM>
0

>  <SCORE.SYSTEM.CONST>
0

>  <SCORE.SYSTEM.DIHEDRAL>
0

>  <SCORE.SYSTEM.SOLV>
0

>  <SCORE.SYSTEM.norm>
0

>  <SCORE.heavy>
24

>  <SCORE.norm>
-0.9035

>  <RMSD>
18.246

$$$$
ligand
 OpenBabel11021811483D
libRbt.so/2013.1/901 2013/11/27
 24 26  0  0  0  0  0  0  0  0999 V2000
   -7.1504    1.3663   -8.2263 P   0  0  1  0  0  0  0  0  0  0  0  0
   -5.8960    1.0519   -7.4394 O   0  0  0  0  0  0  0  0  0  0  0  0
   -7.6244    2.8000   -8.1875 O   0  5  0  0  0  0  0  0  0  0  0  0
   -7.1632    0.7807   -9.6305 O   0  0  0  0  0  0  0  0  0  0  0  0
   -8.4908    0.7464   -5.9608 C   0  0  0  0  0  0  0  0  0  0  0  0
   -8.3294    0.6317   -7.3852 O   0  0  0  0  0  0  0  0  0  0  0  0
   -9.6964   -0.0809   -5.5049 C   0  0  1  0  0  0  0  0  0  0  0  0
   -9.5606   -1.4631   -5.8587 O   0  0  0  0  0  0  0  0  0  0  0  0
   -9.9523   -0.0639   -4.0076 C   0  0  1  0  0  0  0  0  0  0  0  0
  -10.8432    1.0131   -3.7023 O   0  0  0  0  0  0  0  0  0  0  0  0
  -10.6003   -1.4140   -3.7477 C   0  0  1  0  0  0  0  0  0  0  0  0
  -12.0025   -1.3644   -4.0476 O   0  0  0  0  0  0  0  0  0  0  0  0
   -9.9831   -2.3223   -4.7926 C   0  0  2  0  0  0  0  0  0  0  0  0
   -5.5878   -4.3698   -6.3879 N   0  0  0  0  0  0  0  0  0  0  0  0
   -6.5875   -3.8122   -7.1085 C   0  0  1  0  0  0  0  0  0  0  0  0
   -6.4734   -3.7465   -8.4543 N   0  0  0  0  0  0  0  0  0  0  0  0
   -7.6939   -3.3227   -6.5016 N   0  0  0  0  0  0  0  0  0  0  0  0
   -7.8026   -3.3920   -5.1532 C   0  0  1  0  0  0  0  0  0  0  0  0
   -6.7980   -3.9576   -4.3928 C   0  0  2  0  0  0  0  0  0  0  0  0
   -5.6717   -4.4522   -5.0401 C   0  0  0  0  0  0  0  0  0  0  0  0
   -4.7416   -4.9708   -4.3916 O   0  0  0  0  0  0  0  0  0  0  0  0
   -7.1868   -3.8899   -3.1032 N   0  0  0  0  0  0  0  0  0  0  0  0
   -8.3994   -3.2897   -3.0689 C   0  0  0  0  0  0  0  0  0  0  0  0
   -8.7568   -2.9931   -4.3224 N   0  0  1  0  0  0  0  0  0  0  0  0
  1  2  1  1  0  0  0
  1  3  1  0  0  0  0
  1  4  2  0  0  0  0
  1  6  1  0  0  0  0
  5  6  1  0  0  0  0
  7  5  1  1  0  0  0
  7  8  1  0  0  0  0
  7  9  1  0  0  0  0
  9 10  1  6  0  0  0
  9 11  1  0  0  0  0
 11 12  1  6  0  0  0
 11 13  1  0  0  0  0
 13  8  1  6  0  0  0
 13 24  1  0  0  0  0
 14 15  1  0  0  0  0
 14 20  1  0  0  0  0
 15 16  1  6  0  0  0
 15 17  1  0  0  0  0
 18 17  1  1  0  0  0
 18 19  1  0  0  0  0
 18 24  1  0  0  0  0
 19 20  1  6  0  0  0
 19 22  1  0  0  0  0
 20 21  2  0  0  0  0
 22 23  1  0  0  0  0
 24 23  1  1  0  0  0
M  CHG  1   3  -1
M  END
>  <CHROM.1>
48.05826954,58.27691993,-179.69293080,-38.28033821,-8.01443317,-1.42401939
-5.86805038,-1.75332843,-0.65299599,2.52746482

>  <Name>
ligand

>  <RI>
0

>  <Rbt.Current_Directory>
/home/itssahil/PROJECTS/Mol_Feturizer/New_Systems/rnas/3SLQ

>  <Rbt.Executable>
rbdock ($Id: //depot/dev/client3/rdock/2013.1/src/exe/rbdock.cxx#4 $)

>  <Rbt.Library>
libRbt.so (2013.1, Build901 2013/11/27)

>  <Rbt.Parameter_File>
/export/apps/rDock/src/rDock_2013.1_src/data/scripts/dock_solv.prm

>  <Rbt.Receptor>
prm/blind_docking_60.prm

>  <SCORE>
-24.8606

>  <SCORE.INTER>
-18.9355

>  <SCORE.INTER.CONST>
1

>  <SCORE.INTER.POLAR>
0

>  <SCORE.INTER.ROT>
4

>  <SCORE.INTER.SOLV>
19.2315

>  <SCORE.INTER.VDW>
-25.3008

>  <SCORE.INTER.norm>
-0.788977

>  <SCORE.INTRA>
-5.92512

>  <SCORE.INTRA.DIHEDRAL>
-11.7969

>  <SCORE.INTRA.DIHEDRAL.0>
13.2525

>  <SCORE.INTRA.POLAR>
0

>  <SCORE.INTRA.POLAR.0>
0

>  <SCORE.INTRA.REPUL>
0

>  <SCORE.INTRA.REPUL.0>
0

>  <SCORE.INTRA.SOLV>
-0.0708406

>  <SCORE.INTRA.SOLV.lig_0>
-70.7221

>  <SCORE.INTRA.VDW>
0.00875053

>  <SCORE.INTRA.VDW.0>
-1.46337

>  <SCORE.INTRA.norm>
-0.24688

>  <SCORE.RESTR>
0

>  <SCORE.RESTR.CAVITY>
0

>  <SCORE.RESTR.norm>
0

>  <SCORE.SYSTEM>
0

>  <SCORE.SYSTEM.CONST>
0

>  <SCORE.SYSTEM.DIHEDRAL>
0

>  <SCORE.SYSTEM.SOLV>
0

>  <SCORE.SYSTEM.norm>
0

>  <SCORE.heavy>
24

>  <SCORE.norm>
-1.03586

>  <RMSD>
18.249

$$$$
ligand
 OpenBabel11021811483D
libRbt.so/2013.1/901 2013/11/27
 24 26  0  0  0  0  0  0  0  0999 V2000
   -7.1313    0.8528   -9.3073 P   0  0  1  0  0  0  0  0  0  0  0  0
   -7.6466    2.2390   -8.9844 O   0  0  0  0  0  0  0  0  0  0  0  0
   -7.7807    0.1519  -10.4774 O   0  5  0  0  0  0  0  0  0  0  0  0
   -5.6138    0.7454   -9.3261 O   0  0  0  0  0  0  0  0  0  0  0  0
   -7.5087    0.2990   -6.6873 C   0  0  0  0  0  0  0  0  0  0  0  0
   -7.6652   -0.0562   -8.0721 O   0  0  0  0  0  0  0  0  0  0  0  0
   -8.0753   -0.8114   -5.7976 C   0  0  1  0  0  0  0  0  0  0  0  0
   -8.0617   -0.4452   -4.4120 O   0  0  0  0  0  0  0  0  0  0  0  0
   -9.5104   -1.2045   -6.1039 C   0  0  1  0  0  0  0  0  0  0  0  0
   -9.5051   -2.2660   -7.0631 O   0  0  0  0  0  0  0  0  0  0  0  0
  -10.0403   -1.6720   -4.7582 C   0  0  1  0  0  0  0  0  0  0  0  0
   -9.6577   -3.0327   -4.5127 O   0  0  0  0  0  0  0  0  0  0  0  0
   -9.2728   -0.8361   -3.7533 C   0  0  2  0  0  0  0  0  0  0  0  0
   -8.5766    4.2073   -3.3848 N   0  0  0  0  0  0  0  0  0  0  0  0
   -7.6947    3.2410   -3.7282 C   0  0  1  0  0  0  0  0  0  0  0  0
   -6.4249    3.5869   -4.0389 N   0  0  0  0  0  0  0  0  0  0  0  0
   -8.0663    1.9400   -3.7638 N   0  0  0  0  0  0  0  0  0  0  0  0
   -9.3396    1.5998   -3.4509 C   0  0  1  0  0  0  0  0  0  0  0  0
  -10.2605    2.5655   -3.0952 C   0  0  2  0  0  0  0  0  0  0  0  0
   -9.8539    3.8944   -3.0672 C   0  0  0  0  0  0  0  0  0  0  0  0
  -10.6533    4.7977   -2.7513 O   0  0  0  0  0  0  0  0  0  0  0  0
  -11.4234    1.9329   -2.8375 N   0  0  0  0  0  0  0  0  0  0  0  0
  -11.2258    0.6089   -3.0372 C   0  0  0  0  0  0  0  0  0  0  0  0
   -9.9554    0.4255   -3.4106 N   0  0  1  0  0  0  0  0  0  0  0  0
  1  2  1  1  0  0  0
  1  3  1  0  0  0  0
  1  4  2  0  0  0  0
  1  6  1  0  0  0  0
  5  6  1  0  0  0  0
  7  5  1  6  0  0  0
  7  8  1  0  0  0  0
  7  9  1  0  0  0  0
  9 10  1  6  0  0  0
  9 11  1  0  0  0  0
 11 12  1  1  0  0  0
 11 13  1  0  0  0  0
 13  8  1  6  0  0  0
 13 24  1  0  0  0  0
 14 15  1  0  0  0  0
 14 20  1  0  0  0  0
 15 16  1  1  0  0  0
 15 17  1  0  0  0  0
 18 17  1  6  0  0  0
 18 19  1  0  0  0  0
 18 24  1  0  0  0  0
 19 20  1  1  0  0  0
 19 22  1  0  0  0  0
 20 21  2  0  0  0  0
 22 23  1  0  0  0  0
 24 23  1  6  0  0  0
M  CHG  1   3  -1
M  END
>  <CHROM.1>
-49.08202019,-174.27224934,-177.61685611,-14.26184821,-8.65940025,0.89615215
-5.57026369,-0.80285868,1.02244080,0.49899492

>  <Name>
ligand

>  <RI>
0

>  <Rbt.Current_Directory>
/home/itssahil/PROJECTS/Mol_Feturizer/New_Systems/rnas/3SLQ

>  <Rbt.Executable>
rbdock ($Id: //depot/dev/client3/rdock/2013.1/src/exe/rbdock.cxx#4 $)

>  <Rbt.Library>
libRbt.so (2013.1, Build901 2013/11/27)

>  <Rbt.Parameter_File>
/export/apps/rDock/src/rDock_2013.1_src/data/scripts/dock_solv.prm

>  <Rbt.Receptor>
prm/blind_docking_80.prm

>  <SCORE>
-20.9321

>  <SCORE.INTER>
-15.8218

>  <SCORE.INTER.CONST>
1

>  <SCORE.INTER.POLAR>
0

>  <SCORE.INTER.ROT>
4

>  <SCORE.INTER.SOLV>
18.2221

>  <SCORE.INTER.VDW>
-22.8885

>  <SCORE.INTER.norm>
-0.659241

>  <SCORE.INTRA>
-5.11036

>  <SCORE.INTRA.DIHEDRAL>
-11.699

>  <SCORE.INTRA.DIHEDRAL.0>
13.2525

>  <SCORE.INTRA.POLAR>
0

>  <SCORE.INTRA.POLAR.0>
0

>  <SCORE.INTRA.REPUL>
0

>  <SCORE.INTRA.REPUL.0>
0

>  <SCORE.INTRA.SOLV>
0.458079

>  <SCORE.INTRA.SOLV.lig_0>
-70.7221

>  <SCORE.INTRA.VDW>
0.510081

>  <SCORE.INTRA.VDW.0>
-1.46337

>  <SCORE.INTRA.norm>
-0.212932

>  <SCORE.RESTR>
0

>  <SCORE.RESTR.CAVITY>
0

>  <SCORE.RESTR.norm>
0

>  <SCORE.SYSTEM>
0

>  <SCORE.SYSTEM.CONST>
0

>  <SCORE.SYSTEM.DIHEDRAL>
0

>  <SCORE.SYSTEM.SOLV>
0

>  <SCORE.SYSTEM.norm>
0

>  <SCORE.heavy>
24

>  <SCORE.norm>
-0.872172

>  <RMSD>
18.252

$$$$
ligand
 OpenBabel11021811483D
libRbt.so/2013.1/901 2013/11/27
 24 26  0  0  0  0  0  0  0  0999 V2000
   -7.5045    1.2389   -8.4237 P   0  0  1  0  0  0  0  0  0  0  0  0
   -7.9527    0.8524   -9.8170 O   0  0  0  0  0  0  0  0  0  0  0  0
   -6.2317    0.5951   -7.9262 O   0  5  0  0  0  0  0  0  0  0  0  0
   -7.5522    2.7349   -8.1509 O   0  0  0  0  0  0  0  0  0  0  0  0
   -8.6126    0.6703   -6.0232 C   0  0  0  0  0  0  0  0  0  0  0  0
   -8.6017    0.5354   -7.4549 O   0  0  0  0  0  0  0  0  0  0  0  0
   -9.7913   -0.1114   -5.4354 C   0  0  1  0  0  0  0  0  0  0  0  0
   -9.7079   -1.5102   -5.7362 O   0  0  0  0  0  0  0  0  0  0  0  0
   -9.9249   -0.0238   -3.9247 C   0  0  1  0  0  0  0  0  0  0  0  0
  -10.7698    1.0835   -3.5980 O   0  0  0  0  0  0  0  0  0  0  0  0
  -10.5726   -1.3477   -3.5531 C   0  0  1  0  0  0  0  0  0  0  0  0
  -11.9933   -1.2825   -3.7417 O   0  0  0  0  0  0  0  0  0  0  0  0
  -10.0574   -2.3132   -4.6019 C   0  0  2  0  0  0  0  0  0  0  0  0
   -5.7549   -4.3538   -6.4408 N   0  0  0  0  0  0  0  0  0  0  0  0
   -6.7907   -3.7909   -7.1038 C   0  0  1  0  0  0  0  0  0  0  0  0
   -6.7480   -3.7167   -8.4533 N   0  0  0  0  0  0  0  0  0  0  0  0
   -7.8629   -3.3044   -6.4361 N   0  0  0  0  0  0  0  0  0  0  0  0
   -7.9001   -3.3822   -5.0843 C   0  0  1  0  0  0  0  0  0  0  0  0
   -6.8572   -3.9533   -4.3818 C   0  0  2  0  0  0  0  0  0  0  0  0
   -5.7674   -4.4446   -5.0910 C   0  0  0  0  0  0  0  0  0  0  0  0
   -4.8048   -4.9681   -4.4959 O   0  0  0  0  0  0  0  0  0  0  0  0
   -7.1771   -3.8936   -3.0730 N   0  0  0  0  0  0  0  0  0  0  0  0
   -8.3856   -3.2927   -2.9707 C   0  0  0  0  0  0  0  0  0  0  0  0
   -8.8085   -2.9879   -4.2017 N   0  0  1  0  0  0  0  0  0  0  0  0
  1  2  1  6  0  0  0
  1  3  1  0  0  0  0
  1  4  2  0  0  0  0
  1  6  1  0  0  0  0
  5  6  1  0  0  0  0
  7  5  1  1  0  0  0
  7  8  1  0  0  0  0
  7  9  1  0  0  0  0
  9 10  1  6  0  0  0
  9 11  1  0  0  0  0
 11 12  1  6  0  0  0
 11 13  1  0  0  0  0
 13  8  1  6  0  0  0
 13 24  1  0  0  0  0
 14 15  1  0  0  0  0
 14 20  1  0  0  0  0
 15 16  1  6  0  0  0
 15 17  1  0  0  0  0
 18 17  1  1  0  0  0
 18 19  1  0  0  0  0
 18 24  1  0  0  0  0
 19 20  1  6  0  0  0
 19 22  1  0  0  0  0
 20 21  2  0  0  0  0
 22 23  1  0  0  0  0
 24 23  1  1  0  0  0
M  CHG  1   3  -1
M  END
>  <CHROM.1>
-177.50420731,60.64965514,179.38322066,-34.81440882,-8.16045423,-1.45082882
-5.86957445,-1.77988628,-0.70849093,2.44647454

>  <Name>
ligand

>  <RI>
0

>  <Rbt.Current_Directory>
/home/itssahil/PROJECTS/Mol_Feturizer/New_Systems/rnas/3SLQ

>  <Rbt.Executable>
rbdock ($Id: //depot/dev/client3/rdock/2013.1/src/exe/rbdock.cxx#4 $)

>  <Rbt.Library>
libRbt.so (2013.1, Build901 2013/11/27)

>  <Rbt.Parameter_File>
/export/apps/rDock/src/rDock_2013.1_src/data/scripts/dock_solv.prm

>  <Rbt.Receptor>
prm/blind_docking_80.prm

>  <SCORE>
-26.4667

>  <SCORE.INTER>
-20.6416

>  <SCORE.INTER.CONST>
1

>  <SCORE.INTER.POLAR>
0

>  <SCORE.INTER.ROT>
4

>  <SCORE.INTER.SOLV>
16.9687

>  <SCORE.INTER.VDW>
-25.684

>  <SCORE.INTER.norm>
-0.860068

>  <SCORE.INTRA>
-5.82509

>  <SCORE.INTRA.DIHEDRAL>
-12.0173

>  <SCORE.INTRA.DIHEDRAL.0>
13.2525

>  <SCORE.INTRA.POLAR>
0

>  <SCORE.INTRA.POLAR.0>
0

>  <SCORE.INTRA.REPUL>
0

>  <SCORE.INTRA.REPUL.0>
0

>  <SCORE.INTRA.SOLV>
0.707632

>  <SCORE.INTRA.SOLV.lig_0>
-70.7221

>  <SCORE.INTRA.VDW>
-0.170263

>  <SCORE.INTRA.VDW.0>
-1.46337

>  <SCORE.INTRA.norm>
-0.242712

>  <SCORE.RESTR>
0

>  <SCORE.RESTR.CAVITY>
0

>  <SCORE.RESTR.norm>
0

>  <SCORE.SYSTEM>
0

>  <SCORE.SYSTEM.CONST>
0

>  <SCORE.SYSTEM.DIHEDRAL>
0

>  <SCORE.SYSTEM.SOLV>
0

>  <SCORE.SYSTEM.norm>
0

>  <SCORE.heavy>
24

>  <SCORE.norm>
-1.10278

>  <RMSD>
18.259

$$$$
ligand
 OpenBabel11021811483D
libRbt.so/2013.1/901 2013/11/27
 24 26  0  0  0  0  0  0  0  0999 V2000
   -7.2989    1.9309   -8.2457 P   0  0  1  0  0  0  0  0  0  0  0  0
   -8.2212    3.1045   -8.4980 O   0  0  0  0  0  0  0  0  0  0  0  0
   -6.7878    1.2051   -9.4678 O   0  5  0  0  0  0  0  0  0  0  0  0
   -6.2036    2.2122   -7.2279 O   0  0  0  0  0  0  0  0  0  0  0  0
   -8.3960    0.5509   -6.1949 C   0  0  0  0  0  0  0  0  0  0  0  0
   -8.2752    0.8019   -7.6058 O   0  0  0  0  0  0  0  0  0  0  0  0
   -9.1900    1.6800   -5.5312 C   0  0  1  0  0  0  0  0  0  0  0  0
  -10.6033    1.4524   -5.6015 O   0  0  0  0  0  0  0  0  0  0  0  0
   -8.8821    1.8966   -4.0594 C   0  0  1  0  0  0  0  0  0  0  0  0
   -7.8270    2.8558   -3.9433 O   0  0  0  0  0  0  0  0  0  0  0  0
  -10.1898    2.4366   -3.5039 C   0  0  1  0  0  0  0  0  0  0  0  0
  -10.2963    3.8460   -3.7497 O   0  0  0  0  0  0  0  0  0  0  0  0
  -11.2507    1.7823   -4.3665 C   0  0  2  0  0  0  0  0  0  0  0  0
  -14.1970   -0.2622   -0.7338 N   0  0  0  0  0  0  0  0  0  0  0  0
  -13.9224    1.0378   -0.9868 C   0  0  1  0  0  0  0  0  0  0  0  0
  -14.4793    1.9933   -0.2087 N   0  0  0  0  0  0  0  0  0  0  0  0
  -13.1014    1.3910   -2.0034 N   0  0  0  0  0  0  0  0  0  0  0  0
  -12.5461    0.4292   -2.7789 C   0  0  1  0  0  0  0  0  0  0  0  0
  -12.8077   -0.9060   -2.5422 C   0  0  2  0  0  0  0  0  0  0  0  0
  -13.6548   -1.2422   -1.4927 C   0  0  0  0  0  0  0  0  0  0  0  0
  -13.9174   -2.4356   -1.2444 O   0  0  0  0  0  0  0  0  0  0  0  0
  -12.1196   -1.6166   -3.4589 N   0  0  0  0  0  0  0  0  0  0  0  0
  -11.4553   -0.7394   -4.2471 C   0  0  0  0  0  0  0  0  0  0  0  0
  -11.7274    0.4979   -3.8204 N   0  0  1  0  0  0  0  0  0  0  0  0
  1  2  1  6  0  0  0
  1  3  1  0  0  0  0
  1  4  2  0  0  0  0
  1  6  1  0  0  0  0
  5  6  1  0  0  0  0
  7  5  1  1  0  0  0
  7  8  1  0  0  0  0
  7  9  1  0  0  0  0
  9 10  1  6  0  0  0
  9 11  1  0  0  0  0
 11 12  1  6  0  0  0
 11 13  1  0  0  0  0
 13  8  1  6  0  0  0
 13 24  1  0  0  0  0
 14 15  1  0  0  0  0
 14 20  1  0  0  0  0
 15 16  1  1  0  0  0
 15 17  1  0  0  0  0
 18 17  1  6  0  0  0
 18 19  1  0  0  0  0
 18 24  1  0  0  0  0
 19 20  1  1  0  0  0
 19 22  1  0  0  0  0
 20 21  2  0  0  0  0
 22 23  1  0  0  0  0
 24 23  1  6  0  0  0
M  CHG  1   3  -1
M  END
>  <CHROM.1>
-98.17678089,85.76714628,73.62189245,-169.90271713,-10.43148499,1.09443176
-4.54707447,0.11843895,-0.81505775,-2.65993786

>  <Name>
ligand

>  <RI>
0

>  <Rbt.Current_Directory>
/home/itssahil/PROJECTS/Mol_Feturizer/New_Systems/rnas/3SLQ

>  <Rbt.Executable>
rbdock ($Id: //depot/dev/client3/rdock/2013.1/src/exe/rbdock.cxx#4 $)

>  <Rbt.Library>
libRbt.so (2013.1, Build901 2013/11/27)

>  <Rbt.Parameter_File>
/export/apps/rDock/src/rDock_2013.1_src/data/scripts/dock_solv.prm

>  <Rbt.Receptor>
prm/blind_docking_40.prm

>  <SCORE>
-24.3317

>  <SCORE.INTER>
-20.9432

>  <SCORE.INTER.CONST>
1

>  <SCORE.INTER.POLAR>
0

>  <SCORE.INTER.ROT>
4

>  <SCORE.INTER.SOLV>
17.2098

>  <SCORE.INTER.VDW>
-25.9654

>  <SCORE.INTER.norm>
-0.872631

>  <SCORE.INTRA>
-3.39282

>  <SCORE.INTRA.DIHEDRAL>
-7.41398

>  <SCORE.INTRA.DIHEDRAL.0>
13.2525

>  <SCORE.INTRA.POLAR>
0

>  <SCORE.INTRA.POLAR.0>
0

>  <SCORE.INTRA.REPUL>
0

>  <SCORE.INTRA.REPUL.0>
0

>  <SCORE.INTRA.SOLV>
1.72861

>  <SCORE.INTRA.SOLV.lig_0>
-70.7221

>  <SCORE.INTRA.VDW>
-0.550131

>  <SCORE.INTRA.VDW.0>
-1.46337

>  <SCORE.INTRA.norm>
-0.141367

>  <SCORE.RESTR>
0.00429485

>  <SCORE.RESTR.CAVITY>
0.00429485

>  <SCORE.RESTR.norm>
0.000178952

>  <SCORE.SYSTEM>
0

>  <SCORE.SYSTEM.CONST>
0

>  <SCORE.SYSTEM.DIHEDRAL>
0

>  <SCORE.SYSTEM.SOLV>
0

>  <SCORE.SYSTEM.norm>
0

>  <SCORE.heavy>
24

>  <SCORE.norm>
-1.01382

>  <RMSD>
18.264

$$$$
ligand
 OpenBabel11021811483D
libRbt.so/2013.1/901 2013/11/27
 24 26  0  0  0  0  0  0  0  0999 V2000
   -6.1366    3.0001   -4.8363 P   0  0  1  0  0  0  0  0  0  0  0  0
   -5.0403    2.2270   -4.1349 O   0  0  0  0  0  0  0  0  0  0  0  0
   -6.8644    4.0324   -4.0076 O   0  5  0  0  0  0  0  0  0  0  0  0
   -5.7449    3.5198   -6.2114 O   0  0  0  0  0  0  0  0  0  0  0  0
   -7.7519    0.9858   -4.0320 C   0  0  0  0  0  0  0  0  0  0  0  0
   -7.3101    1.8985   -5.0518 O   0  0  0  0  0  0  0  0  0  0  0  0
   -8.8342    0.0599   -4.5951 C   0  0  1  0  0  0  0  0  0  0  0  0
   -8.5017   -0.4158   -5.9055 O   0  0  0  0  0  0  0  0  0  0  0  0
   -9.1062   -1.1825   -3.7644 C   0  0  1  0  0  0  0  0  0  0  0  0
  -10.1429   -0.8919   -2.8222 O   0  0  0  0  0  0  0  0  0  0  0  0
   -9.5610   -2.2013   -4.7966 C   0  0  1  0  0  0  0  0  0  0  0  0
  -10.9528   -2.0255   -5.0970 O   0  0  0  0  0  0  0  0  0  0  0  0
   -8.8110   -1.8072   -6.0535 C   0  0  2  0  0  0  0  0  0  0  0  0
   -4.5101   -1.8789   -8.8020 N   0  0  0  0  0  0  0  0  0  0  0  0
   -5.6092   -1.1038   -8.9462 C   0  0  1  0  0  0  0  0  0  0  0  0
   -5.6435   -0.1858   -9.9385 N   0  0  0  0  0  0  0  0  0  0  0  0
   -6.6685   -1.2360   -8.1140 N   0  0  0  0  0  0  0  0  0  0  0  0
   -6.6283   -2.1578   -7.1223 C   0  0  1  0  0  0  0  0  0  0  0  0
   -5.5197   -2.9637   -6.9530 C   0  0  2  0  0  0  0  0  0  0  0  0
   -4.4448   -2.8075   -7.8203 C   0  0  0  0  0  0  0  0  0  0  0  0
   -3.4245   -3.5146   -7.7028 O   0  0  0  0  0  0  0  0  0  0  0  0
   -5.7711   -3.7740   -5.9046 N   0  0  0  0  0  0  0  0  0  0  0  0
   -7.0030   -3.4693   -5.4340 C   0  0  0  0  0  0  0  0  0  0  0  0
   -7.5077   -2.4849   -6.1845 N   0  0  1  0  0  0  0  0  0  0  0  0
  1  2  1  1  0  0  0
  1  3  1  0  0  0  0
  1  4  2  0  0  0  0
  1  6  1  0  0  0  0
  5  6  1  0  0  0  0
  7  5  1  1  0  0  0
  7  8  1  0  0  0  0
  7  9  1  0  0  0  0
  9 10  1  1  0  0  0
  9 11  1  0  0  0  0
 11 12  1  6  0  0  0
 11 13  1  0  0  0  0
 13  8  1  1  0  0  0
 13 24  1  0  0  0  0
 14 15  1  0  0  0  0
 14 20  1  0  0  0  0
 15 16  1  6  0  0  0
 15 17  1  0  0  0  0
 18 17  1  1  0  0  0
 18 19  1  0  0  0  0
 18 24  1  0  0  0  0
 19 20  1  6  0  0  0
 19 22  1  0  0  0  0
 20 21  2  0  0  0  0
 22 23  1  0  0  0  0
 24 23  1  1  0  0  0
M  CHG  1   3  -1
M  END
>  <CHROM.1>
45.63403470,43.23393879,-178.01649083,-56.36576251,-6.95917770,-0.46973341
-5.89179026,-1.95269338,-0.63247026,-2.77538805

>  <Name>
ligand

>  <RI>
0

>  <Rbt.Current_Directory>
/home/itssahil/PROJECTS/Mol_Feturizer/New_Systems/rnas/3SLQ

>  <Rbt.Executable>
rbdock ($Id: //depot/dev/client3/rdock/2013.1/src/exe/rbdock.cxx#4 $)

>  <Rbt.Library>
libRbt.so (2013.1, Build901 2013/11/27)

>  <Rbt.Parameter_File>
/export/apps/rDock/src/rDock_2013.1_src/data/scripts/dock_solv.prm

>  <Rbt.Receptor>
prm/blind_docking_20.prm

>  <SCORE>
-13.0984

>  <SCORE.INTER>
-7.6382

>  <SCORE.INTER.CONST>
1

>  <SCORE.INTER.POLAR>
0

>  <SCORE.INTER.ROT>
4

>  <SCORE.INTER.SOLV>
13.7809

>  <SCORE.INTER.VDW>
-15.9524

>  <SCORE.INTER.norm>
-0.318258

>  <SCORE.INTRA>
-5.46022

>  <SCORE.INTRA.DIHEDRAL>
-10.7521

>  <SCORE.INTRA.DIHEDRAL.0>
13.2525

>  <SCORE.INTRA.POLAR>
0

>  <SCORE.INTRA.POLAR.0>
0

>  <SCORE.INTRA.REPUL>
0

>  <SCORE.INTRA.REPUL.0>
0

>  <SCORE.INTRA.SOLV>
-0.0510268

>  <SCORE.INTRA.SOLV.lig_0>
-70.7221

>  <SCORE.INTRA.VDW>
-0.0586761

>  <SCORE.INTRA.VDW.0>
-1.46337

>  <SCORE.INTRA.norm>
-0.227509

>  <SCORE.RESTR>
0

>  <SCORE.RESTR.CAVITY>
0

>  <SCORE.RESTR.norm>
0

>  <SCORE.SYSTEM>
0

>  <SCORE.SYSTEM.CONST>
0

>  <SCORE.SYSTEM.DIHEDRAL>
0

>  <SCORE.SYSTEM.SOLV>
0

>  <SCORE.SYSTEM.norm>
0

>  <SCORE.heavy>
24

>  <SCORE.norm>
-0.545768

>  <RMSD>
18.273

$$$$
ligand
 OpenBabel11021811483D
libRbt.so/2013.1/901 2013/11/27
 24 26  0  0  0  0  0  0  0  0999 V2000
   -7.2771    1.4800   -8.1781 P   0  0  1  0  0  0  0  0  0  0  0  0
   -7.8405    2.8744   -8.3514 O   0  0  0  0  0  0  0  0  0  0  0  0
   -7.1990    0.6291   -9.4238 O   0  5  0  0  0  0  0  0  0  0  0  0
   -6.0031    1.4260   -7.3483 O   0  0  0  0  0  0  0  0  0  0  0  0
   -8.6163    0.8172   -5.9241 C   0  0  0  0  0  0  0  0  0  0  0  0
   -8.4305    0.6972   -7.3451 O   0  0  0  0  0  0  0  0  0  0  0  0
   -9.8074   -0.0374   -5.4806 C   0  0  1  0  0  0  0  0  0  0  0  0
   -9.6516   -1.4101   -5.8617 O   0  0  0  0  0  0  0  0  0  0  0  0
  -10.0582   -0.0535   -3.9824 C   0  0  1  0  0  0  0  0  0  0  0  0
  -10.9645    1.0034   -3.6531 O   0  0  0  0  0  0  0  0  0  0  0  0
  -10.6845   -1.4182   -3.7468 C   0  0  1  0  0  0  0  0  0  0  0  0
  -12.0883   -1.3845   -4.0411 O   0  0  0  0  0  0  0  0  0  0  0  0
  -10.0571   -2.2964   -4.8112 C   0  0  2  0  0  0  0  0  0  0  0  0
   -5.7393   -4.4490   -6.4783 N   0  0  0  0  0  0  0  0  0  0  0  0
   -6.7611   -3.9139   -7.1847 C   0  0  1  0  0  0  0  0  0  0  0  0
   -6.6969   -3.9069   -8.5354 N   0  0  0  0  0  0  0  0  0  0  0  0
   -7.8406   -3.3892   -6.5590 N   0  0  0  0  0  0  0  0  0  0  0  0
   -7.8993   -3.3997   -5.2058 C   0  0  1  0  0  0  0  0  0  0  0  0
   -6.8711   -3.9410   -4.4594 C   0  0  2  0  0  0  0  0  0  0  0  0
   -5.7734   -4.4727   -5.1260 C   0  0  0  0  0  0  0  0  0  0  0  0
   -4.8235   -4.9713   -4.4906 O   0  0  0  0  0  0  0  0  0  0  0  0
   -7.2110   -3.8148   -3.1604 N   0  0  0  0  0  0  0  0  0  0  0  0
   -8.4172   -3.2030   -3.1072 C   0  0  0  0  0  0  0  0  0  0  0  0
   -8.8189   -2.9572   -4.3583 N   0  0  1  0  0  0  0  0  0  0  0  0
  1  2  1  6  0  0  0
  1  3  1  0  0  0  0
  1  4  2  0  0  0  0
  1  6  1  0  0  0  0
  5  6  1  0  0  0  0
  7  5  1  1  0  0  0
  7  8  1  0  0  0  0
  7  9  1  0  0  0  0
  9 10  1  6  0  0  0
  9 11  1  0  0  0  0
 11 12  1  6  0  0  0
 11 13  1  0  0  0  0
 13  8  1  6  0  0  0
 13 24  1  0  0  0  0
 14 15  1  0  0  0  0
 14 20  1  0  0  0  0
 15 16  1  6  0  0  0
 15 17  1  0  0  0  0
 18 17  1  1  0  0  0
 18 19  1  0  0  0  0
 18 24  1  0  0  0  0
 19 20  1  6  0  0  0
 19 22  1  0  0  0  0
 20 21  2  0  0  0  0
 22 23  1  0  0  0  0
 24 23  1  1  0  0  0
M  CHG  1   3  -1
M  END
>  <CHROM.1>
-79.63295076,56.34945585,178.97480820,-42.56658382,-8.12166635,-1.39978207
-5.87896830,-1.79297316,-0.66860680,2.55406315

>  <Name>
ligand

>  <RI>
0

>  <Rbt.Current_Directory>
/home/itssahil/PROJECTS/Mol_Feturizer/New_Systems/rnas/3SLQ

>  <Rbt.Executable>
rbdock ($Id: //depot/dev/client3/rdock/2013.1/src/exe/rbdock.cxx#4 $)

>  <Rbt.Library>
libRbt.so (2013.1, Build901 2013/11/27)

>  <Rbt.Parameter_File>
/export/apps/rDock/src/rDock_2013.1_src/data/scripts/dock_solv.prm

>  <Rbt.Receptor>
prm/blind_docking_80.prm

>  <SCORE>
-27.2534

>  <SCORE.INTER>
-21.4839

>  <SCORE.INTER.CONST>
1

>  <SCORE.INTER.POLAR>
0

>  <SCORE.INTER.ROT>
4

>  <SCORE.INTER.SOLV>
14.9781

>  <SCORE.INTER.VDW>
-25.582

>  <SCORE.INTER.norm>
-0.895164

>  <SCORE.INTRA>
-5.76949

>  <SCORE.INTRA.DIHEDRAL>
-11.4054

>  <SCORE.INTRA.DIHEDRAL.0>
13.2525

>  <SCORE.INTRA.POLAR>
0

>  <SCORE.INTRA.POLAR.0>
0

>  <SCORE.INTRA.REPUL>
0

>  <SCORE.INTRA.REPUL.0>
0

>  <SCORE.INTRA.SOLV>
0.0635132

>  <SCORE.INTRA.SOLV.lig_0>
-70.7221

>  <SCORE.INTRA.VDW>
-0.0985713

>  <SCORE.INTRA.VDW.0>
-1.46337

>  <SCORE.INTRA.norm>
-0.240396

>  <SCORE.RESTR>
0

>  <SCORE.RESTR.CAVITY>
0

>  <SCORE.RESTR.norm>
0

>  <SCORE.SYSTEM>
0

>  <SCORE.SYSTEM.CONST>
0

>  <SCORE.SYSTEM.DIHEDRAL>
0

>  <SCORE.SYSTEM.SOLV>
0

>  <SCORE.SYSTEM.norm>
0

>  <SCORE.heavy>
24

>  <SCORE.norm>
-1.13556

>  <RMSD>
18.290

$$$$
ligand
 OpenBabel11021811483D
libRbt.so/2013.1/901 2013/11/27
 24 26  0  0  0  0  0  0  0  0999 V2000
   -7.4427    1.6506   -8.4706 P   0  0  1  0  0  0  0  0  0  0  0  0
   -7.7907    3.1228   -8.5237 O   0  0  0  0  0  0  0  0  0  0  0  0
   -7.7966    0.8336   -9.6909 O   0  5  0  0  0  0  0  0  0  0  0  0
   -6.0390    1.3645   -7.9583 O   0  0  0  0  0  0  0  0  0  0  0  0
   -8.6019   -0.3548   -7.0747 C   0  0  0  0  0  0  0  0  0  0  0  0
   -8.4868    1.0449   -7.3841 O   0  0  0  0  0  0  0  0  0  0  0  0
   -9.6315   -0.5586   -5.9593 C   0  0  1  0  0  0  0  0  0  0  0  0
   -9.8538   -1.9476   -5.6846 O   0  0  0  0  0  0  0  0  0  0  0  0
   -9.2607    0.0690   -4.6265 C   0  0  1  0  0  0  0  0  0  0  0  0
   -9.7856    1.3990   -4.5789 O   0  0  0  0  0  0  0  0  0  0  0  0
   -9.9415   -0.8354   -3.6121 C   0  0  1  0  0  0  0  0  0  0  0  0
  -11.3224   -0.4751   -3.4647 O   0  0  0  0  0  0  0  0  0  0  0  0
   -9.9356   -2.1981   -4.2760 C   0  0  2  0  0  0  0  0  0  0  0  0
   -5.6521   -4.1223   -6.2774 N   0  0  0  0  0  0  0  0  0  0  0  0
   -6.6316   -3.4042   -6.8727 C   0  0  1  0  0  0  0  0  0  0  0  0
   -6.5264   -3.1084   -8.1880 N   0  0  0  0  0  0  0  0  0  0  0  0
   -7.7092   -2.9813   -6.1713 N   0  0  0  0  0  0  0  0  0  0  0  0
   -7.8092   -3.2813   -4.8542 C   0  0  1  0  0  0  0  0  0  0  0  0
   -6.8247   -4.0144   -4.2212 C   0  0  2  0  0  0  0  0  0  0  0  0
   -5.7279   -4.4360   -4.9636 C   0  0  0  0  0  0  0  0  0  0  0  0
   -4.8167   -5.1002   -4.4313 O   0  0  0  0  0  0  0  0  0  0  0  0
   -7.1988   -4.1573   -2.9333 N   0  0  0  0  0  0  0  0  0  0  0  0
   -8.3825   -3.5205   -2.7745 C   0  0  0  0  0  0  0  0  0  0  0  0
   -8.7369   -2.9934   -3.9508 N   0  0  1  0  0  0  0  0  0  0  0  0
  1  2  1  6  0  0  0
  1  3  1  0  0  0  0
  1  4  2  0  0  0  0
  1  6  1  0  0  0  0
  5  6  1  0  0  0  0
  7  5  1  6  0  0  0
  7  8  1  0  0  0  0
  7  9  1  0  0  0  0
  9 10  1  6  0  0  0
  9 11  1  0  0  0  0
 11 12  1  6  0  0  0
 11 13  1  0  0  0  0
 13  8  1  6  0  0  0
 13 24  1  0  0  0  0
 14 15  1  0  0  0  0
 14 20  1  0  0  0  0
 15 16  1  6  0  0  0
 15 17  1  0  0  0  0
 18 17  1  1  0  0  0
 18 19  1  0  0  0  0
 18 24  1  0  0  0  0
 19 20  1  6  0  0  0
 19 22  1  0  0  0  0
 20 21  2  0  0  0  0
 22 23  1  0  0  0  0
 24 23  1  1  0  0  0
M  CHG  1   3  -1
M  END
>  <CHROM.1>
175.03810079,175.67199215,177.14095138,3.51644764,-7.98743001,-1.30396727
-5.91146596,-1.72406461,-0.69794524,2.44544890

>  <Name>
ligand

>  <RI>
0

>  <Rbt.Current_Directory>
/home/itssahil/PROJECTS/Mol_Feturizer/New_Systems/rnas/3SLQ

>  <Rbt.Executable>
rbdock ($Id: //depot/dev/client3/rdock/2013.1/src/exe/rbdock.cxx#4 $)

>  <Rbt.Library>
libRbt.so (2013.1, Build901 2013/11/27)

>  <Rbt.Parameter_File>
/export/apps/rDock/src/rDock_2013.1_src/data/scripts/dock_solv.prm

>  <Rbt.Receptor>
prm/blind_docking_100.prm

>  <SCORE>
-24.7848

>  <SCORE.INTER>
-20.7026

>  <SCORE.INTER.CONST>
1

>  <SCORE.INTER.POLAR>
0

>  <SCORE.INTER.ROT>
4

>  <SCORE.INTER.SOLV>
16.5682

>  <SCORE.INTER.VDW>
-25.5911

>  <SCORE.INTER.norm>
-0.86261

>  <SCORE.INTRA>
-4.10504

>  <SCORE.INTRA.DIHEDRAL>
-11.907

>  <SCORE.INTRA.DIHEDRAL.0>
13.2525

>  <SCORE.INTRA.POLAR>
0

>  <SCORE.INTRA.POLAR.0>
0

>  <SCORE.INTRA.REPUL>
0

>  <SCORE.INTRA.REPUL.0>
0

>  <SCORE.INTRA.SOLV>
2.13094

>  <SCORE.INTRA.SOLV.lig_0>
-70.7221

>  <SCORE.INTRA.VDW>
0.782987

>  <SCORE.INTRA.VDW.0>
-1.46337

>  <SCORE.INTRA.norm>
-0.171043

>  <SCORE.RESTR>
0.0228481

>  <SCORE.RESTR.CAVITY>
0.0228481

>  <SCORE.RESTR.norm>
0.000952003

>  <SCORE.SYSTEM>
0

>  <SCORE.SYSTEM.CONST>
0

>  <SCORE.SYSTEM.DIHEDRAL>
0

>  <SCORE.SYSTEM.SOLV>
0

>  <SCORE.SYSTEM.norm>
0

>  <SCORE.heavy>
24

>  <SCORE.norm>
-1.0327

>  <RMSD>
18.316

$$$$
ligand
 OpenBabel11021811483D
libRbt.so/2013.1/901 2013/11/27
 24 26  0  0  0  0  0  0  0  0999 V2000
   -7.3075    2.0243   -8.1525 P   0  0  1  0  0  0  0  0  0  0  0  0
   -8.0165    3.2612   -8.6614 O   0  0  0  0  0  0  0  0  0  0  0  0
   -6.9170    1.0002   -9.1919 O   0  5  0  0  0  0  0  0  0  0  0  0
   -6.1882    2.3151   -7.1640 O   0  0  0  0  0  0  0  0  0  0  0  0
   -8.4242   -0.1956   -7.0854 C   0  0  0  0  0  0  0  0  0  0  0  0
   -8.4652    1.2177   -7.3486 O   0  0  0  0  0  0  0  0  0  0  0  0
   -9.5553   -0.5798   -6.1268 C   0  0  1  0  0  0  0  0  0  0  0  0
   -9.6720   -2.0007   -5.9804 O   0  0  0  0  0  0  0  0  0  0  0  0
   -9.4102   -0.0326   -4.7171 C   0  0  1  0  0  0  0  0  0  0  0  0
  -10.0646    1.2375   -4.6438 O   0  0  0  0  0  0  0  0  0  0  0  0
  -10.1160   -1.0732   -3.8632 C   0  0  1  0  0  0  0  0  0  0  0  0
  -11.5331   -0.8497   -3.8675 O   0  0  0  0  0  0  0  0  0  0  0  0
   -9.8972   -2.3714   -4.6146 C   0  0  2  0  0  0  0  0  0  0  0  0
   -5.5187   -4.3291   -6.3618 N   0  0  0  0  0  0  0  0  0  0  0  0
   -6.5162   -3.7157   -7.0386 C   0  0  1  0  0  0  0  0  0  0  0  0
   -6.4046   -3.5559   -8.3767 N   0  0  0  0  0  0  0  0  0  0  0  0
   -7.6182   -3.2632   -6.3958 N   0  0  0  0  0  0  0  0  0  0  0  0
   -7.7244   -3.4268   -5.0554 C   0  0  1  0  0  0  0  0  0  0  0  0
   -6.7218   -4.0510   -4.3395 C   0  0  2  0  0  0  0  0  0  0  0  0
   -5.6002   -4.5057   -5.0230 C   0  0  0  0  0  0  0  0  0  0  0  0
   -4.6721   -5.0748   -4.4151 O   0  0  0  0  0  0  0  0  0  0  0  0
   -7.1074   -4.0720   -3.0472 N   0  0  0  0  0  0  0  0  0  0  0  0
   -8.3161   -3.4680   -2.9675 C   0  0  0  0  0  0  0  0  0  0  0  0
   -8.6741   -3.0815   -4.1961 N   0  0  1  0  0  0  0  0  0  0  0  0
  1  2  1  6  0  0  0
  1  3  1  0  0  0  0
  1  4  2  0  0  0  0
  1  6  1  0  0  0  0
  5  6  1  0  0  0  0
  7  5  1  6  0  0  0
  7  8  1  0  0  0  0
  7  9  1  0  0  0  0
  9 10  1  6  0  0  0
  9 11  1  0  0  0  0
 11 12  1  6  0  0  0
 11 13  1  0  0  0  0
 13  8  1  6  0  0  0
 13 24  1  0  0  0  0
 14 15  1  0  0  0  0
 14 20  1  0  0  0  0
 15 16  1  6  0  0  0
 15 17  1  0  0  0  0
 18 17  1  1  0  0  0
 18 19  1  0  0  0  0
 18 24  1  0  0  0  0
 19 20  1  6  0  0  0
 19 22  1  0  0  0  0
 20 21  2  0  0  0  0
 22 23  1  0  0  0  0
 24 23  1  1  0  0  0
M  CHG  1   3  -1
M  END
>  <CHROM.1>
157.57021127,171.88972741,171.23136587,-9.13287029,-7.92340533,-1.30002121
-5.95398698,-1.75532256,-0.63450805,2.55500206

>  <Name>
ligand

>  <RI>
0

>  <Rbt.Current_Directory>
/home/itssahil/PROJECTS/Mol_Feturizer/New_Systems/rnas/3SLQ

>  <Rbt.Executable>
rbdock ($Id: //depot/dev/client3/rdock/2013.1/src/exe/rbdock.cxx#4 $)

>  <Rbt.Library>
libRbt.so (2013.1, Build901 2013/11/27)

>  <Rbt.Parameter_File>
/export/apps/rDock/src/rDock_2013.1_src/data/scripts/dock_solv.prm

>  <Rbt.Receptor>
prm/blind_docking_40.prm

>  <SCORE>
-25.3341

>  <SCORE.INTER>
-21.671

>  <SCORE.INTER.CONST>
1

>  <SCORE.INTER.POLAR>
0

>  <SCORE.INTER.ROT>
4

>  <SCORE.INTER.SOLV>
15.6138

>  <SCORE.INTER.VDW>
-25.9186

>  <SCORE.INTER.norm>
-0.902958

>  <SCORE.INTRA>
-3.82439

>  <SCORE.INTRA.DIHEDRAL>
-10.7008

>  <SCORE.INTRA.DIHEDRAL.0>
13.2525

>  <SCORE.INTRA.POLAR>
0

>  <SCORE.INTRA.POLAR.0>
0

>  <SCORE.INTRA.REPUL>
0

>  <SCORE.INTRA.REPUL.0>
0

>  <SCORE.INTRA.SOLV>
1.39277

>  <SCORE.INTRA.SOLV.lig_0>
-70.7221

>  <SCORE.INTRA.VDW>
0.829635

>  <SCORE.INTRA.VDW.0>
-1.46337

>  <SCORE.INTRA.norm>
-0.15935

>  <SCORE.RESTR>
0.161234

>  <SCORE.RESTR.CAVITY>
0.161234

>  <SCORE.RESTR.norm>
0.0067181

>  <SCORE.SYSTEM>
0

>  <SCORE.SYSTEM.CONST>
0

>  <SCORE.SYSTEM.DIHEDRAL>
0

>  <SCORE.SYSTEM.SOLV>
0

>  <SCORE.SYSTEM.norm>
0

>  <SCORE.heavy>
24

>  <SCORE.norm>
-1.05559

>  <RMSD>
18.376

$$$$
ligand
 OpenBabel11021811483D
libRbt.so/2013.1/901 2013/11/27
 24 26  0  0  0  0  0  0  0  0999 V2000
   -5.7157    4.7873   -4.7221 P   0  0  1  0  0  0  0  0  0  0  0  0
   -5.5953    4.5969   -6.2190 O   0  0  0  0  0  0  0  0  0  0  0  0
   -4.4247    5.0012   -3.9675 O   0  5  0  0  0  0  0  0  0  0  0  0
   -6.8073    5.7628   -4.3081 O   0  0  0  0  0  0  0  0  0  0  0  0
   -7.1706    2.5084   -4.7821 C   0  0  0  0  0  0  0  0  0  0  0  0
   -6.1476    3.3192   -4.1786 O   0  0  0  0  0  0  0  0  0  0  0  0
   -6.6237    1.8337   -6.0437 C   0  0  1  0  0  0  0  0  0  0  0  0
   -5.9345    0.6140   -5.7413 O   0  0  0  0  0  0  0  0  0  0  0  0
   -7.6748    1.4656   -7.0769 C   0  0  1  0  0  0  0  0  0  0  0  0
   -7.8334    2.5589   -7.9859 O   0  0  0  0  0  0  0  0  0  0  0  0
   -7.0774    0.2498   -7.7663 C   0  0  1  0  0  0  0  0  0  0  0  0
   -6.1415    0.6538   -8.7758 O   0  0  0  0  0  0  0  0  0  0  0  0
   -6.2566   -0.4185   -6.6813 C   0  0  2  0  0  0  0  0  0  0  0  0
  -10.3649   -1.0162   -3.7113 N   0  0  0  0  0  0  0  0  0  0  0  0
   -9.8780    0.1058   -4.2887 C   0  0  1  0  0  0  0  0  0  0  0  0
  -10.5251    1.2783   -4.1015 N   0  0  0  0  0  0  0  0  0  0  0  0
   -8.7572    0.0687   -5.0467 N   0  0  0  0  0  0  0  0  0  0  0  0
   -8.1131   -1.1088   -5.2300 C   0  0  1  0  0  0  0  0  0  0  0  0
   -8.5870   -2.2695   -4.6510 C   0  0  2  0  0  0  0  0  0  0  0  0
   -9.7403   -2.2047   -3.8779 C   0  0  0  0  0  0  0  0  0  0  0  0
  -10.2021   -3.2289   -3.3370 O   0  0  0  0  0  0  0  0  0  0  0  0
   -7.7457   -3.2635   -5.0021 N   0  0  0  0  0  0  0  0  0  0  0  0
   -6.7801   -2.7291   -5.7856 C   0  0  0  0  0  0  0  0  0  0  0  0
   -7.0201   -1.4203   -5.9142 N   0  0  1  0  0  0  0  0  0  0  0  0
  1  2  1  6  0  0  0
  1  3  1  0  0  0  0
  1  4  2  0  0  0  0
  1  6  1  0  0  0  0
  5  6  1  0  0  0  0
  7  5  1  1  0  0  0
  7  8  1  0  0  0  0
  7  9  1  0  0  0  0
  9 10  1  6  0  0  0
  9 11  1  0  0  0  0
 11 12  1  6  0  0  0
 11 13  1  0  0  0  0
 13  8  1  1  0  0  0
 13 24  1  0  0  0  0
 14 15  1  0  0  0  0
 14 20  1  0  0  0  0
 15 16  1  1  0  0  0
 15 17  1  0  0  0  0
 18 17  1  6  0  0  0
 18 19  1  0  0  0  0
 18 24  1  0  0  0  0
 19 20  1  1  0  0  0
 19 22  1  0  0  0  0
 20 21  2  0  0  0  0
 22 23  1  0  0  0  0
 24 23  1  6  0  0  0
M  CHG  1   3  -1
M  END
>  <CHROM.1>
-45.72417751,84.89237548,77.99774801,55.27224692,-7.39510797,1.05058871,-5.36015324
0.86157903,0.85876738,0.50641180

>  <Name>
ligand

>  <RI>
0

>  <Rbt.Current_Directory>
/home/itssahil/PROJECTS/Mol_Feturizer/New_Systems/rnas/3SLQ

>  <Rbt.Executable>
rbdock ($Id: //depot/dev/client3/rdock/2013.1/src/exe/rbdock.cxx#4 $)

>  <Rbt.Library>
libRbt.so (2013.1, Build901 2013/11/27)

>  <Rbt.Parameter_File>
/export/apps/rDock/src/rDock_2013.1_src/data/scripts/dock_solv.prm

>  <Rbt.Receptor>
prm/blind_docking_100.prm

>  <SCORE>
-12.9867

>  <SCORE.INTER>
-10.2777

>  <SCORE.INTER.CONST>
1

>  <SCORE.INTER.POLAR>
0

>  <SCORE.INTER.ROT>
4

>  <SCORE.INTER.SOLV>
12.1885

>  <SCORE.INTER.VDW>
-17.1813

>  <SCORE.INTER.norm>
-0.428238

>  <SCORE.INTRA>
-3.19688

>  <SCORE.INTRA.DIHEDRAL>
-8.31085

>  <SCORE.INTRA.DIHEDRAL.0>
13.2525

>  <SCORE.INTRA.POLAR>
0

>  <SCORE.INTRA.POLAR.0>
0

>  <SCORE.INTRA.REPUL>
0

>  <SCORE.INTRA.REPUL.0>
0

>  <SCORE.INTRA.SOLV>
2.58827

>  <SCORE.INTRA.SOLV.lig_0>
-70.7221

>  <SCORE.INTRA.VDW>
-0.335586

>  <SCORE.INTRA.VDW.0>
-1.46337

>  <SCORE.INTRA.norm>
-0.133203

>  <SCORE.RESTR>
0.487875

>  <SCORE.RESTR.CAVITY>
0.487875

>  <SCORE.RESTR.norm>
0.0203281

>  <SCORE.SYSTEM>
0

>  <SCORE.SYSTEM.CONST>
0

>  <SCORE.SYSTEM.DIHEDRAL>
0

>  <SCORE.SYSTEM.SOLV>
0

>  <SCORE.SYSTEM.norm>
0

>  <SCORE.heavy>
24

>  <SCORE.norm>
-0.541113

>  <RMSD>
18.385

$$$$
ligand
 OpenBabel11021811483D
libRbt.so/2013.1/901 2013/11/27
 24 26  0  0  0  0  0  0  0  0999 V2000
   -6.6493   -0.0942   -9.0573 P   0  0  1  0  0  0  0  0  0  0  0  0
   -7.6357    0.2518  -10.1523 O   0  0  0  0  0  0  0  0  0  0  0  0
   -6.6854   -1.5156   -8.5473 O   0  5  0  0  0  0  0  0  0  0  0  0
   -5.2348    0.4006   -9.3195 O   0  0  0  0  0  0  0  0  0  0  0  0
   -8.5316    0.5369   -7.2209 C   0  0  0  0  0  0  0  0  0  0  0  0
   -7.2106    0.7094   -7.7625 O   0  0  0  0  0  0  0  0  0  0  0  0
   -8.7675    1.5451   -6.0924 C   0  0  1  0  0  0  0  0  0  0  0  0
  -10.1557    1.6512   -5.7521 O   0  0  0  0  0  0  0  0  0  0  0  0
   -8.0496    1.2265   -4.7920 C   0  0  1  0  0  0  0  0  0  0  0  0
   -6.7668    1.8599   -4.8041 O   0  0  0  0  0  0  0  0  0  0  0  0
   -8.9586    1.8291   -3.7334 C   0  0  1  0  0  0  0  0  0  0  0  0
   -8.7074    3.2350   -3.5964 O   0  0  0  0  0  0  0  0  0  0  0  0
  -10.3457    1.7107   -4.3330 C   0  0  2  0  0  0  0  0  0  0  0  0
  -14.0579   -0.2436   -1.4249 N   0  0  0  0  0  0  0  0  0  0  0  0
  -13.6293    1.0352   -1.5267 C   0  0  1  0  0  0  0  0  0  0  0  0
  -14.2290    1.9930   -0.7840 N   0  0  0  0  0  0  0  0  0  0  0  0
  -12.6133    1.3650   -2.3579 N   0  0  0  0  0  0  0  0  0  0  0  0
  -12.0162    0.4009   -3.0988 C   0  0  1  0  0  0  0  0  0  0  0  0
  -12.4323   -0.9132   -3.0136 C   0  0  2  0  0  0  0  0  0  0  0  0
  -13.4783   -1.2255   -2.1531 C   0  0  0  0  0  0  0  0  0  0  0  0
  -13.8849   -2.3993   -2.0457 O   0  0  0  0  0  0  0  0  0  0  0  0
  -11.6578   -1.6326   -3.8512 N   0  0  0  0  0  0  0  0  0  0  0  0
  -10.7896   -0.7804   -4.4446 C   0  0  0  0  0  0  0  0  0  0  0  0
  -11.0230    0.4499   -3.9767 N   0  0  1  0  0  0  0  0  0  0  0  0
  1  2  1  6  0  0  0
  1  3  1  0  0  0  0
  1  4  2  0  0  0  0
  1  6  1  0  0  0  0
  5  6  1  0  0  0  0
  7  5  1  6  0  0  0
  7  8  1  0  0  0  0
  7  9  1  0  0  0  0
  9 10  1  6  0  0  0
  9 11  1  0  0  0  0
 11 12  1  6  0  0  0
 11 13  1  0  0  0  0
 13  8  1  6  0  0  0
 13 24  1  0  0  0  0
 14 15  1  0  0  0  0
 14 20  1  0  0  0  0
 15 16  1  1  0  0  0
 15 17  1  0  0  0  0
 18 17  1  6  0  0  0
 18 19  1  0  0  0  0
 18 24  1  0  0  0  0
 19 20  1  1  0  0  0
 19 22  1  0  0  0  0
 20 21  2  0  0  0  0
 22 23  1  0  0  0  0
 24 23  1  6  0  0  0
M  CHG  1   3  -1
M  END
>  <CHROM.1>
57.58991146,165.15144974,-174.52871662,-138.65362059,-9.84270352,0.45925695
-5.08166448,0.43445665,-0.68068296,-2.47318043

>  <Name>
ligand

>  <RI>
0

>  <Rbt.Current_Directory>
/home/itssahil/PROJECTS/Mol_Feturizer/New_Systems/rnas/3SLQ

>  <Rbt.Executable>
rbdock ($Id: //depot/dev/client3/rdock/2013.1/src/exe/rbdock.cxx#4 $)

>  <Rbt.Library>
libRbt.so (2013.1, Build901 2013/11/27)

>  <Rbt.Parameter_File>
/export/apps/rDock/src/rDock_2013.1_src/data/scripts/dock_solv.prm

>  <Rbt.Receptor>
prm/blind_docking_100.prm

>  <SCORE>
-20.9291

>  <SCORE.INTER>
-14.9261

>  <SCORE.INTER.CONST>
1

>  <SCORE.INTER.POLAR>
0

>  <SCORE.INTER.ROT>
4

>  <SCORE.INTER.SOLV>
12.2874

>  <SCORE.INTER.VDW>
-20.3132

>  <SCORE.INTER.norm>
-0.621921

>  <SCORE.INTRA>
-6.00297

>  <SCORE.INTRA.DIHEDRAL>
-11.118

>  <SCORE.INTRA.DIHEDRAL.0>
13.2525

>  <SCORE.INTRA.POLAR>
0

>  <SCORE.INTRA.POLAR.0>
0

>  <SCORE.INTRA.REPUL>
0

>  <SCORE.INTRA.REPUL.0>
0

>  <SCORE.INTRA.SOLV>
-0.0241142

>  <SCORE.INTRA.SOLV.lig_0>
-70.7221

>  <SCORE.INTRA.VDW>
-0.431933

>  <SCORE.INTRA.VDW.0>
-1.46337

>  <SCORE.INTRA.norm>
-0.250124

>  <SCORE.RESTR>
0

>  <SCORE.RESTR.CAVITY>
0

>  <SCORE.RESTR.norm>
0

>  <SCORE.SYSTEM>
0

>  <SCORE.SYSTEM.CONST>
0

>  <SCORE.SYSTEM.DIHEDRAL>
0

>  <SCORE.SYSTEM.SOLV>
0

>  <SCORE.SYSTEM.norm>
0

>  <SCORE.heavy>
24

>  <SCORE.norm>
-0.872045

>  <RMSD>
18.393

$$$$
ligand
 OpenBabel11021811483D
libRbt.so/2013.1/901 2013/11/27
 24 26  0  0  0  0  0  0  0  0999 V2000
   -6.0524   -3.3382   -7.1207 P   0  0  1  0  0  0  0  0  0  0  0  0
   -6.9949   -3.7866   -8.2171 O   0  0  0  0  0  0  0  0  0  0  0  0
   -6.4591   -3.6788   -5.7063 O   0  5  0  0  0  0  0  0  0  0  0  0
   -4.5882   -3.6418   -7.4007 O   0  0  0  0  0  0  0  0  0  0  0  0
   -5.6424   -0.8476   -8.0914 C   0  0  0  0  0  0  0  0  0  0  0  0
   -6.2170   -1.7227   -7.1054 O   0  0  0  0  0  0  0  0  0  0  0  0
   -5.9336    0.6110   -7.7261 C   0  0  1  0  0  0  0  0  0  0  0  0
   -7.3255    0.9268   -7.8565 O   0  0  0  0  0  0  0  0  0  0  0  0
   -5.5556    1.0010   -6.3074 C   0  0  1  0  0  0  0  0  0  0  0  0
   -4.2110    1.4897   -6.3042 O   0  0  0  0  0  0  0  0  0  0  0  0
   -6.5490    2.1008   -5.9701 C   0  0  1  0  0  0  0  0  0  0  0  0
   -6.1043    3.3588   -6.4974 O   0  0  0  0  0  0  0  0  0  0  0  0
   -7.7864    1.7310   -6.7636 C   0  0  2  0  0  0  0  0  0  0  0  0
  -11.1278    1.7337   -2.9046 N   0  0  0  0  0  0  0  0  0  0  0  0
  -10.3590    2.7417   -3.3763 C   0  0  1  0  0  0  0  0  0  0  0  0
  -10.4380    3.9596   -2.7941 N   0  0  0  0  0  0  0  0  0  0  0  0
   -9.5166    2.5463   -4.4176 N   0  0  0  0  0  0  0  0  0  0  0  0
   -9.4416    1.3238   -4.9961 C   0  0  1  0  0  0  0  0  0  0  0  0
  -10.2137    0.2762   -4.5340 C   0  0  2  0  0  0  0  0  0  0  0  0
  -11.0713    0.5032   -3.4639 C   0  0  0  0  0  0  0  0  0  0  0  0
  -11.7858   -0.4150   -3.0154 O   0  0  0  0  0  0  0  0  0  0  0  0
   -9.9218   -0.8002   -5.2924 N   0  0  0  0  0  0  0  0  0  0  0  0
   -8.9970   -0.4227   -6.2057 C   0  0  0  0  0  0  0  0  0  0  0  0
   -8.7185    0.8703   -6.0117 N   0  0  1  0  0  0  0  0  0  0  0  0
  1  2  1  6  0  0  0
  1  3  1  0  0  0  0
  1  4  2  0  0  0  0
  1  6  1  0  0  0  0
  5  6  1  0  0  0  0
  7  5  1  1  0  0  0
  7  8  1  0  0  0  0
  7  9  1  0  0  0  0
  9 10  1  6  0  0  0
  9 11  1  0  0  0  0
 11 12  1  6  0  0  0
 11 13  1  0  0  0  0
 13  8  1  6  0  0  0
 13 24  1  0  0  0  0
 14 15  1  0  0  0  0
 14 20  1  0  0  0  0
 15 16  1  1  0  0  0
 15 17  1  0  0  0  0
 18 17  1  6  0  0  0
 18 19  1  0  0  0  0
 18 24  1  0  0  0  0
 19 20  1  1  0  0  0
 19 22  1  0  0  0  0
 20 21  2  0  0  0  0
 22 23  1  0  0  0  0
 24 23  1  6  0  0  0
M  CHG  1   3  -1
M  END
>  <CHROM.1>
-75.57602192,-68.60219802,-176.96539691,-173.51255316,-7.77045136,0.01570279
-5.87718385,0.70739936,-0.56937185,-3.00359174

>  <Name>
ligand

>  <RI>
0

>  <Rbt.Current_Directory>
/home/itssahil/PROJECTS/Mol_Feturizer/New_Systems/rnas/3SLQ

>  <Rbt.Executable>
rbdock ($Id: //depot/dev/client3/rdock/2013.1/src/exe/rbdock.cxx#4 $)

>  <Rbt.Library>
libRbt.so (2013.1, Build901 2013/11/27)

>  <Rbt.Parameter_File>
/export/apps/rDock/src/rDock_2013.1_src/data/scripts/dock_solv.prm

>  <Rbt.Receptor>
prm/blind_docking_60.prm

>  <SCORE>
-16.2655

>  <SCORE.INTER>
-9.87228

>  <SCORE.INTER.CONST>
1

>  <SCORE.INTER.POLAR>
0

>  <SCORE.INTER.ROT>
4

>  <SCORE.INTER.SOLV>
12.9614

>  <SCORE.INTER.VDW>
-17.1687

>  <SCORE.INTER.norm>
-0.411345

>  <SCORE.INTRA>
-6.39318

>  <SCORE.INTRA.DIHEDRAL>
-11.3608

>  <SCORE.INTRA.DIHEDRAL.0>
13.2525

>  <SCORE.INTRA.POLAR>
0

>  <SCORE.INTRA.POLAR.0>
0

>  <SCORE.INTRA.REPUL>
0

>  <SCORE.INTRA.REPUL.0>
0

>  <SCORE.INTRA.SOLV>
0.073225

>  <SCORE.INTRA.SOLV.lig_0>
-70.7221

>  <SCORE.INTRA.VDW>
-0.749386

>  <SCORE.INTRA.VDW.0>
-1.46337

>  <SCORE.INTRA.norm>
-0.266382

>  <SCORE.RESTR>
0

>  <SCORE.RESTR.CAVITY>
0

>  <SCORE.RESTR.norm>
0

>  <SCORE.SYSTEM>
0

>  <SCORE.SYSTEM.CONST>
0

>  <SCORE.SYSTEM.DIHEDRAL>
0

>  <SCORE.SYSTEM.SOLV>
0

>  <SCORE.SYSTEM.norm>
0

>  <SCORE.heavy>
24

>  <SCORE.norm>
-0.677728

>  <RMSD>
18.398

$$$$
ligand
 OpenBabel11021811483D
libRbt.so/2013.1/901 2013/11/27
 24 26  0  0  0  0  0  0  0  0999 V2000
   -7.5895   -1.5366   -9.3196 P   0  0  1  0  0  0  0  0  0  0  0  0
   -6.2276   -2.1839   -9.4529 O   0  0  0  0  0  0  0  0  0  0  0  0
   -7.9931   -0.5904  -10.4258 O   0  5  0  0  0  0  0  0  0  0  0  0
   -8.7002   -2.5043   -8.9394 O   0  0  0  0  0  0  0  0  0  0  0  0
   -8.4882    0.2323   -7.4821 C   0  0  0  0  0  0  0  0  0  0  0  0
   -7.4064   -0.5005   -8.0827 O   0  0  0  0  0  0  0  0  0  0  0  0
   -7.9364    1.2338   -6.4631 C   0  0  1  0  0  0  0  0  0  0  0  0
   -8.9712    2.0538   -5.9055 O   0  0  0  0  0  0  0  0  0  0  0  0
   -7.2238    0.6088   -5.2759 C   0  0  1  0  0  0  0  0  0  0  0  0
   -5.8332    0.4798   -5.5860 O   0  0  0  0  0  0  0  0  0  0  0  0
   -7.4550    1.6141   -4.1597 C   0  0  1  0  0  0  0  0  0  0  0  0
   -6.5035    2.6847   -4.2425 O   0  0  0  0  0  0  0  0  0  0  0  0
   -8.8008    2.2268   -4.4932 C   0  0  2  0  0  0  0  0  0  0  0  0
  -10.5738   -2.4370   -3.4152 N   0  0  0  0  0  0  0  0  0  0  0  0
   -9.4375   -2.0762   -4.0540 C   0  0  1  0  0  0  0  0  0  0  0  0
   -8.5949   -3.0374   -4.4951 N   0  0  0  0  0  0  0  0  0  0  0  0
   -9.1364   -0.7721   -4.2560 N   0  0  0  0  0  0  0  0  0  0  0  0
   -9.9847    0.1862   -3.8124 C   0  0  1  0  0  0  0  0  0  0  0  0
  -11.1527   -0.1536   -3.1585 C   0  0  2  0  0  0  0  0  0  0  0  0
  -11.4384   -1.4998   -2.9630 C   0  0  0  0  0  0  0  0  0  0  0  0
  -12.4821   -1.8502   -2.3776 O   0  0  0  0  0  0  0  0  0  0  0  0
  -11.7848    0.9961   -2.8463 N   0  0  0  0  0  0  0  0  0  0  0  0
  -11.0204    2.0209   -3.2906 C   0  0  0  0  0  0  0  0  0  0  0  0
   -9.9309    1.5102   -3.8731 N   0  0  1  0  0  0  0  0  0  0  0  0
  1  2  1  6  0  0  0
  1  3  1  0  0  0  0
  1  4  2  0  0  0  0
  1  6  1  0  0  0  0
  5  6  1  0  0  0  0
  7  5  1  6  0  0  0
  7  8  1  0  0  0  0
  7  9  1  0  0  0  0
  9 10  1  6  0  0  0
  9 11  1  0  0  0  0
 11 12  1  6  0  0  0
 11 13  1  0  0  0  0
 13  8  1  6  0  0  0
 13 24  1  0  0  0  0
 14 15  1  0  0  0  0
 14 20  1  0  0  0  0
 15 16  1  6  0  0  0
 15 17  1  0  0  0  0
 18 17  1  1  0  0  0
 18 19  1  0  0  0  0
 18 24  1  0  0  0  0
 19 20  1  6  0  0  0
 19 22  1  0  0  0  0
 20 21  2  0  0  0  0
 22 23  1  0  0  0  0
 24 23  1  1  0  0  0
M  CHG  1   3  -1
M  END
>  <CHROM.1>
-172.26540186,175.91977317,-173.25174238,74.19716632,-8.80334268,-0.22411057
-5.66314374,0.76242311,-0.82060775,-2.41430204

>  <Name>
ligand

>  <RI>
0

>  <Rbt.Current_Directory>
/home/itssahil/PROJECTS/Mol_Feturizer/New_Systems/rnas/3SLQ

>  <Rbt.Executable>
rbdock ($Id: //depot/dev/client3/rdock/2013.1/src/exe/rbdock.cxx#4 $)

>  <Rbt.Library>
libRbt.so (2013.1, Build901 2013/11/27)

>  <Rbt.Parameter_File>
/export/apps/rDock/src/rDock_2013.1_src/data/scripts/dock_solv.prm

>  <Rbt.Receptor>
prm/blind_docking_60.prm

>  <SCORE>
-16.375

>  <SCORE.INTER>
-11.9328

>  <SCORE.INTER.CONST>
1

>  <SCORE.INTER.POLAR>
0

>  <SCORE.INTER.ROT>
4

>  <SCORE.INTER.SOLV>
14.5122

>  <SCORE.INTER.VDW>
-19.0592

>  <SCORE.INTER.norm>
-0.497199

>  <SCORE.INTRA>
-4.44223

>  <SCORE.INTRA.DIHEDRAL>
-11.6558

>  <SCORE.INTRA.DIHEDRAL.0>
13.2525

>  <SCORE.INTRA.POLAR>
0

>  <SCORE.INTRA.POLAR.0>
0

>  <SCORE.INTRA.REPUL>
0

>  <SCORE.INTRA.REPUL.0>
0

>  <SCORE.INTRA.SOLV>
1.75237

>  <SCORE.INTRA.SOLV.lig_0>
-70.7221

>  <SCORE.INTRA.VDW>
0.509507

>  <SCORE.INTRA.VDW.0>
-1.46337

>  <SCORE.INTRA.norm>
-0.185093

>  <SCORE.RESTR>
0

>  <SCORE.RESTR.CAVITY>
0

>  <SCORE.RESTR.norm>
0

>  <SCORE.SYSTEM>
0

>  <SCORE.SYSTEM.CONST>
0

>  <SCORE.SYSTEM.DIHEDRAL>
0

>  <SCORE.SYSTEM.SOLV>
0

>  <SCORE.SYSTEM.norm>
0

>  <SCORE.heavy>
24

>  <SCORE.norm>
-0.682292

>  <RMSD>
18.437

$$$$
ligand
 OpenBabel11021811483D
libRbt.so/2013.1/901 2013/11/27
 24 26  0  0  0  0  0  0  0  0999 V2000
   -6.5263    0.1843   -9.0718 P   0  0  1  0  0  0  0  0  0  0  0  0
   -7.7120    0.2323  -10.0116 O   0  0  0  0  0  0  0  0  0  0  0  0
   -6.6192   -0.7943   -7.9248 O   0  5  0  0  0  0  0  0  0  0  0  0
   -5.1791    0.1372   -9.7771 O   0  0  0  0  0  0  0  0  0  0  0  0
   -7.8036    2.1083   -7.6646 C   0  0  0  0  0  0  0  0  0  0  0  0
   -6.6061    1.5972   -8.2753 O   0  0  0  0  0  0  0  0  0  0  0  0
   -8.1121    1.3231   -6.3863 C   0  0  1  0  0  0  0  0  0  0  0  0
   -7.2280    1.6771   -5.3152 O   0  0  0  0  0  0  0  0  0  0  0  0
   -9.5164    1.5187   -5.8408 C   0  0  1  0  0  0  0  0  0  0  0  0
  -10.3756    0.5246   -6.4066 O   0  0  0  0  0  0  0  0  0  0  0  0
   -9.3419    1.3180   -4.3443 C   0  0  1  0  0  0  0  0  0  0  0  0
   -9.3472   -0.0797   -4.0207 O   0  0  0  0  0  0  0  0  0  0  0  0
   -7.9314    1.8026   -4.0730 C   0  0  2  0  0  0  0  0  0  0  0  0
  -10.3631    5.4981   -1.5261 N   0  0  0  0  0  0  0  0  0  0  0  0
  -10.6999    4.1976   -1.6828 C   0  0  1  0  0  0  0  0  0  0  0  0
  -11.8304    3.7344   -1.1030 N   0  0  0  0  0  0  0  0  0  0  0  0
   -9.9235    3.3598   -2.4090 N   0  0  0  0  0  0  0  0  0  0  0  0
   -8.7926    3.8299   -2.9878 C   0  0  1  0  0  0  0  0  0  0  0  0
   -8.4254    5.1536   -2.8458 C   0  0  2  0  0  0  0  0  0  0  0  0
   -9.2394    5.9931   -2.0943 C   0  0  0  0  0  0  0  0  0  0  0  0
   -8.9448    7.1949   -1.9410 O   0  0  0  0  0  0  0  0  0  0  0  0
   -7.2749    5.3245   -3.5285 N   0  0  0  0  0  0  0  0  0  0  0  0
   -6.9370    4.1320   -4.0724 C   0  0  0  0  0  0  0  0  0  0  0  0
   -7.8691    3.2362   -3.7323 N   0  0  1  0  0  0  0  0  0  0  0  0
  1  2  1  6  0  0  0
  1  3  1  0  0  0  0
  1  4  2  0  0  0  0
  1  6  1  0  0  0  0
  5  6  1  0  0  0  0
  7  5  1  6  0  0  0
  7  8  1  0  0  0  0
  7  9  1  0  0  0  0
  9 10  1  6  0  0  0
  9 11  1  0  0  0  0
 11 12  1  6  0  0  0
 11 13  1  0  0  0  0
 13  8  1  6  0  0  0
 13 24  1  0  0  0  0
 14 15  1  0  0  0  0
 14 20  1  0  0  0  0
 15 16  1  6  0  0  0
 15 17  1  0  0  0  0
 18 17  1  1  0  0  0
 18 19  1  0  0  0  0
 18 24  1  0  0  0  0
 19 20  1  6  0  0  0
 19 22  1  0  0  0  0
 20 21  2  0  0  0  0
 22 23  1  0  0  0  0
 24 23  1  1  0  0  0
M  CHG  1   3  -1
M  END
>  <CHROM.1>
48.58134406,74.35892641,73.87513413,153.00079566,-8.30534501,2.41282593,-5.21626718
-1.13529736,0.69659122,0.67005605

>  <Name>
ligand

>  <RI>
0

>  <Rbt.Current_Directory>
/home/itssahil/PROJECTS/Mol_Feturizer/New_Systems/rnas/3SLQ

>  <Rbt.Executable>
rbdock ($Id: //depot/dev/client3/rdock/2013.1/src/exe/rbdock.cxx#4 $)

>  <Rbt.Library>
libRbt.so (2013.1, Build901 2013/11/27)

>  <Rbt.Parameter_File>
/export/apps/rDock/src/rDock_2013.1_src/data/scripts/dock_solv.prm

>  <Rbt.Receptor>
prm/blind_docking_100.prm

>  <SCORE>
-19.4438

>  <SCORE.INTER>
-15.0211

>  <SCORE.INTER.CONST>
1

>  <SCORE.INTER.POLAR>
0

>  <SCORE.INTER.ROT>
4

>  <SCORE.INTER.SOLV>
13.5327

>  <SCORE.INTER.VDW>
-20.7916

>  <SCORE.INTER.norm>
-0.625878

>  <SCORE.INTRA>
-4.42269

>  <SCORE.INTRA.DIHEDRAL>
-10.2471

>  <SCORE.INTRA.DIHEDRAL.0>
13.2525

>  <SCORE.INTRA.POLAR>
0

>  <SCORE.INTRA.POLAR.0>
0

>  <SCORE.INTRA.REPUL>
0

>  <SCORE.INTRA.REPUL.0>
0

>  <SCORE.INTRA.SOLV>
1.72955

>  <SCORE.INTRA.SOLV.lig_0>
-70.7221

>  <SCORE.INTRA.VDW>
-0.163902

>  <SCORE.INTRA.VDW.0>
-1.46337

>  <SCORE.INTRA.norm>
-0.184279

>  <SCORE.RESTR>
0

>  <SCORE.RESTR.CAVITY>
0

>  <SCORE.RESTR.norm>
0

>  <SCORE.SYSTEM>
0

>  <SCORE.SYSTEM.CONST>
0

>  <SCORE.SYSTEM.DIHEDRAL>
0

>  <SCORE.SYSTEM.SOLV>
0

>  <SCORE.SYSTEM.norm>
0

>  <SCORE.heavy>
24

>  <SCORE.norm>
-0.810157

>  <RMSD>
18.454

$$$$
ligand
 OpenBabel11021811483D
libRbt.so/2013.1/901 2013/11/27
 24 26  0  0  0  0  0  0  0  0999 V2000
   -6.4684   -0.0434   -9.0855 P   0  0  1  0  0  0  0  0  0  0  0  0
   -5.7077   -1.2379   -9.6203 O   0  0  0  0  0  0  0  0  0  0  0  0
   -5.6794    0.9320   -8.2441 O   0  5  0  0  0  0  0  0  0  0  0  0
   -7.3436    0.6471  -10.1207 O   0  0  0  0  0  0  0  0  0  0  0  0
   -8.5651    0.0192   -7.3785 C   0  0  0  0  0  0  0  0  0  0  0  0
   -7.4562   -0.6830   -7.9663 O   0  0  0  0  0  0  0  0  0  0  0  0
   -8.0496    1.1185   -6.4450 C   0  0  1  0  0  0  0  0  0  0  0  0
   -9.1149    1.9331   -5.9393 O   0  0  0  0  0  0  0  0  0  0  0  0
   -7.3003    0.6175   -5.2222 C   0  0  1  0  0  0  0  0  0  0  0  0
   -5.9079    0.5257   -5.5377 O   0  0  0  0  0  0  0  0  0  0  0  0
   -7.5664    1.6942   -4.1829 C   0  0  1  0  0  0  0  0  0  0  0  0
   -6.6638    2.7955   -4.3578 O   0  0  0  0  0  0  0  0  0  0  0  0
   -8.9406    2.2206   -4.5463 C   0  0  2  0  0  0  0  0  0  0  0  0
  -10.6660   -2.4420   -3.3890 N   0  0  0  0  0  0  0  0  0  0  0  0
   -9.5707   -2.0822   -4.0962 C   0  0  1  0  0  0  0  0  0  0  0  0
   -8.7628   -3.0444   -4.5962 N   0  0  0  0  0  0  0  0  0  0  0  0
   -9.2761   -0.7782   -4.3082 N   0  0  0  0  0  0  0  0  0  0  0  0
  -10.0896    0.1810   -3.8053 C   0  0  1  0  0  0  0  0  0  0  0  0
  -11.2155   -0.1577   -3.0808 C   0  0  2  0  0  0  0  0  0  0  0  0
  -11.4952   -1.5038   -2.8765 C   0  0  0  0  0  0  0  0  0  0  0  0
  -12.5015   -1.8533   -2.2284 O   0  0  0  0  0  0  0  0  0  0  0  0
  -11.8205    0.9929   -2.7215 N   0  0  0  0  0  0  0  0  0  0  0  0
  -11.0805    2.0170   -3.2066 C   0  0  0  0  0  0  0  0  0  0  0  0
  -10.0328    1.5052   -3.8605 N   0  0  1  0  0  0  0  0  0  0  0  0
  1  2  1  6  0  0  0
  1  3  1  0  0  0  0
  1  4  2  0  0  0  0
  1  6  1  0  0  0  0
  5  6  1  0  0  0  0
  7  5  1  1  0  0  0
  7  8  1  0  0  0  0
  7  9  1  0  0  0  0
  9 10  1  6  0  0  0
  9 11  1  0  0  0  0
 11 12  1  6  0  0  0
 11 13  1  0  0  0  0
 13  8  1  6  0  0  0
 13 24  1  0  0  0  0
 14 15  1  0  0  0  0
 14 20  1  0  0  0  0
 15 16  1  6  0  0  0
 15 17  1  0  0  0  0
 18 17  1  1  0  0  0
 18 19  1  0  0  0  0
 18 24  1  0  0  0  0
 19 20  1  6  0  0  0
 19 22  1  0  0  0  0
 20 21  2  0  0  0  0
 22 23  1  0  0  0  0
 24 23  1  1  0  0  0
M  CHG  1   3  -1
M  END
>  <CHROM.1>
-166.69688310,174.15289119,-70.75069706,67.88212795,-8.59149354,0.14110894
-5.58623427,0.27713644,-0.85471824,-2.66605683

>  <Name>
ligand

>  <RI>
0

>  <Rbt.Current_Directory>
/home/itssahil/PROJECTS/Mol_Feturizer/New_Systems/rnas/3SLQ

>  <Rbt.Executable>
rbdock ($Id: //depot/dev/client3/rdock/2013.1/src/exe/rbdock.cxx#4 $)

>  <Rbt.Library>
libRbt.so (2013.1, Build901 2013/11/27)

>  <Rbt.Parameter_File>
/export/apps/rDock/src/rDock_2013.1_src/data/scripts/dock_solv.prm

>  <Rbt.Receptor>
prm/blind_docking_80.prm

>  <SCORE>
-15.6375

>  <SCORE.INTER>
-12.6113

>  <SCORE.INTER.CONST>
1

>  <SCORE.INTER.POLAR>
0

>  <SCORE.INTER.ROT>
4

>  <SCORE.INTER.SOLV>
13.774

>  <SCORE.INTER.VDW>
-19.2655

>  <SCORE.INTER.norm>
-0.52547

>  <SCORE.INTRA>
-3.02618

>  <SCORE.INTRA.DIHEDRAL>
-11.0821

>  <SCORE.INTRA.DIHEDRAL.0>
13.2525

>  <SCORE.INTRA.POLAR>
0

>  <SCORE.INTRA.POLAR.0>
0

>  <SCORE.INTRA.REPUL>
0

>  <SCORE.INTRA.REPUL.0>
0

>  <SCORE.INTRA.SOLV>
5.5659

>  <SCORE.INTRA.SOLV.lig_0>
-70.7221

>  <SCORE.INTRA.VDW>
-0.268072

>  <SCORE.INTRA.VDW.0>
-1.46337

>  <SCORE.INTRA.norm>
-0.126091

>  <SCORE.RESTR>
0

>  <SCORE.RESTR.CAVITY>
0

>  <SCORE.RESTR.norm>
0

>  <SCORE.SYSTEM>
0

>  <SCORE.SYSTEM.CONST>
0

>  <SCORE.SYSTEM.DIHEDRAL>
0

>  <SCORE.SYSTEM.SOLV>
0

>  <SCORE.SYSTEM.norm>
0

>  <SCORE.heavy>
24

>  <SCORE.norm>
-0.651561

>  <RMSD>
18.476

$$$$
ligand
 OpenBabel11021811483D
libRbt.so/2013.1/901 2013/11/27
 24 26  0  0  0  0  0  0  0  0999 V2000
   -6.5890    0.0116   -9.0999 P   0  0  1  0  0  0  0  0  0  0  0  0
   -7.5172    0.8187   -9.9822 O   0  0  0  0  0  0  0  0  0  0  0  0
   -5.9628   -1.2115   -9.7273 O   0  5  0  0  0  0  0  0  0  0  0  0
   -5.5868    0.8524   -8.3232 O   0  0  0  0  0  0  0  0  0  0  0  0
   -8.6653    0.0152   -7.3670 C   0  0  0  0  0  0  0  0  0  0  0  0
   -7.5850   -0.6764   -8.0172 O   0  0  0  0  0  0  0  0  0  0  0  0
   -8.1068    1.0990   -6.4400 C   0  0  1  0  0  0  0  0  0  0  0  0
   -9.1420    1.9422   -5.9191 O   0  0  0  0  0  0  0  0  0  0  0  0
   -7.3549    0.5762   -5.2279 C   0  0  1  0  0  0  0  0  0  0  0  0
   -5.9700    0.4463   -5.5627 O   0  0  0  0  0  0  0  0  0  0  0  0
   -7.5767    1.6588   -4.1844 C   0  0  1  0  0  0  0  0  0  0  0  0
   -6.6465    2.7350   -4.3711 O   0  0  0  0  0  0  0  0  0  0  0  0
   -8.9408    2.2234   -4.5285 C   0  0  2  0  0  0  0  0  0  0  0  0
  -10.7943   -2.3909   -3.3755 N   0  0  0  0  0  0  0  0  0  0  0  0
   -9.7010   -2.0606   -4.1001 C   0  0  1  0  0  0  0  0  0  0  0  0
   -8.9339   -3.0440   -4.6224 N   0  0  0  0  0  0  0  0  0  0  0  0
   -9.3684   -0.7650   -4.3074 N   0  0  0  0  0  0  0  0  0  0  0  0
  -10.1412    0.2157   -3.7821 C   0  0  1  0  0  0  0  0  0  0  0  0
  -11.2641   -0.0928   -3.0396 C   0  0  2  0  0  0  0  0  0  0  0  0
  -11.5833   -1.4309   -2.8406 C   0  0  0  0  0  0  0  0  0  0  0  0
  -12.5883   -1.7532   -2.1766 O   0  0  0  0  0  0  0  0  0  0  0  0
  -11.8249    1.0736   -2.6602 N   0  0  0  0  0  0  0  0  0  0  0  0
  -11.0612    2.0775   -3.1510 C   0  0  0  0  0  0  0  0  0  0  0  0
  -10.0428    1.5378   -3.8281 N   0  0  1  0  0  0  0  0  0  0  0  0
  1  2  1  6  0  0  0
  1  3  1  0  0  0  0
  1  4  2  0  0  0  0
  1  6  1  0  0  0  0
  5  6  1  0  0  0  0
  7  5  1  1  0  0  0
  7  8  1  0  0  0  0
  7  9  1  0  0  0  0
  9 10  1  6  0  0  0
  9 11  1  0  0  0  0
 11 12  1  6  0  0  0
 11 13  1  0  0  0  0
 13  8  1  6  0  0  0
 13 24  1  0  0  0  0
 14 15  1  0  0  0  0
 14 20  1  0  0  0  0
 15 16  1  6  0  0  0
 15 17  1  0  0  0  0
 18 17  1  1  0  0  0
 18 19  1  0  0  0  0
 18 24  1  0  0  0  0
 19 20  1  6  0  0  0
 19 22  1  0  0  0  0
 20 21  2  0  0  0  0
 22 23  1  0  0  0  0
 24 23  1  1  0  0  0
M  CHG  1   3  -1
M  END
>  <CHROM.1>
-43.27474273,171.53461242,-66.60621188,67.32533757,-8.66468538,0.16220230
-5.58102287,0.31401107,-0.85264622,-2.62189192

>  <Name>
ligand

>  <RI>
0

>  <Rbt.Current_Directory>
/home/itssahil/PROJECTS/Mol_Feturizer/New_Systems/rnas/3SLQ

>  <Rbt.Executable>
rbdock ($Id: //depot/dev/client3/rdock/2013.1/src/exe/rbdock.cxx#4 $)

>  <Rbt.Library>
libRbt.so (2013.1, Build901 2013/11/27)

>  <Rbt.Parameter_File>
/export/apps/rDock/src/rDock_2013.1_src/data/scripts/dock_solv.prm

>  <Rbt.Receptor>
prm/blind_docking_20.prm

>  <SCORE>
-17.9331

>  <SCORE.INTER>
-14.236

>  <SCORE.INTER.CONST>
1

>  <SCORE.INTER.POLAR>
0

>  <SCORE.INTER.ROT>
4

>  <SCORE.INTER.SOLV>
10.593

>  <SCORE.INTER.VDW>
-19.2883

>  <SCORE.INTER.norm>
-0.593166

>  <SCORE.INTRA>
-3.69713

>  <SCORE.INTRA.DIHEDRAL>
-11.1398

>  <SCORE.INTRA.DIHEDRAL.0>
13.2525

>  <SCORE.INTRA.POLAR>
0

>  <SCORE.INTRA.POLAR.0>
0

>  <SCORE.INTRA.REPUL>
0

>  <SCORE.INTRA.REPUL.0>
0

>  <SCORE.INTRA.SOLV>
4.45341

>  <SCORE.INTRA.SOLV.lig_0>
-70.7221

>  <SCORE.INTRA.VDW>
-0.353919

>  <SCORE.INTRA.VDW.0>
-1.46337

>  <SCORE.INTRA.norm>
-0.154047

>  <SCORE.RESTR>
0

>  <SCORE.RESTR.CAVITY>
0

>  <SCORE.RESTR.norm>
0

>  <SCORE.SYSTEM>
0

>  <SCORE.SYSTEM.CONST>
0

>  <SCORE.SYSTEM.DIHEDRAL>
0

>  <SCORE.SYSTEM.SOLV>
0

>  <SCORE.SYSTEM.norm>
0

>  <SCORE.heavy>
24

>  <SCORE.norm>
-0.747213

>  <RMSD>
18.493

$$$$
ligand
 OpenBabel11021811483D
libRbt.so/2013.1/901 2013/11/27
 24 26  0  0  0  0  0  0  0  0999 V2000
   -2.3631    0.0888   -7.6549 P   0  0  1  0  0  0  0  0  0  0  0  0
   -1.6231   -1.2238   -7.5100 O   0  0  0  0  0  0  0  0  0  0  0  0
   -2.1328    1.1118   -6.5676 O   0  5  0  0  0  0  0  0  0  0  0  0
   -2.2917    0.6887   -9.0512 O   0  0  0  0  0  0  0  0  0  0  0  0
   -5.0273    0.5531   -7.6703 C   0  0  0  0  0  0  0  0  0  0  0  0
   -3.9133   -0.3080   -7.3777 O   0  0  0  0  0  0  0  0  0  0  0  0
   -6.3413   -0.1789   -7.3817 C   0  0  1  0  0  0  0  0  0  0  0  0
   -6.5924   -0.2917   -5.9752 O   0  0  0  0  0  0  0  0  0  0  0  0
   -7.5794    0.4776   -7.9682 C   0  0  1  0  0  0  0  0  0  0  0  0
   -7.8130   -0.0581   -9.2741 O   0  0  0  0  0  0  0  0  0  0  0  0
   -8.6795    0.0800   -6.9978 C   0  0  1  0  0  0  0  0  0  0  0  0
   -9.1632   -1.2368   -7.2984 O   0  0  0  0  0  0  0  0  0  0  0  0
   -7.9671   -0.0327   -5.6645 C   0  0  2  0  0  0  0  0  0  0  0  0
  -10.7471    2.8020   -2.4562 N   0  0  0  0  0  0  0  0  0  0  0  0
  -11.0479    1.6189   -3.0386 C   0  0  1  0  0  0  0  0  0  0  0  0
  -12.2399    1.0377   -2.7746 N   0  0  0  0  0  0  0  0  0  0  0  0
  -10.1749    1.0140   -3.8779 N   0  0  0  0  0  0  0  0  0  0  0  0
   -8.9826    1.6015   -4.1389 C   0  0  1  0  0  0  0  0  0  0  0  0
   -8.6500    2.8102   -3.5594 C   0  0  2  0  0  0  0  0  0  0  0  0
   -9.5636    3.4101   -2.7007 C   0  0  0  0  0  0  0  0  0  0  0  0
   -9.3033    4.5014   -2.1565 O   0  0  0  0  0  0  0  0  0  0  0  0
   -7.4218    3.1429   -4.0063 N   0  0  0  0  0  0  0  0  0  0  0  0
   -7.0040    2.1584   -4.8359 C   0  0  0  0  0  0  0  0  0  0  0  0
   -7.9639    1.2305   -4.9032 N   0  0  1  0  0  0  0  0  0  0  0  0
  1  2  1  1  0  0  0
  1  3  1  0  0  0  0
  1  4  2  0  0  0  0
  1  6  1  0  0  0  0
  5  6  1  0  0  0  0
  7  5  1  1  0  0  0
  7  8  1  0  0  0  0
  7  9  1  0  0  0  0
  9 10  1  6  0  0  0
  9 11  1  0  0  0  0
 11 12  1  6  0  0  0
 11 13  1  0  0  0  0
 13  8  1  6  0  0  0
 13 24  1  0  0  0  0
 14 15  1  0  0  0  0
 14 20  1  0  0  0  0
 15 16  1  6  0  0  0
 15 17  1  0  0  0  0
 18 17  1  1  0  0  0
 18 19  1  0  0  0  0
 18 24  1  0  0  0  0
 19 20  1  6  0  0  0
 19 22  1  0  0  0  0
 20 21  2  0  0  0  0
 22 23  1  0  0  0  0
 24 23  1  1  0  0  0
M  CHG  1   3  -1
M  END
>  <CHROM.1>
-166.75744576,74.18342695,175.75802105,-161.08842931,-6.89950771,0.94183498
-5.81309778,-0.60722245,0.16033362,0.88636822

>  <Name>
ligand

>  <RI>
0

>  <Rbt.Current_Directory>
/home/itssahil/PROJECTS/Mol_Feturizer/New_Systems/rnas/3SLQ

>  <Rbt.Executable>
rbdock ($Id: //depot/dev/client3/rdock/2013.1/src/exe/rbdock.cxx#4 $)

>  <Rbt.Library>
libRbt.so (2013.1, Build901 2013/11/27)

>  <Rbt.Parameter_File>
/export/apps/rDock/src/rDock_2013.1_src/data/scripts/dock_solv.prm

>  <Rbt.Receptor>
prm/blind_docking_80.prm

>  <SCORE>
-17.3292

>  <SCORE.INTER>
-11.7636

>  <SCORE.INTER.CONST>
1

>  <SCORE.INTER.POLAR>
0

>  <SCORE.INTER.ROT>
4

>  <SCORE.INTER.SOLV>
17.0258

>  <SCORE.INTER.VDW>
-19.7843

>  <SCORE.INTER.norm>
-0.49015

>  <SCORE.INTRA>
-5.56629

>  <SCORE.INTRA.DIHEDRAL>
-10.973

>  <SCORE.INTRA.DIHEDRAL.0>
13.2525

>  <SCORE.INTRA.POLAR>
0

>  <SCORE.INTRA.POLAR.0>
0

>  <SCORE.INTRA.REPUL>
0

>  <SCORE.INTRA.REPUL.0>
0

>  <SCORE.INTRA.SOLV>
0.401366

>  <SCORE.INTRA.SOLV.lig_0>
-70.7221

>  <SCORE.INTRA.VDW>
-0.280498

>  <SCORE.INTRA.VDW.0>
-1.46337

>  <SCORE.INTRA.norm>
-0.231929

>  <SCORE.RESTR>
0.000696675

>  <SCORE.RESTR.CAVITY>
0.000696675

>  <SCORE.RESTR.norm>
2.90281e-05

>  <SCORE.SYSTEM>
0

>  <SCORE.SYSTEM.CONST>
0

>  <SCORE.SYSTEM.DIHEDRAL>
0

>  <SCORE.SYSTEM.SOLV>
0

>  <SCORE.SYSTEM.norm>
0

>  <SCORE.heavy>
24

>  <SCORE.norm>
-0.72205

>  <RMSD>
18.514

$$$$
ligand
 OpenBabel11021811483D
libRbt.so/2013.1/901 2013/11/27
 24 26  0  0  0  0  0  0  0  0999 V2000
   -7.3028   -0.9996   -9.5743 P   0  0  1  0  0  0  0  0  0  0  0  0
   -8.0085   -0.0885  -10.5559 O   0  0  0  0  0  0  0  0  0  0  0  0
   -8.1200   -2.1375   -9.0093 O   0  5  0  0  0  0  0  0  0  0  0  0
   -5.9165   -1.4373  -10.0228 O   0  0  0  0  0  0  0  0  0  0  0  0
   -8.2016    0.5435   -7.5434 C   0  0  0  0  0  0  0  0  0  0  0  0
   -7.1140   -0.0737   -8.2536 O   0  0  0  0  0  0  0  0  0  0  0  0
   -7.6533    1.4553   -6.4416 C   0  0  1  0  0  0  0  0  0  0  0  0
   -8.6894    2.2288   -5.8233 O   0  0  0  0  0  0  0  0  0  0  0  0
   -6.9487    0.7318   -5.3068 C   0  0  1  0  0  0  0  0  0  0  0  0
   -5.5566    0.6256   -5.6191 O   0  0  0  0  0  0  0  0  0  0  0  0
   -7.1839    1.6414   -4.1121 C   0  0  1  0  0  0  0  0  0  0  0  0
   -6.2297    2.7127   -4.1004 O   0  0  0  0  0  0  0  0  0  0  0  0
   -8.5266    2.2831   -4.4006 C   0  0  2  0  0  0  0  0  0  0  0  0
  -10.1656   -2.4499   -3.4167 N   0  0  0  0  0  0  0  0  0  0  0  0
   -9.0084   -2.0423   -3.9860 C   0  0  1  0  0  0  0  0  0  0  0  0
   -8.1008   -2.9678   -4.3712 N   0  0  0  0  0  0  0  0  0  0  0  0
   -8.7502   -0.7269   -4.1738 N   0  0  0  0  0  0  0  0  0  0  0  0
   -9.6636    0.1953   -3.7863 C   0  0  1  0  0  0  0  0  0  0  0  0
  -10.8542   -0.1926   -3.2040 C   0  0  2  0  0  0  0  0  0  0  0  0
  -11.0948   -1.5494   -3.0216 C   0  0  0  0  0  0  0  0  0  0  0  0
  -12.1568   -1.9428   -2.5000 O   0  0  0  0  0  0  0  0  0  0  0  0
  -11.5518    0.9299   -2.9352 N   0  0  0  0  0  0  0  0  0  0  0  0
  -10.8052    1.9854   -3.3355 C   0  0  0  0  0  0  0  0  0  0  0  0
   -9.6616    1.5204   -3.8484 N   0  0  1  0  0  0  0  0  0  0  0  0
  1  2  1  6  0  0  0
  1  3  1  0  0  0  0
  1  4  2  0  0  0  0
  1  6  1  0  0  0  0
  5  6  1  0  0  0  0
  7  5  1  6  0  0  0
  7  8  1  0  0  0  0
  7  9  1  0  0  0  0
  9 10  1  6  0  0  0
  9 11  1  0  0  0  0
 11 12  1  6  0  0  0
 11 13  1  0  0  0  0
 13  8  1  6  0  0  0
 13 24  1  0  0  0  0
 14 15  1  0  0  0  0
 14 20  1  0  0  0  0
 15 16  1  6  0  0  0
 15 17  1  0  0  0  0
 18 17  1  1  0  0  0
 18 19  1  0  0  0  0
 18 24  1  0  0  0  0
 19 20  1  6  0  0  0
 19 22  1  0  0  0  0
 20 21  2  0  0  0  0
 22 23  1  0  0  0  0
 24 23  1  1  0  0  0
M  CHG  1   3  -1
M  END
>  <CHROM.1>
58.27046786,172.23909362,-174.23298553,80.57874556,-8.49679903,-0.04668177
-5.71859104,0.73615121,-0.86346039,-2.34581500

>  <Name>
ligand

>  <RI>
0

>  <Rbt.Current_Directory>
/home/itssahil/PROJECTS/Mol_Feturizer/New_Systems/rnas/3SLQ

>  <Rbt.Executable>
rbdock ($Id: //depot/dev/client3/rdock/2013.1/src/exe/rbdock.cxx#4 $)

>  <Rbt.Library>
libRbt.so (2013.1, Build901 2013/11/27)

>  <Rbt.Parameter_File>
/export/apps/rDock/src/rDock_2013.1_src/data/scripts/dock_solv.prm

>  <Rbt.Receptor>
prm/blind_docking_100.prm

>  <SCORE>
-18.0558

>  <SCORE.INTER>
-13.413

>  <SCORE.INTER.CONST>
1

>  <SCORE.INTER.POLAR>
0

>  <SCORE.INTER.ROT>
4

>  <SCORE.INTER.SOLV>
11.5047

>  <SCORE.INTER.VDW>
-19.0436

>  <SCORE.INTER.norm>
-0.558876

>  <SCORE.INTRA>
-4.64274

>  <SCORE.INTRA.DIHEDRAL>
-11.6498

>  <SCORE.INTRA.DIHEDRAL.0>
13.2525

>  <SCORE.INTRA.POLAR>
0

>  <SCORE.INTRA.POLAR.0>
0

>  <SCORE.INTRA.REPUL>
0

>  <SCORE.INTRA.REPUL.0>
0

>  <SCORE.INTRA.SOLV>
0.829815

>  <SCORE.INTRA.SOLV.lig_0>
-70.7221

>  <SCORE.INTRA.VDW>
0.767254

>  <SCORE.INTRA.VDW.0>
-1.46337

>  <SCORE.INTRA.norm>
-0.193448

>  <SCORE.RESTR>
0

>  <SCORE.RESTR.CAVITY>
0

>  <SCORE.RESTR.norm>
0

>  <SCORE.SYSTEM>
0

>  <SCORE.SYSTEM.CONST>
0

>  <SCORE.SYSTEM.DIHEDRAL>
0

>  <SCORE.SYSTEM.SOLV>
0

>  <SCORE.SYSTEM.norm>
0

>  <SCORE.heavy>
24

>  <SCORE.norm>
-0.752323

>  <RMSD>
18.518

$$$$
ligand
 OpenBabel11021811483D
libRbt.so/2013.1/901 2013/11/27
 24 26  0  0  0  0  0  0  0  0999 V2000
   -7.3785   -0.9874   -9.6137 P   0  0  1  0  0  0  0  0  0  0  0  0
   -8.0052   -0.0340  -10.6085 O   0  0  0  0  0  0  0  0  0  0  0  0
   -8.2771   -2.0715   -9.0665 O   0  5  0  0  0  0  0  0  0  0  0  0
   -6.0137   -1.5118  -10.0342 O   0  0  0  0  0  0  0  0  0  0  0  0
   -8.2252    0.5736   -7.5740 C   0  0  0  0  0  0  0  0  0  0  0  0
   -7.1587   -0.0750   -8.2884 O   0  0  0  0  0  0  0  0  0  0  0  0
   -7.6475    1.4489   -6.4579 C   0  0  1  0  0  0  0  0  0  0  0  0
   -8.6604    2.2333   -5.8155 O   0  0  0  0  0  0  0  0  0  0  0  0
   -6.9518    0.6854   -5.3439 C   0  0  1  0  0  0  0  0  0  0  0  0
   -5.5649    0.5531   -5.6692 O   0  0  0  0  0  0  0  0  0  0  0  0
   -7.1567    1.5750   -4.1287 C   0  0  1  0  0  0  0  0  0  0  0  0
   -6.1774    2.6231   -4.1022 O   0  0  0  0  0  0  0  0  0  0  0  0
   -8.4859    2.2540   -4.3933 C   0  0  2  0  0  0  0  0  0  0  0  0
  -10.1977   -2.4568   -3.4264 N   0  0  0  0  0  0  0  0  0  0  0  0
   -9.0319   -2.0649   -3.9891 C   0  0  1  0  0  0  0  0  0  0  0  0
   -8.1358   -3.0026   -4.3714 N   0  0  0  0  0  0  0  0  0  0  0  0
   -8.7539   -0.7530   -4.1731 N   0  0  0  0  0  0  0  0  0  0  0  0
   -9.6559    0.1816   -3.7886 C   0  0  1  0  0  0  0  0  0  0  0  0
  -10.8549   -0.1902   -3.2130 C   0  0  2  0  0  0  0  0  0  0  0  0
  -11.1158   -1.5437   -3.0343 C   0  0  0  0  0  0  0  0  0  0  0  0
  -12.1860   -1.9227   -2.5187 O   0  0  0  0  0  0  0  0  0  0  0  0
  -11.5377    0.9417   -2.9456 N   0  0  0  0  0  0  0  0  0  0  0  0
  -10.7739    1.9872   -3.3402 C   0  0  0  0  0  0  0  0  0  0  0  0
   -9.6345    1.5066   -3.8482 N   0  0  1  0  0  0  0  0  0  0  0  0
  1  2  1  6  0  0  0
  1  3  1  0  0  0  0
  1  4  2  0  0  0  0
  1  6  1  0  0  0  0
  5  6  1  0  0  0  0
  7  5  1  6  0  0  0
  7  8  1  0  0  0  0
  7  9  1  0  0  0  0
  9 10  1  6  0  0  0
  9 11  1  0  0  0  0
 11 12  1  6  0  0  0
 11 13  1  0  0  0  0
 13  8  1  6  0  0  0
 13 24  1  0  0  0  0
 14 15  1  0  0  0  0
 14 20  1  0  0  0  0
 15 16  1  6  0  0  0
 15 17  1  0  0  0  0
 18 17  1  1  0  0  0
 18 19  1  0  0  0  0
 18 24  1  0  0  0  0
 19 20  1  6  0  0  0
 19 22  1  0  0  0  0
 20 21  2  0  0  0  0
 22 23  1  0  0  0  0
 24 23  1  1  0  0  0
M  CHG  1   3  -1
M  END
>  <CHROM.1>
60.42037210,173.38658497,-174.87664179,81.99196965,-8.51447373,-0.05767940
-5.73720694,0.76331362,-0.85883050,-2.31216795

>  <Name>
ligand

>  <RI>
0

>  <Rbt.Current_Directory>
/home/itssahil/PROJECTS/Mol_Feturizer/New_Systems/rnas/3SLQ

>  <Rbt.Executable>
rbdock ($Id: //depot/dev/client3/rdock/2013.1/src/exe/rbdock.cxx#4 $)

>  <Rbt.Library>
libRbt.so (2013.1, Build901 2013/11/27)

>  <Rbt.Parameter_File>
/export/apps/rDock/src/rDock_2013.1_src/data/scripts/dock_solv.prm

>  <Rbt.Receptor>
prm/blind_docking_40.prm

>  <SCORE>
-18.0348

>  <SCORE.INTER>
-13.3759

>  <SCORE.INTER.CONST>
1

>  <SCORE.INTER.POLAR>
0

>  <SCORE.INTER.ROT>
4

>  <SCORE.INTER.SOLV>
11.9555

>  <SCORE.INTER.VDW>
-19.1691

>  <SCORE.INTER.norm>
-0.557331

>  <SCORE.INTRA>
-4.65882

>  <SCORE.INTRA.DIHEDRAL>
-11.7458

>  <SCORE.INTRA.DIHEDRAL.0>
13.2525

>  <SCORE.INTRA.POLAR>
0

>  <SCORE.INTRA.POLAR.0>
0

>  <SCORE.INTRA.REPUL>
0

>  <SCORE.INTRA.REPUL.0>
0

>  <SCORE.INTRA.SOLV>
0.844719

>  <SCORE.INTRA.SOLV.lig_0>
-70.7221

>  <SCORE.INTRA.VDW>
0.791728

>  <SCORE.INTRA.VDW.0>
-1.46337

>  <SCORE.INTRA.norm>
-0.194117

>  <SCORE.RESTR>
0

>  <SCORE.RESTR.CAVITY>
0

>  <SCORE.RESTR.norm>
0

>  <SCORE.SYSTEM>
0

>  <SCORE.SYSTEM.CONST>
0

>  <SCORE.SYSTEM.DIHEDRAL>
0

>  <SCORE.SYSTEM.SOLV>
0

>  <SCORE.SYSTEM.norm>
0

>  <SCORE.heavy>
24

>  <SCORE.norm>
-0.751448

>  <RMSD>
18.533

$$$$
ligand
 OpenBabel11021811483D
libRbt.so/2013.1/901 2013/11/27
 24 26  0  0  0  0  0  0  0  0999 V2000
   -4.4287   -3.1610   -8.0968 P   0  0  1  0  0  0  0  0  0  0  0  0
   -4.6588   -3.3443   -9.5817 O   0  0  0  0  0  0  0  0  0  0  0  0
   -5.3757   -3.8940   -7.1761 O   0  5  0  0  0  0  0  0  0  0  0  0
   -2.9736   -3.2988   -7.6743 O   0  0  0  0  0  0  0  0  0  0  0  0
   -6.2001   -1.1188   -8.0251 C   0  0  0  0  0  0  0  0  0  0  0  0
   -4.8677   -1.6215   -7.8241 O   0  0  0  0  0  0  0  0  0  0  0  0
   -6.2680    0.3552   -7.6145 C   0  0  1  0  0  0  0  0  0  0  0  0
   -7.6060    0.8653   -7.6738 O   0  0  0  0  0  0  0  0  0  0  0  0
   -5.7792    0.6483   -6.2063 C   0  0  1  0  0  0  0  0  0  0  0  0
   -4.3804    0.9447   -6.2540 O   0  0  0  0  0  0  0  0  0  0  0  0
   -6.5932    1.8656   -5.7993 C   0  0  1  0  0  0  0  0  0  0  0  0
   -5.9992    3.0639   -6.3184 O   0  0  0  0  0  0  0  0  0  0  0  0
   -7.9028    1.6943   -6.5432 C   0  0  2  0  0  0  0  0  0  0  0  0
  -11.1109    2.0845   -2.5920 N   0  0  0  0  0  0  0  0  0  0  0  0
  -10.2360    2.9925   -3.0813 C   0  0  1  0  0  0  0  0  0  0  0  0
  -10.1469    4.2067   -2.4927 N   0  0  0  0  0  0  0  0  0  0  0  0
   -9.4533    2.7014   -4.1465 N   0  0  0  0  0  0  0  0  0  0  0  0
   -9.5467    1.4833   -4.7315 C   0  0  1  0  0  0  0  0  0  0  0  0
  -10.4302    0.5364   -4.2517 C   0  0  2  0  0  0  0  0  0  0  0  0
  -11.2233    0.8605   -3.1572 C   0  0  0  0  0  0  0  0  0  0  0  0
  -12.0339    0.0350   -2.6922 O   0  0  0  0  0  0  0  0  0  0  0  0
  -10.2953   -0.5624   -5.0220 N   0  0  0  0  0  0  0  0  0  0  0  0
   -9.3561   -0.2963   -5.9595 C   0  0  0  0  0  0  0  0  0  0  0  0
   -8.9138    0.9507   -5.7686 N   0  0  1  0  0  0  0  0  0  0  0  0
  1  2  1  6  0  0  0
  1  3  1  0  0  0  0
  1  4  2  0  0  0  0
  1  6  1  0  0  0  0
  5  6  1  0  0  0  0
  7  5  1  1  0  0  0
  7  8  1  0  0  0  0
  7  9  1  0  0  0  0
  9 10  1  6  0  0  0
  9 11  1  0  0  0  0
 11 12  1  6  0  0  0
 11 13  1  0  0  0  0
 13  8  1  6  0  0  0
 13 24  1  0  0  0  0
 14 15  1  0  0  0  0
 14 20  1  0  0  0  0
 15 16  1  1  0  0  0
 15 17  1  0  0  0  0
 18 17  1  6  0  0  0
 18 19  1  0  0  0  0
 18 24  1  0  0  0  0
 19 20  1  1  0  0  0
 19 22  1  0  0  0  0
 20 21  2  0  0  0  0
 22 23  1  0  0  0  0
 24 23  1  6  0  0  0
M  CHG  1   3  -1
M  END
>  <CHROM.1>
62.76259897,-174.32855783,177.61031904,-171.77756097,-7.44814339,0.07937546
-5.97450295,0.65739038,-0.52703182,-2.92228522

>  <Name>
ligand

>  <RI>
0

>  <Rbt.Current_Directory>
/home/itssahil/PROJECTS/Mol_Feturizer/New_Systems/rnas/3SLQ

>  <Rbt.Executable>
rbdock ($Id: //depot/dev/client3/rdock/2013.1/src/exe/rbdock.cxx#4 $)

>  <Rbt.Library>
libRbt.so (2013.1, Build901 2013/11/27)

>  <Rbt.Parameter_File>
/export/apps/rDock/src/rDock_2013.1_src/data/scripts/dock_solv.prm

>  <Rbt.Receptor>
prm/blind_docking_80.prm

>  <SCORE>
-16.3694

>  <SCORE.INTER>
-10.3566

>  <SCORE.INTER.CONST>
1

>  <SCORE.INTER.POLAR>
0

>  <SCORE.INTER.ROT>
4

>  <SCORE.INTER.SOLV>
15.7949

>  <SCORE.INTER.VDW>
-18.436

>  <SCORE.INTER.norm>
-0.431525

>  <SCORE.INTRA>
-6.01278

>  <SCORE.INTRA.DIHEDRAL>
-11.8869

>  <SCORE.INTRA.DIHEDRAL.0>
13.2525

>  <SCORE.INTRA.POLAR>
0

>  <SCORE.INTRA.POLAR.0>
0

>  <SCORE.INTRA.REPUL>
0

>  <SCORE.INTRA.REPUL.0>
0

>  <SCORE.INTRA.SOLV>
0.193993

>  <SCORE.INTRA.SOLV.lig_0>
-70.7221

>  <SCORE.INTRA.VDW>
-0.166346

>  <SCORE.INTRA.VDW.0>
-1.46337

>  <SCORE.INTRA.norm>
-0.250533

>  <SCORE.RESTR>
0

>  <SCORE.RESTR.CAVITY>
0

>  <SCORE.RESTR.norm>
0

>  <SCORE.SYSTEM>
0

>  <SCORE.SYSTEM.CONST>
0

>  <SCORE.SYSTEM.DIHEDRAL>
0

>  <SCORE.SYSTEM.SOLV>
0

>  <SCORE.SYSTEM.norm>
0

>  <SCORE.heavy>
24

>  <SCORE.norm>
-0.682057

>  <RMSD>
18.537

$$$$
ligand
 OpenBabel11021811483D
libRbt.so/2013.1/901 2013/11/27
 24 26  0  0  0  0  0  0  0  0999 V2000
   -6.4399    0.4160   -9.1384 P   0  0  1  0  0  0  0  0  0  0  0  0
   -7.1072    1.7604   -9.3358 O   0  0  0  0  0  0  0  0  0  0  0  0
   -6.4286   -0.5086  -10.3330 O   0  5  0  0  0  0  0  0  0  0  0  0
   -5.0902    0.4914   -8.4406 O   0  0  0  0  0  0  0  0  0  0  0  0
   -8.5328    0.2492   -7.4338 C   0  0  0  0  0  0  0  0  0  0  0  0
   -7.4529   -0.3773   -8.1476 O   0  0  0  0  0  0  0  0  0  0  0  0
   -7.9749    1.2642   -6.4316 C   0  0  1  0  0  0  0  0  0  0  0  0
   -9.0091    2.0768   -5.8623 O   0  0  0  0  0  0  0  0  0  0  0  0
   -7.2353    0.6558   -5.2524 C   0  0  1  0  0  0  0  0  0  0  0  0
   -5.8487    0.5400   -5.5853 O   0  0  0  0  0  0  0  0  0  0  0  0
   -7.4587    1.6668   -4.1396 C   0  0  1  0  0  0  0  0  0  0  0  0
   -6.5207    2.7471   -4.2463 O   0  0  0  0  0  0  0  0  0  0  0  0
   -8.8167    2.2621   -4.4544 C   0  0  2  0  0  0  0  0  0  0  0  0
  -10.6252   -2.4146   -3.4981 N   0  0  0  0  0  0  0  0  0  0  0  0
   -9.5158   -2.0447   -4.1776 C   0  0  1  0  0  0  0  0  0  0  0  0
   -8.7158   -2.9993   -4.7043 N   0  0  0  0  0  0  0  0  0  0  0  0
   -9.1993   -0.7382   -4.3357 N   0  0  0  0  0  0  0  0  0  0  0  0
  -10.0050    0.2133   -3.8063 C   0  0  1  0  0  0  0  0  0  0  0  0
  -11.1449   -0.1357   -3.1092 C   0  0  2  0  0  0  0  0  0  0  0  0
  -11.4470   -1.4842   -2.9602 C   0  0  0  0  0  0  0  0  0  0  0  0
  -12.4665   -1.8428   -2.3382 O   0  0  0  0  0  0  0  0  0  0  0  0
  -11.7374    1.0094   -2.7133 N   0  0  0  0  0  0  0  0  0  0  0  0
  -10.9762    2.0400   -3.1497 C   0  0  0  0  0  0  0  0  0  0  0  0
   -9.9280    1.5376   -3.8099 N   0  0  1  0  0  0  0  0  0  0  0  0
  1  2  1  6  0  0  0
  1  3  1  0  0  0  0
  1  4  2  0  0  0  0
  1  6  1  0  0  0  0
  5  6  1  0  0  0  0
  7  5  1  6  0  0  0
  7  8  1  0  0  0  0
  7  9  1  0  0  0  0
  9 10  1  6  0  0  0
  9 11  1  0  0  0  0
 11 12  1  6  0  0  0
 11 13  1  0  0  0  0
 13  8  1  6  0  0  0
 13 24  1  0  0  0  0
 14 15  1  0  0  0  0
 14 20  1  0  0  0  0
 15 16  1  6  0  0  0
 15 17  1  0  0  0  0
 18 17  1  1  0  0  0
 18 19  1  0  0  0  0
 18 24  1  0  0  0  0
 19 20  1  6  0  0  0
 19 22  1  0  0  0  0
 20 21  2  0  0  0  0
 22 23  1  0  0  0  0
 24 23  1  1  0  0  0
M  CHG  1   3  -1
M  END
>  <CHROM.1>
-12.57523940,169.96607545,-64.03543966,70.21010570,-8.52764530,0.29076695
-5.61304793,0.27082368,-0.86531393,-2.60186098

>  <Name>
ligand

>  <RI>
0

>  <Rbt.Current_Directory>
/home/itssahil/PROJECTS/Mol_Feturizer/New_Systems/rnas/3SLQ

>  <Rbt.Executable>
rbdock ($Id: //depot/dev/client3/rdock/2013.1/src/exe/rbdock.cxx#4 $)

>  <Rbt.Library>
libRbt.so (2013.1, Build901 2013/11/27)

>  <Rbt.Parameter_File>
/export/apps/rDock/src/rDock_2013.1_src/data/scripts/dock_solv.prm

>  <Rbt.Receptor>
prm/blind_docking_20.prm

>  <SCORE>
-17.8126

>  <SCORE.INTER>
-15.2079

>  <SCORE.INTER.CONST>
1

>  <SCORE.INTER.POLAR>
0

>  <SCORE.INTER.ROT>
4

>  <SCORE.INTER.SOLV>
11.2939

>  <SCORE.INTER.VDW>
-20.1699

>  <SCORE.INTER.norm>
-0.633664

>  <SCORE.INTRA>
-2.60466

>  <SCORE.INTRA.DIHEDRAL>
-9.45346

>  <SCORE.INTRA.DIHEDRAL.0>
13.2525

>  <SCORE.INTRA.POLAR>
0

>  <SCORE.INTRA.POLAR.0>
0

>  <SCORE.INTRA.REPUL>
0

>  <SCORE.INTRA.REPUL.0>
0

>  <SCORE.INTRA.SOLV>
3.85106

>  <SCORE.INTRA.SOLV.lig_0>
-70.7221

>  <SCORE.INTRA.VDW>
0.196543

>  <SCORE.INTRA.VDW.0>
-1.46337

>  <SCORE.INTRA.norm>
-0.108527

>  <SCORE.RESTR>
0

>  <SCORE.RESTR.CAVITY>
0

>  <SCORE.RESTR.norm>
0

>  <SCORE.SYSTEM>
0

>  <SCORE.SYSTEM.CONST>
0

>  <SCORE.SYSTEM.DIHEDRAL>
0

>  <SCORE.SYSTEM.SOLV>
0

>  <SCORE.SYSTEM.norm>
0

>  <SCORE.heavy>
24

>  <SCORE.norm>
-0.742192

>  <RMSD>
18.551

$$$$
ligand
 OpenBabel11021811483D
libRbt.so/2013.1/901 2013/11/27
 24 26  0  0  0  0  0  0  0  0999 V2000
   -6.4222    0.4203   -9.1428 P   0  0  1  0  0  0  0  0  0  0  0  0
   -7.0990    1.7607   -9.3341 O   0  0  0  0  0  0  0  0  0  0  0  0
   -6.3941   -0.4941  -10.3449 O   0  5  0  0  0  0  0  0  0  0  0  0
   -5.0784    0.5009   -8.4340 O   0  0  0  0  0  0  0  0  0  0  0  0
   -8.5193    0.2242   -7.4466 C   0  0  0  0  0  0  0  0  0  0  0  0
   -7.4361   -0.3896   -8.1665 O   0  0  0  0  0  0  0  0  0  0  0  0
   -7.9677    1.2424   -6.4442 C   0  0  1  0  0  0  0  0  0  0  0  0
   -9.0056    2.0557   -5.8827 O   0  0  0  0  0  0  0  0  0  0  0  0
   -7.2339    0.6379   -5.2594 C   0  0  1  0  0  0  0  0  0  0  0  0
   -5.8454    0.5224   -5.5846 O   0  0  0  0  0  0  0  0  0  0  0  0
   -7.4640    1.6517   -4.1506 C   0  0  1  0  0  0  0  0  0  0  0  0
   -6.5264    2.7325   -4.2553 O   0  0  0  0  0  0  0  0  0  0  0  0
   -8.8209    2.2449   -4.4743 C   0  0  2  0  0  0  0  0  0  0  0  0
  -10.6170   -2.4312   -3.4920 N   0  0  0  0  0  0  0  0  0  0  0  0
   -9.5028   -2.0624   -4.1642 C   0  0  1  0  0  0  0  0  0  0  0  0
   -8.6935   -3.0180   -4.6744 N   0  0  0  0  0  0  0  0  0  0  0  0
   -9.1909   -0.7559   -4.3314 N   0  0  0  0  0  0  0  0  0  0  0  0
  -10.0059    0.1967   -3.8186 C   0  0  1  0  0  0  0  0  0  0  0  0
  -11.1509   -0.1512   -3.1292 C   0  0  2  0  0  0  0  0  0  0  0  0
  -11.4482   -1.4997   -2.9705 C   0  0  0  0  0  0  0  0  0  0  0  0
  -12.4719   -1.8573   -2.3551 O   0  0  0  0  0  0  0  0  0  0  0  0
  -11.7524    0.9947   -2.7496 N   0  0  0  0  0  0  0  0  0  0  0  0
  -10.9918    2.0248   -3.1883 C   0  0  0  0  0  0  0  0  0  0  0  0
   -9.9350    1.5213   -3.8338 N   0  0  1  0  0  0  0  0  0  0  0  0
  1  2  1  6  0  0  0
  1  3  1  0  0  0  0
  1  4  2  0  0  0  0
  1  6  1  0  0  0  0
  5  6  1  0  0  0  0
  7  5  1  6  0  0  0
  7  8  1  0  0  0  0
  7  9  1  0  0  0  0
  9 10  1  6  0  0  0
  9 11  1  0  0  0  0
 11 12  1  6  0  0  0
 11 13  1  0  0  0  0
 13  8  1  6  0  0  0
 13 24  1  0  0  0  0
 14 15  1  0  0  0  0
 14 20  1  0  0  0  0
 15 16  1  6  0  0  0
 15 17  1  0  0  0  0
 18 17  1  1  0  0  0
 18 19  1  0  0  0  0
 18 24  1  0  0  0  0
 19 20  1  6  0  0  0
 19 22  1  0  0  0  0
 20 21  2  0  0  0  0
 22 23  1  0  0  0  0
 24 23  1  1  0  0  0
M  CHG  1   3  -1
M  END
>  <CHROM.1>
-13.14297897,169.14692538,-63.11546527,70.70445460,-8.52226793,0.27896469
-5.62192445,0.25524991,-0.86643094,-2.61682909

>  <Name>
ligand

>  <RI>
0

>  <Rbt.Current_Directory>
/home/itssahil/PROJECTS/Mol_Feturizer/New_Systems/rnas/3SLQ

>  <Rbt.Executable>
rbdock ($Id: //depot/dev/client3/rdock/2013.1/src/exe/rbdock.cxx#4 $)

>  <Rbt.Library>
libRbt.so (2013.1, Build901 2013/11/27)

>  <Rbt.Parameter_File>
/export/apps/rDock/src/rDock_2013.1_src/data/scripts/dock_solv.prm

>  <Rbt.Receptor>
prm/blind_docking_20.prm

>  <SCORE>
-17.8572

>  <SCORE.INTER>
-15.2842

>  <SCORE.INTER.CONST>
1

>  <SCORE.INTER.POLAR>
0

>  <SCORE.INTER.ROT>
4

>  <SCORE.INTER.SOLV>
11.3394

>  <SCORE.INTER.VDW>
-20.2359

>  <SCORE.INTER.norm>
-0.63684

>  <SCORE.INTRA>
-2.57304

>  <SCORE.INTRA.DIHEDRAL>
-9.44844

>  <SCORE.INTRA.DIHEDRAL.0>
13.2525

>  <SCORE.INTRA.POLAR>
0

>  <SCORE.INTRA.POLAR.0>
0

>  <SCORE.INTRA.REPUL>
0

>  <SCORE.INTRA.REPUL.0>
0

>  <SCORE.INTRA.SOLV>
3.84871

>  <SCORE.INTRA.SOLV.lig_0>
-70.7221

>  <SCORE.INTRA.VDW>
0.226829

>  <SCORE.INTRA.VDW.0>
-1.46337

>  <SCORE.INTRA.norm>
-0.10721

>  <SCORE.RESTR>
0

>  <SCORE.RESTR.CAVITY>
0

>  <SCORE.RESTR.norm>
0

>  <SCORE.SYSTEM>
0

>  <SCORE.SYSTEM.CONST>
0

>  <SCORE.SYSTEM.DIHEDRAL>
0

>  <SCORE.SYSTEM.SOLV>
0

>  <SCORE.SYSTEM.norm>
0

>  <SCORE.heavy>
24

>  <SCORE.norm>
-0.74405

>  <RMSD>
18.557

$$$$
ligand
 OpenBabel11021811483D
libRbt.so/2013.1/901 2013/11/27
 24 26  0  0  0  0  0  0  0  0999 V2000
  -13.7894    0.0810   -2.5685 P   0  0  1  0  0  0  0  0  0  0  0  0
  -14.5297    1.4002   -2.5127 O   0  0  0  0  0  0  0  0  0  0  0  0
  -13.5453   -0.6072   -1.2461 O   0  5  0  0  0  0  0  0  0  0  0  0
  -14.2995   -0.8701   -3.6408 O   0  0  0  0  0  0  0  0  0  0  0  0
  -11.2416   -0.4384   -3.3118 C   0  0  0  0  0  0  0  0  0  0  0  0
  -12.2756    0.5034   -2.9772 O   0  0  0  0  0  0  0  0  0  0  0  0
   -9.9812    0.3086   -3.7581 C   0  0  1  0  0  0  0  0  0  0  0  0
   -8.9414   -0.5914   -4.1618 O   0  0  0  0  0  0  0  0  0  0  0  0
  -10.1819    1.2553   -4.9292 C   0  0  1  0  0  0  0  0  0  0  0  0
  -10.5158    2.5517   -4.4246 O   0  0  0  0  0  0  0  0  0  0  0  0
   -8.8254    1.2566   -5.6148 C   0  0  1  0  0  0  0  0  0  0  0  0
   -7.9308    2.1652   -4.9573 O   0  0  0  0  0  0  0  0  0  0  0  0
   -8.2796   -0.1319   -5.3469 C   0  0  2  0  0  0  0  0  0  0  0  0
   -7.5443   -1.2796  -10.2661 N   0  0  0  0  0  0  0  0  0  0  0  0
   -7.0657   -0.2399   -9.5455 C   0  0  1  0  0  0  0  0  0  0  0  0
   -6.2626    0.6661  -10.1479 N   0  0  0  0  0  0  0  0  0  0  0  0
   -7.3797   -0.0966   -8.2367 N   0  0  0  0  0  0  0  0  0  0  0  0
   -8.1851   -1.0071   -7.6391 C   0  0  1  0  0  0  0  0  0  0  0  0
   -8.6894   -2.0776   -8.3511 C   0  0  2  0  0  0  0  0  0  0  0  0
   -8.3511   -2.2025   -9.6935 C   0  0  0  0  0  0  0  0  0  0  0  0
   -8.7847   -3.1538  -10.3730 O   0  0  0  0  0  0  0  0  0  0  0  0
   -9.4516   -2.7980   -7.5032 N   0  0  0  0  0  0  0  0  0  0  0  0
   -9.4118   -2.1898   -6.2947 C   0  0  0  0  0  0  0  0  0  0  0  0
   -8.6370   -1.1051   -6.3958 N   0  0  1  0  0  0  0  0  0  0  0  0
  1  2  1  1  0  0  0
  1  3  1  0  0  0  0
  1  4  2  0  0  0  0
  1  6  1  0  0  0  0
  5  6  1  0  0  0  0
  7  5  1  6  0  0  0
  7  8  1  0  0  0  0
  7  9  1  0  0  0  0
  9 10  1  1  0  0  0
  9 11  1  0  0  0  0
 11 12  1  1  0  0  0
 11 13  1  0  0  0  0
 13  8  1  1  0  0  0
 13 24  1  0  0  0  0
 14 15  1  0  0  0  0
 14 20  1  0  0  0  0
 15 16  1  6  0  0  0
 15 17  1  0  0  0  0
 18 17  1  1  0  0  0
 18 19  1  0  0  0  0
 18 24  1  0  0  0  0
 19 20  1  6  0  0  0
 19 22  1  0  0  0  0
 20 21  2  0  0  0  0
 22 23  1  0  0  0  0
 24 23  1  1  0  0  0
M  CHG  1   3  -1
M  END
>  <CHROM.1>
-172.00142929,-177.29906931,175.25596539,-179.17696857,-10.06338250,-0.29161753
-5.70226788,2.44524918,0.59708132,0.75615037

>  <Name>
ligand

>  <RI>
0

>  <Rbt.Current_Directory>
/home/itssahil/PROJECTS/Mol_Feturizer/New_Systems/rnas/3SLQ

>  <Rbt.Executable>
rbdock ($Id: //depot/dev/client3/rdock/2013.1/src/exe/rbdock.cxx#4 $)

>  <Rbt.Library>
libRbt.so (2013.1, Build901 2013/11/27)

>  <Rbt.Parameter_File>
/export/apps/rDock/src/rDock_2013.1_src/data/scripts/dock_solv.prm

>  <Rbt.Receptor>
prm/blind_docking_20.prm

>  <SCORE>
-17.9415

>  <SCORE.INTER>
-12.1456

>  <SCORE.INTER.CONST>
1

>  <SCORE.INTER.POLAR>
0

>  <SCORE.INTER.ROT>
4

>  <SCORE.INTER.SOLV>
19.0037

>  <SCORE.INTER.VDW>
-20.6983

>  <SCORE.INTER.norm>
-0.506068

>  <SCORE.INTRA>
-5.79586

>  <SCORE.INTRA.DIHEDRAL>
-11.8087

>  <SCORE.INTRA.DIHEDRAL.0>
13.2525

>  <SCORE.INTRA.POLAR>
0

>  <SCORE.INTRA.POLAR.0>
0

>  <SCORE.INTRA.REPUL>
0

>  <SCORE.INTRA.REPUL.0>
0

>  <SCORE.INTRA.SOLV>
0.653338

>  <SCORE.INTRA.SOLV.lig_0>
-70.7221

>  <SCORE.INTRA.VDW>
-0.218164

>  <SCORE.INTRA.VDW.0>
-1.46337

>  <SCORE.INTRA.norm>
-0.241494

>  <SCORE.RESTR>
0

>  <SCORE.RESTR.CAVITY>
0

>  <SCORE.RESTR.norm>
0

>  <SCORE.SYSTEM>
0

>  <SCORE.SYSTEM.CONST>
0

>  <SCORE.SYSTEM.DIHEDRAL>
0

>  <SCORE.SYSTEM.SOLV>
0

>  <SCORE.SYSTEM.norm>
0

>  <SCORE.heavy>
24

>  <SCORE.norm>
-0.747562

>  <RMSD>
18.572

$$$$
ligand
 OpenBabel11021811483D
libRbt.so/2013.1/901 2013/11/27
 24 26  0  0  0  0  0  0  0  0999 V2000
  -13.7450    0.0715   -2.5453 P   0  0  1  0  0  0  0  0  0  0  0  0
  -14.4238    1.4009   -2.2932 O   0  0  0  0  0  0  0  0  0  0  0  0
  -13.4967   -0.7949   -1.3332 O   0  5  0  0  0  0  0  0  0  0  0  0
  -14.3257   -0.7076   -3.7160 O   0  0  0  0  0  0  0  0  0  0  0  0
  -11.2079   -0.4650   -3.3127 C   0  0  0  0  0  0  0  0  0  0  0  0
  -12.2253    0.4823   -2.9440 O   0  0  0  0  0  0  0  0  0  0  0  0
   -9.9449    0.2758   -3.7619 C   0  0  1  0  0  0  0  0  0  0  0  0
   -8.9168   -0.6287   -4.1848 O   0  0  0  0  0  0  0  0  0  0  0  0
  -10.1474    1.2374   -4.9204 C   0  0  1  0  0  0  0  0  0  0  0  0
  -10.4652    2.5309   -4.3984 O   0  0  0  0  0  0  0  0  0  0  0  0
   -8.7970    1.2344   -5.6181 C   0  0  1  0  0  0  0  0  0  0  0  0
   -7.8885    2.1275   -4.9584 O   0  0  0  0  0  0  0  0  0  0  0  0
   -8.2614   -0.1619   -5.3705 C   0  0  2  0  0  0  0  0  0  0  0  0
   -7.5881   -1.2546  -10.3111 N   0  0  0  0  0  0  0  0  0  0  0  0
   -7.0947   -0.2268   -9.5834 C   0  0  1  0  0  0  0  0  0  0  0  0
   -6.2924    0.6812  -10.1837 N   0  0  0  0  0  0  0  0  0  0  0  0
   -7.3933   -0.0973   -8.2696 N   0  0  0  0  0  0  0  0  0  0  0  0
   -8.1980   -1.0098   -7.6741 C   0  0  1  0  0  0  0  0  0  0  0  0
   -8.7171   -2.0683   -8.3933 C   0  0  2  0  0  0  0  0  0  0  0  0
   -8.3946   -2.1791   -9.7408 C   0  0  0  0  0  0  0  0  0  0  0  0
   -8.8419   -3.1193  -10.4268 O   0  0  0  0  0  0  0  0  0  0  0  0
   -9.4746   -2.7940   -7.5456 N   0  0  0  0  0  0  0  0  0  0  0  0
   -9.4175   -2.2008   -6.3304 C   0  0  0  0  0  0  0  0  0  0  0  0
   -8.6368   -1.1200   -6.4270 N   0  0  1  0  0  0  0  0  0  0  0  0
  1  2  1  1  0  0  0
  1  3  1  0  0  0  0
  1  4  2  0  0  0  0
  1  6  1  0  0  0  0
  5  6  1  0  0  0  0
  7  5  1  6  0  0  0
  7  8  1  0  0  0  0
  7  9  1  0  0  0  0
  9 10  1  1  0  0  0
  9 11  1  0  0  0  0
 11 12  1  1  0  0  0
 11 13  1  0  0  0  0
 13  8  1  1  0  0  0
 13 24  1  0  0  0  0
 14 15  1  0  0  0  0
 14 20  1  0  0  0  0
 15 16  1  6  0  0  0
 15 17  1  0  0  0  0
 18 17  1  1  0  0  0
 18 19  1  0  0  0  0
 18 24  1  0  0  0  0
 19 20  1  6  0  0  0
 19 22  1  0  0  0  0
 20 21  2  0  0  0  0
 22 23  1  0  0  0  0
 24 23  1  1  0  0  0
M  CHG  1   3  -1
M  END
>  <CHROM.1>
-178.05982320,-177.94670593,174.22454029,-179.37239718,-10.05146529,-0.29987859
-5.71341451,2.42945550,0.59723896,0.77656107

>  <Name>
ligand

>  <RI>
0

>  <Rbt.Current_Directory>
/home/itssahil/PROJECTS/Mol_Feturizer/New_Systems/rnas/3SLQ

>  <Rbt.Executable>
rbdock ($Id: //depot/dev/client3/rdock/2013.1/src/exe/rbdock.cxx#4 $)

>  <Rbt.Library>
libRbt.so (2013.1, Build901 2013/11/27)

>  <Rbt.Parameter_File>
/export/apps/rDock/src/rDock_2013.1_src/data/scripts/dock_solv.prm

>  <Rbt.Receptor>
prm/blind_docking_80.prm

>  <SCORE>
-17.9922

>  <SCORE.INTER>
-12.2041

>  <SCORE.INTER.CONST>
1

>  <SCORE.INTER.POLAR>
0

>  <SCORE.INTER.ROT>
4

>  <SCORE.INTER.SOLV>
19.4514

>  <SCORE.INTER.VDW>
-20.8866

>  <SCORE.INTER.norm>
-0.508506

>  <SCORE.INTRA>
-5.78809

>  <SCORE.INTRA.DIHEDRAL>
-11.8659

>  <SCORE.INTRA.DIHEDRAL.0>
13.2525

>  <SCORE.INTRA.POLAR>
0

>  <SCORE.INTRA.POLAR.0>
0

>  <SCORE.INTRA.REPUL>
0

>  <SCORE.INTRA.REPUL.0>
0

>  <SCORE.INTRA.SOLV>
0.664829

>  <SCORE.INTRA.SOLV.lig_0>
-70.7221

>  <SCORE.INTRA.VDW>
-0.18758

>  <SCORE.INTRA.VDW.0>
-1.46337

>  <SCORE.INTRA.norm>
-0.24117

>  <SCORE.RESTR>
0

>  <SCORE.RESTR.CAVITY>
0

>  <SCORE.RESTR.norm>
0

>  <SCORE.SYSTEM>
0

>  <SCORE.SYSTEM.CONST>
0

>  <SCORE.SYSTEM.DIHEDRAL>
0

>  <SCORE.SYSTEM.SOLV>
0

>  <SCORE.SYSTEM.norm>
0

>  <SCORE.heavy>
24

>  <SCORE.norm>
-0.749677

>  <RMSD>
18.578

$$$$
ligand
 OpenBabel11021811483D
libRbt.so/2013.1/901 2013/11/27
 24 26  0  0  0  0  0  0  0  0999 V2000
   -6.1208   -4.6536   -5.9610 P   0  0  1  0  0  0  0  0  0  0  0  0
   -4.8562   -4.3635   -5.1811 O   0  0  0  0  0  0  0  0  0  0  0  0
   -6.0781   -5.8454   -6.8881 O   0  5  0  0  0  0  0  0  0  0  0  0
   -7.3896   -4.6060   -5.1228 O   0  0  0  0  0  0  0  0  0  0  0  0
   -5.1151   -3.0437   -7.8873 C   0  0  0  0  0  0  0  0  0  0  0  0
   -6.2030   -3.4359   -7.0323 O   0  0  0  0  0  0  0  0  0  0  0  0
   -5.5407   -1.8609   -8.7622 C   0  0  1  0  0  0  0  0  0  0  0  0
   -6.3371   -0.9173   -8.0346 O   0  0  0  0  0  0  0  0  0  0  0  0
   -4.3935   -1.0597   -9.3537 C   0  0  1  0  0  0  0  0  0  0  0  0
   -4.0545   -1.6094  -10.6302 O   0  0  0  0  0  0  0  0  0  0  0  0
   -4.9744    0.3387   -9.4856 C   0  0  1  0  0  0  0  0  0  0  0  0
   -5.7495    0.4495  -10.6878 O   0  0  0  0  0  0  0  0  0  0  0  0
   -5.9648    0.4320   -8.3419 C   0  0  2  0  0  0  0  0  0  0  0  0
   -7.1191    2.4646   -3.8040 N   0  0  0  0  0  0  0  0  0  0  0  0
   -7.9412    2.0697   -4.8027 C   0  0  1  0  0  0  0  0  0  0  0  0
   -9.2783    2.1955   -4.6453 N   0  0  0  0  0  0  0  0  0  0  0  0
   -7.4439    1.5536   -5.9510 N   0  0  0  0  0  0  0  0  0  0  0  0
   -6.1035    1.4307   -6.1030 C   0  0  1  0  0  0  0  0  0  0  0  0
   -5.2407    1.8274   -5.1003 C   0  0  2  0  0  0  0  0  0  0  0  0
   -5.7767    2.3534   -3.9307 C   0  0  0  0  0  0  0  0  0  0  0  0
   -5.0334    2.7239   -3.0006 O   0  0  0  0  0  0  0  0  0  0  0  0
   -3.9863    1.5920   -5.5363 N   0  0  0  0  0  0  0  0  0  0  0  0
   -4.0743    1.0556   -6.7759 C   0  0  0  0  0  0  0  0  0  0  0  0
   -5.3673    0.9638   -7.1028 N   0  0  1  0  0  0  0  0  0  0  0  0
  1  2  1  1  0  0  0
  1  3  1  0  0  0  0
  1  4  2  0  0  0  0
  1  6  1  0  0  0  0
  5  6  1  0  0  0  0
  7  5  1  1  0  0  0
  7  8  1  0  0  0  0
  7  9  1  0  0  0  0
  9 10  1  6  0  0  0
  9 11  1  0  0  0  0
 11 12  1  6  0  0  0
 11 13  1  0  0  0  0
 13  8  1  1  0  0  0
 13 24  1  0  0  0  0
 14 15  1  0  0  0  0
 14 20  1  0  0  0  0
 15 16  1  6  0  0  0
 15 17  1  0  0  0  0
 18 17  1  1  0  0  0
 18 19  1  0  0  0  0
 18 24  1  0  0  0  0
 19 20  1  6  0  0  0
 19 22  1  0  0  0  0
 20 21  2  0  0  0  0
 22 23  1  0  0  0  0
 24 23  1  1  0  0  0
M  CHG  1   3  -1
M  END
>  <CHROM.1>
50.63346676,39.90084648,-179.79333550,-81.80967081,-5.85421368,-0.75658512
-6.66741225,1.28091855,-1.24645518,-3.05812118

>  <Name>
ligand

>  <RI>
0

>  <Rbt.Current_Directory>
/home/itssahil/PROJECTS/Mol_Feturizer/New_Systems/rnas/3SLQ

>  <Rbt.Executable>
rbdock ($Id: //depot/dev/client3/rdock/2013.1/src/exe/rbdock.cxx#4 $)

>  <Rbt.Library>
libRbt.so (2013.1, Build901 2013/11/27)

>  <Rbt.Parameter_File>
/export/apps/rDock/src/rDock_2013.1_src/data/scripts/dock_solv.prm

>  <Rbt.Receptor>
prm/blind_docking_20.prm

>  <SCORE>
-16.8289

>  <SCORE.INTER>
-11.4565

>  <SCORE.INTER.CONST>
1

>  <SCORE.INTER.POLAR>
0

>  <SCORE.INTER.ROT>
4

>  <SCORE.INTER.SOLV>
17.3478

>  <SCORE.INTER.VDW>
-19.687

>  <SCORE.INTER.norm>
-0.477356

>  <SCORE.INTRA>
-5.38212

>  <SCORE.INTRA.DIHEDRAL>
-10.5963

>  <SCORE.INTRA.DIHEDRAL.0>
13.2525

>  <SCORE.INTRA.POLAR>
0

>  <SCORE.INTRA.POLAR.0>
0

>  <SCORE.INTRA.REPUL>
0

>  <SCORE.INTRA.REPUL.0>
0

>  <SCORE.INTRA.SOLV>
-0.0242016

>  <SCORE.INTRA.SOLV.lig_0>
-70.7221

>  <SCORE.INTRA.VDW>
-0.0718799

>  <SCORE.INTRA.VDW.0>
-1.46337

>  <SCORE.INTRA.norm>
-0.224255

>  <SCORE.RESTR>
0.00980559

>  <SCORE.RESTR.CAVITY>
0.00980559

>  <SCORE.RESTR.norm>
0.000408566

>  <SCORE.SYSTEM>
0

>  <SCORE.SYSTEM.CONST>
0

>  <SCORE.SYSTEM.DIHEDRAL>
0

>  <SCORE.SYSTEM.SOLV>
0

>  <SCORE.SYSTEM.norm>
0

>  <SCORE.heavy>
24

>  <SCORE.norm>
-0.701202

>  <RMSD>
18.582

$$$$
ligand
 OpenBabel11021811483D
libRbt.so/2013.1/901 2013/11/27
 24 26  0  0  0  0  0  0  0  0999 V2000
  -13.7475    0.1029   -2.5459 P   0  0  1  0  0  0  0  0  0  0  0  0
  -14.4504    1.4236   -2.3152 O   0  0  0  0  0  0  0  0  0  0  0  0
  -13.4682   -0.7314   -1.3180 O   0  5  0  0  0  0  0  0  0  0  0  0
  -14.3249   -0.7135   -3.6925 O   0  0  0  0  0  0  0  0  0  0  0  0
  -11.1992   -0.4005   -3.2985 C   0  0  0  0  0  0  0  0  0  0  0  0
  -12.2409    0.5352   -2.9708 O   0  0  0  0  0  0  0  0  0  0  0  0
   -9.9538    0.3526   -3.7755 C   0  0  1  0  0  0  0  0  0  0  0  0
   -8.9109   -0.5426   -4.1817 O   0  0  0  0  0  0  0  0  0  0  0  0
  -10.1823    1.2793   -4.9573 C   0  0  1  0  0  0  0  0  0  0  0  0
  -10.5221    2.5797   -4.4671 O   0  0  0  0  0  0  0  0  0  0  0  0
   -8.8366    1.2842   -5.6638 C   0  0  1  0  0  0  0  0  0  0  0  0
   -7.9416    2.2118   -5.0339 O   0  0  0  0  0  0  0  0  0  0  0  0
   -8.2722   -0.0944   -5.3836 C   0  0  2  0  0  0  0  0  0  0  0  0
   -7.5746   -1.3265  -10.2879 N   0  0  0  0  0  0  0  0  0  0  0  0
   -7.0932   -0.2728   -9.5898 C   0  0  1  0  0  0  0  0  0  0  0  0
   -6.2980    0.6248  -10.2148 N   0  0  0  0  0  0  0  0  0  0  0  0
   -7.3967   -0.1073   -8.2811 N   0  0  0  0  0  0  0  0  0  0  0  0
   -8.1943   -1.0095   -7.6608 C   0  0  1  0  0  0  0  0  0  0  0  0
   -8.7012   -2.0939   -8.3496 C   0  0  2  0  0  0  0  0  0  0  0  0
   -8.3738   -2.2414   -9.6924 C   0  0  0  0  0  0  0  0  0  0  0  0
   -8.8101   -3.2058  -10.3514 O   0  0  0  0  0  0  0  0  0  0  0  0
   -9.4540   -2.8014   -7.4827 N   0  0  0  0  0  0  0  0  0  0  0  0
   -9.4060   -2.1719   -6.2855 C   0  0  0  0  0  0  0  0  0  0  0  0
   -8.6354   -1.0869   -6.4122 N   0  0  1  0  0  0  0  0  0  0  0  0
  1  2  1  1  0  0  0
  1  3  1  0  0  0  0
  1  4  2  0  0  0  0
  1  6  1  0  0  0  0
  5  6  1  0  0  0  0
  7  5  1  6  0  0  0
  7  8  1  0  0  0  0
  7  9  1  0  0  0  0
  9 10  1  1  0  0  0
  9 11  1  0  0  0  0
 11 12  1  1  0  0  0
 11 13  1  0  0  0  0
 13  8  1  1  0  0  0
 13 24  1  0  0  0  0
 14 15  1  0  0  0  0
 14 20  1  0  0  0  0
 15 16  1  6  0  0  0
 15 17  1  0  0  0  0
 18 17  1  1  0  0  0
 18 19  1  0  0  0  0
 18 24  1  0  0  0  0
 19 20  1  6  0  0  0
 19 22  1  0  0  0  0
 20 21  2  0  0  0  0
 22 23  1  0  0  0  0
 24 23  1  1  0  0  0
M  CHG  1   3  -1
M  END
>  <CHROM.1>
-179.65300350,-176.90630494,174.77535646,-178.57475400,-10.05578170,-0.28194548
-5.71316290,2.44272130,0.61005628,0.74324535

>  <Name>
ligand

>  <RI>
0

>  <Rbt.Current_Directory>
/home/itssahil/PROJECTS/Mol_Feturizer/New_Systems/rnas/3SLQ

>  <Rbt.Executable>
rbdock ($Id: //depot/dev/client3/rdock/2013.1/src/exe/rbdock.cxx#4 $)

>  <Rbt.Library>
libRbt.so (2013.1, Build901 2013/11/27)

>  <Rbt.Parameter_File>
/export/apps/rDock/src/rDock_2013.1_src/data/scripts/dock_solv.prm

>  <Rbt.Receptor>
prm/blind_docking_100.prm

>  <SCORE>
-18.0217

>  <SCORE.INTER>
-12.2374

>  <SCORE.INTER.CONST>
1

>  <SCORE.INTER.POLAR>
0

>  <SCORE.INTER.ROT>
4

>  <SCORE.INTER.SOLV>
19.3798

>  <SCORE.INTER.VDW>
-20.8849

>  <SCORE.INTER.norm>
-0.509891

>  <SCORE.INTRA>
-5.78436

>  <SCORE.INTRA.DIHEDRAL>
-11.8817

>  <SCORE.INTRA.DIHEDRAL.0>
13.2525

>  <SCORE.INTRA.POLAR>
0

>  <SCORE.INTRA.POLAR.0>
0

>  <SCORE.INTRA.REPUL>
0

>  <SCORE.INTRA.REPUL.0>
0

>  <SCORE.INTRA.SOLV>
0.668114

>  <SCORE.INTRA.SOLV.lig_0>
-70.7221

>  <SCORE.INTRA.VDW>
-0.177581

>  <SCORE.INTRA.VDW.0>
-1.46337

>  <SCORE.INTRA.norm>
-0.241015

>  <SCORE.RESTR>
0

>  <SCORE.RESTR.CAVITY>
0

>  <SCORE.RESTR.norm>
0

>  <SCORE.SYSTEM>
0

>  <SCORE.SYSTEM.CONST>
0

>  <SCORE.SYSTEM.DIHEDRAL>
0

>  <SCORE.SYSTEM.SOLV>
0

>  <SCORE.SYSTEM.norm>
0

>  <SCORE.heavy>
24

>  <SCORE.norm>
-0.750906

>  <RMSD>
18.587

$$$$
ligand
 OpenBabel11021811483D
libRbt.so/2013.1/901 2013/11/27
 24 26  0  0  0  0  0  0  0  0999 V2000
   -7.2955    0.7757   -9.3066 P   0  0  1  0  0  0  0  0  0  0  0  0
   -7.5036    2.2370   -8.9704 O   0  0  0  0  0  0  0  0  0  0  0  0
   -7.8344    0.3111  -10.6391 O   0  5  0  0  0  0  0  0  0  0  0  0
   -5.8855    0.2729   -9.0350 O   0  0  0  0  0  0  0  0  0  0  0  0
   -7.9891   -0.2495   -6.9022 C   0  0  0  0  0  0  0  0  0  0  0  0
   -8.2911   -0.0019   -8.2863 O   0  0  0  0  0  0  0  0  0  0  0  0
   -7.7859    1.0790   -6.1677 C   0  0  1  0  0  0  0  0  0  0  0  0
   -9.0258    1.7636   -5.9485 O   0  0  0  0  0  0  0  0  0  0  0  0
   -7.1362    0.9588   -4.7998 C   0  0  1  0  0  0  0  0  0  0  0  0
   -5.7175    1.0673   -4.9498 O   0  0  0  0  0  0  0  0  0  0  0  0
   -7.7078    2.1417   -4.0355 C   0  0  1  0  0  0  0  0  0  0  0  0
   -6.9781    3.3383   -4.3422 O   0  0  0  0  0  0  0  0  0  0  0  0
   -9.0876    2.3307   -4.6340 C   0  0  2  0  0  0  0  0  0  0  0  0
  -10.5442   -2.4024   -3.3962 N   0  0  0  0  0  0  0  0  0  0  0  0
   -9.4766   -1.9933   -4.1189 C   0  0  1  0  0  0  0  0  0  0  0  0
   -8.6217   -2.9169   -4.6135 N   0  0  0  0  0  0  0  0  0  0  0  0
   -9.2559   -0.6783   -4.3516 N   0  0  0  0  0  0  0  0  0  0  0  0
  -10.1163    0.2420   -3.8540 C   0  0  1  0  0  0  0  0  0  0  0  0
  -11.2154   -0.1475   -3.1141 C   0  0  2  0  0  0  0  0  0  0  0  0
  -11.4191   -1.5038   -2.8887 C   0  0  0  0  0  0  0  0  0  0  0  0
  -12.3988   -1.8986   -2.2261 O   0  0  0  0  0  0  0  0  0  0  0  0
  -11.8794    0.9733   -2.7647 N   0  0  0  0  0  0  0  0  0  0  0  0
  -11.2010    2.0294   -3.2710 C   0  0  0  0  0  0  0  0  0  0  0  0
  -10.1327    1.5664   -3.9279 N   0  0  1  0  0  0  0  0  0  0  0  0
  1  2  1  1  0  0  0
  1  3  1  0  0  0  0
  1  4  2  0  0  0  0
  1  6  1  0  0  0  0
  5  6  1  0  0  0  0
  7  5  1  1  0  0  0
  7  8  1  0  0  0  0
  7  9  1  0  0  0  0
  9 10  1  6  0  0  0
  9 11  1  0  0  0  0
 11 12  1  6  0  0  0
 11 13  1  0  0  0  0
 13  8  1  6  0  0  0
 13 24  1  0  0  0  0
 14 15  1  0  0  0  0
 14 20  1  0  0  0  0
 15 16  1  6  0  0  0
 15 17  1  0  0  0  0
 18 17  1  1  0  0  0
 18 19  1  0  0  0  0
 18 24  1  0  0  0  0
 19 20  1  6  0  0  0
 19 22  1  0  0  0  0
 20 21  2  0  0  0  0
 22 23  1  0  0  0  0
 24 23  1  1  0  0  0
M  CHG  1   3  -1
M  END
>  <CHROM.1>
-79.13827937,73.79868565,60.39974068,53.35237508,-8.77692942,0.43300799,-5.58927748
0.41406858,-0.93301422,-2.38462498

>  <Name>
ligand

>  <RI>
0

>  <Rbt.Current_Directory>
/home/itssahil/PROJECTS/Mol_Feturizer/New_Systems/rnas/3SLQ

>  <Rbt.Executable>
rbdock ($Id: //depot/dev/client3/rdock/2013.1/src/exe/rbdock.cxx#4 $)

>  <Rbt.Library>
libRbt.so (2013.1, Build901 2013/11/27)

>  <Rbt.Parameter_File>
/export/apps/rDock/src/rDock_2013.1_src/data/scripts/dock_solv.prm

>  <Rbt.Receptor>
prm/blind_docking_100.prm

>  <SCORE>
-18.9789

>  <SCORE.INTER>
-14.8566

>  <SCORE.INTER.CONST>
1

>  <SCORE.INTER.POLAR>
0

>  <SCORE.INTER.ROT>
4

>  <SCORE.INTER.SOLV>
16.5656

>  <SCORE.INTER.VDW>
-21.693

>  <SCORE.INTER.norm>
-0.619026

>  <SCORE.INTRA>
-4.12226

>  <SCORE.INTRA.DIHEDRAL>
-10.8503

>  <SCORE.INTRA.DIHEDRAL.0>
13.2525

>  <SCORE.INTRA.POLAR>
0

>  <SCORE.INTRA.POLAR.0>
0

>  <SCORE.INTRA.REPUL>
0

>  <SCORE.INTRA.REPUL.0>
0

>  <SCORE.INTRA.SOLV>
3.58669

>  <SCORE.INTRA.SOLV.lig_0>
-70.7221

>  <SCORE.INTRA.VDW>
-0.490468

>  <SCORE.INTRA.VDW.0>
-1.46337

>  <SCORE.INTRA.norm>
-0.171761

>  <SCORE.RESTR>
0

>  <SCORE.RESTR.CAVITY>
0

>  <SCORE.RESTR.norm>
0

>  <SCORE.SYSTEM>
0

>  <SCORE.SYSTEM.CONST>
0

>  <SCORE.SYSTEM.DIHEDRAL>
0

>  <SCORE.SYSTEM.SOLV>
0

>  <SCORE.SYSTEM.norm>
0

>  <SCORE.heavy>
24

>  <SCORE.norm>
-0.790787

>  <RMSD>
18.593

$$$$
ligand
 OpenBabel11021811483D
libRbt.so/2013.1/901 2013/11/27
 24 26  0  0  0  0  0  0  0  0999 V2000
   -6.7942   -0.1685   -9.7728 P   0  0  1  0  0  0  0  0  0  0  0  0
   -6.8226   -1.4571   -8.9789 O   0  0  0  0  0  0  0  0  0  0  0  0
   -5.5217    0.6413   -9.6910 O   0  5  0  0  0  0  0  0  0  0  0  0
   -7.3123   -0.3072  -11.1965 O   0  0  0  0  0  0  0  0  0  0  0  0
   -7.6686    1.1775   -7.5963 C   0  0  0  0  0  0  0  0  0  0  0  0
   -7.8249    0.8004   -8.9753 O   0  0  0  0  0  0  0  0  0  0  0  0
   -7.8553   -0.0481   -6.6969 C   0  0  1  0  0  0  0  0  0  0  0  0
   -7.5782    0.2503   -5.3228 O   0  0  0  0  0  0  0  0  0  0  0  0
   -9.2523   -0.6446   -6.7136 C   0  0  1  0  0  0  0  0  0  0  0  0
   -9.3160   -1.6462   -7.7332 O   0  0  0  0  0  0  0  0  0  0  0  0
   -9.3904   -1.2515   -5.3269 C   0  0  1  0  0  0  0  0  0  0  0  0
   -8.7741   -2.5462   -5.2812 O   0  0  0  0  0  0  0  0  0  0  0  0
   -8.5399   -0.3546   -4.4495 C   0  0  2  0  0  0  0  0  0  0  0  0
   -8.2197    4.5986   -3.2578 N   0  0  0  0  0  0  0  0  0  0  0  0
   -7.2870    3.7835   -3.8011 C   0  0  1  0  0  0  0  0  0  0  0  0
   -6.0691    4.2856   -4.1061 N   0  0  0  0  0  0  0  0  0  0  0  0
   -7.5571    2.4791   -4.0412 N   0  0  0  0  0  0  0  0  0  0  0  0
   -8.7788    1.9819   -3.7330 C   0  0  1  0  0  0  0  0  0  0  0  0
   -9.7495    2.7909   -3.1758 C   0  0  2  0  0  0  0  0  0  0  0  0
   -9.4472    4.1270   -2.9400 C   0  0  0  0  0  0  0  0  0  0  0  0
  -10.2945    4.8920   -2.4384 O   0  0  0  0  0  0  0  0  0  0  0  0
  -10.8418    2.0253   -2.9769 N   0  0  0  0  0  0  0  0  0  0  0  0
  -10.5536    0.7753   -3.4085 C   0  0  0  0  0  0  0  0  0  0  0  0
   -9.2974    0.7681   -3.8656 N   0  0  1  0  0  0  0  0  0  0  0  0
  1  2  1  1  0  0  0
  1  3  1  0  0  0  0
  1  4  2  0  0  0  0
  1  6  1  0  0  0  0
  5  6  1  0  0  0  0
  7  5  1  6  0  0  0
  7  8  1  0  0  0  0
  7  9  1  0  0  0  0
  9 10  1  6  0  0  0
  9 11  1  0  0  0  0
 11 12  1  6  0  0  0
 11 13  1  0  0  0  0
 13  8  1  6  0  0  0
 13 24  1  0  0  0  0
 14 15  1  0  0  0  0
 14 20  1  0  0  0  0
 15 16  1  1  0  0  0
 15 17  1  0  0  0  0
 18 17  1  6  0  0  0
 18 19  1  0  0  0  0
 18 24  1  0  0  0  0
 19 20  1  1  0  0  0
 19 22  1  0  0  0  0
 20 21  2  0  0  0  0
 22 23  1  0  0  0  0
 24 23  1  6  0  0  0
M  CHG  1   3  -1
M  END
>  <CHROM.1>
59.34441599,174.22787192,-67.26054002,-26.43667425,-8.24305230,0.98926206
-5.98446826,-1.12683998,0.92282754,0.66151327

>  <Name>
ligand

>  <RI>
0

>  <Rbt.Current_Directory>
/home/itssahil/PROJECTS/Mol_Feturizer/New_Systems/rnas/3SLQ

>  <Rbt.Executable>
rbdock ($Id: //depot/dev/client3/rdock/2013.1/src/exe/rbdock.cxx#4 $)

>  <Rbt.Library>
libRbt.so (2013.1, Build901 2013/11/27)

>  <Rbt.Parameter_File>
/export/apps/rDock/src/rDock_2013.1_src/data/scripts/dock_solv.prm

>  <Rbt.Receptor>
prm/blind_docking_20.prm

>  <SCORE>
-19.2172

>  <SCORE.INTER>
-13.9733

>  <SCORE.INTER.CONST>
1

>  <SCORE.INTER.POLAR>
0

>  <SCORE.INTER.ROT>
4

>  <SCORE.INTER.SOLV>
14.2325

>  <SCORE.INTER.VDW>
-20.3264

>  <SCORE.INTER.norm>
-0.582221

>  <SCORE.INTRA>
-5.24386

>  <SCORE.INTRA.DIHEDRAL>
-11.6529

>  <SCORE.INTRA.DIHEDRAL.0>
13.2525

>  <SCORE.INTRA.POLAR>
0

>  <SCORE.INTRA.POLAR.0>
0

>  <SCORE.INTRA.REPUL>
0

>  <SCORE.INTRA.REPUL.0>
0

>  <SCORE.INTRA.SOLV>
1.64096

>  <SCORE.INTRA.SOLV.lig_0>
-70.7221

>  <SCORE.INTRA.VDW>
-0.237886

>  <SCORE.INTRA.VDW.0>
-1.46337

>  <SCORE.INTRA.norm>
-0.218494

>  <SCORE.RESTR>
0

>  <SCORE.RESTR.CAVITY>
0

>  <SCORE.RESTR.norm>
0

>  <SCORE.SYSTEM>
0

>  <SCORE.SYSTEM.CONST>
0

>  <SCORE.SYSTEM.DIHEDRAL>
0

>  <SCORE.SYSTEM.SOLV>
0

>  <SCORE.SYSTEM.norm>
0

>  <SCORE.heavy>
24

>  <SCORE.norm>
-0.800715

>  <RMSD>
18.594

$$$$
ligand
 OpenBabel11021811483D
libRbt.so/2013.1/901 2013/11/27
 24 26  0  0  0  0  0  0  0  0999 V2000
  -11.2850   -1.3948   -3.2367 P   0  0  1  0  0  0  0  0  0  0  0  0
  -12.1641   -0.8050   -2.1546 O   0  0  0  0  0  0  0  0  0  0  0  0
  -10.4470   -2.5884   -2.8431 O   0  5  0  0  0  0  0  0  0  0  0  0
  -11.9901   -1.5859   -4.5712 O   0  0  0  0  0  0  0  0  0  0  0  0
   -9.1672   -0.3077   -4.5199 C   0  0  0  0  0  0  0  0  0  0  0  0
  -10.1330   -0.2712   -3.4549 O   0  0  0  0  0  0  0  0  0  0  0  0
   -8.0343    0.6814   -4.2296 C   0  0  1  0  0  0  0  0  0  0  0  0
   -6.9051    0.4666   -5.0855 O   0  0  0  0  0  0  0  0  0  0  0  0
   -8.4057    2.1445   -4.3998 C   0  0  1  0  0  0  0  0  0  0  0  0
   -8.8827    2.6497   -3.1491 O   0  0  0  0  0  0  0  0  0  0  0  0
   -7.0914    2.7953   -4.7988 C   0  0  1  0  0  0  0  0  0  0  0  0
   -6.2946    3.0715   -3.6382 O   0  0  0  0  0  0  0  0  0  0  0  0
   -6.3595    1.7052   -5.5564 C   0  0  2  0  0  0  0  0  0  0  0  0
   -5.2513   -0.6467   -9.9492 N   0  0  0  0  0  0  0  0  0  0  0  0
   -4.7975   -0.9003   -8.7005 C   0  0  1  0  0  0  0  0  0  0  0  0
   -3.9242   -1.9148   -8.5092 N   0  0  0  0  0  0  0  0  0  0  0  0
   -5.2048   -0.1545   -7.6468 N   0  0  0  0  0  0  0  0  0  0  0  0
   -6.0793    0.8608   -7.8449 C   0  0  1  0  0  0  0  0  0  0  0  0
   -6.5576    1.1431   -9.1094 C   0  0  2  0  0  0  0  0  0  0  0  0
   -6.1245    0.3618  -10.1743 C   0  0  0  0  0  0  0  0  0  0  0  0
   -6.5314    0.5826  -11.3321 O   0  0  0  0  0  0  0  0  0  0  0  0
   -7.3936    2.1951   -8.9946 N   0  0  0  0  0  0  0  0  0  0  0  0
   -7.4355    2.5482   -7.6887 C   0  0  0  0  0  0  0  0  0  0  0  0
   -6.6326    1.7262   -7.0055 N   0  0  1  0  0  0  0  0  0  0  0  0
  1  2  1  1  0  0  0
  1  3  1  0  0  0  0
  1  4  2  0  0  0  0
  1  6  1  0  0  0  0
  5  6  1  0  0  0  0
  7  5  1  6  0  0  0
  7  8  1  0  0  0  0
  7  9  1  0  0  0  0
  9 10  1  1  0  0  0
  9 11  1  0  0  0  0
 11 12  1  1  0  0  0
 11 13  1  0  0  0  0
 13  8  1  1  0  0  0
 13 24  1  0  0  0  0
 14 15  1  0  0  0  0
 14 20  1  0  0  0  0
 15 16  1  6  0  0  0
 15 17  1  0  0  0  0
 18 17  1  1  0  0  0
 18 19  1  0  0  0  0
 18 24  1  0  0  0  0
 19 20  1  6  0  0  0
 19 22  1  0  0  0  0
 20 21  2  0  0  0  0
 22 23  1  0  0  0  0
 24 23  1  1  0  0  0
M  CHG  1   3  -1
M  END
>  <CHROM.1>
-171.14428948,166.48244915,-165.75263134,-65.41676052,-7.91463169,0.38650305
-5.92098365,2.70444226,0.78680255,0.76641022

>  <Name>
ligand

>  <RI>
0

>  <Rbt.Current_Directory>
/home/itssahil/PROJECTS/Mol_Feturizer/New_Systems/rnas/3SLQ

>  <Rbt.Executable>
rbdock ($Id: //depot/dev/client3/rdock/2013.1/src/exe/rbdock.cxx#4 $)

>  <Rbt.Library>
libRbt.so (2013.1, Build901 2013/11/27)

>  <Rbt.Parameter_File>
/export/apps/rDock/src/rDock_2013.1_src/data/scripts/dock_solv.prm

>  <Rbt.Receptor>
prm/blind_docking_80.prm

>  <SCORE>
-16.4233

>  <SCORE.INTER>
-11.3569

>  <SCORE.INTER.CONST>
1

>  <SCORE.INTER.POLAR>
0

>  <SCORE.INTER.ROT>
4

>  <SCORE.INTER.SOLV>
21.7398

>  <SCORE.INTER.VDW>
-21.0845

>  <SCORE.INTER.norm>
-0.473203

>  <SCORE.INTRA>
-5.06755

>  <SCORE.INTRA.DIHEDRAL>
-10.3367

>  <SCORE.INTRA.DIHEDRAL.0>
13.2525

>  <SCORE.INTRA.POLAR>
0

>  <SCORE.INTRA.POLAR.0>
0

>  <SCORE.INTRA.REPUL>
0

>  <SCORE.INTRA.REPUL.0>
0

>  <SCORE.INTRA.SOLV>
0.571184

>  <SCORE.INTRA.SOLV.lig_0>
-70.7221

>  <SCORE.INTRA.VDW>
-0.184772

>  <SCORE.INTRA.VDW.0>
-1.46337

>  <SCORE.INTRA.norm>
-0.211148

>  <SCORE.RESTR>
0.00114168

>  <SCORE.RESTR.CAVITY>
0.00114168

>  <SCORE.RESTR.norm>
4.75701e-05

>  <SCORE.SYSTEM>
0

>  <SCORE.SYSTEM.CONST>
0

>  <SCORE.SYSTEM.DIHEDRAL>
0

>  <SCORE.SYSTEM.SOLV>
0

>  <SCORE.SYSTEM.norm>
0

>  <SCORE.heavy>
24

>  <SCORE.norm>
-0.684303

>  <RMSD>
18.612

$$$$
ligand
 OpenBabel11021811483D
libRbt.so/2013.1/901 2013/11/27
 24 26  0  0  0  0  0  0  0  0999 V2000
   -5.9405   -4.4294   -5.5934 P   0  0  1  0  0  0  0  0  0  0  0  0
   -4.6711   -4.6079   -4.7883 O   0  0  0  0  0  0  0  0  0  0  0  0
   -6.3132   -5.5645   -6.5178 O   0  5  0  0  0  0  0  0  0  0  0  0
   -7.1220   -3.9204   -4.7812 O   0  0  0  0  0  0  0  0  0  0  0  0
   -4.7354   -3.4941   -7.8264 C   0  0  0  0  0  0  0  0  0  0  0  0
   -5.5582   -3.2733   -6.6678 O   0  0  0  0  0  0  0  0  0  0  0  0
   -4.5991   -2.1936   -8.6239 C   0  0  1  0  0  0  0  0  0  0  0  0
   -5.8761   -1.6425   -8.9698 O   0  0  0  0  0  0  0  0  0  0  0  0
   -3.8527   -1.0812   -7.9074 C   0  0  1  0  0  0  0  0  0  0  0  0
   -2.4617   -1.1757   -8.2279 O   0  0  0  0  0  0  0  0  0  0  0  0
   -4.4723    0.1824   -8.4814 C   0  0  1  0  0  0  0  0  0  0  0  0
   -3.8700    0.5097   -9.7418 O   0  0  0  0  0  0  0  0  0  0  0  0
   -5.8996   -0.2205   -8.7945 C   0  0  2  0  0  0  0  0  0  0  0  0
   -6.5060    2.4956   -4.5153 N   0  0  0  0  0  0  0  0  0  0  0  0
   -5.4675    2.4776   -5.3816 C   0  0  1  0  0  0  0  0  0  0  0  0
   -4.4001    3.2744   -5.1487 N   0  0  0  0  0  0  0  0  0  0  0  0
   -5.4842    1.6757   -6.4720 N   0  0  0  0  0  0  0  0  0  0  0  0
   -6.5560    0.8794   -6.6995 C   0  0  1  0  0  0  0  0  0  0  0  0
   -7.6295    0.8763   -5.8308 C   0  0  2  0  0  0  0  0  0  0  0  0
   -7.5881    1.7095   -4.7189 C   0  0  0  0  0  0  0  0  0  0  0  0
   -8.5359    1.7376   -3.9093 O   0  0  0  0  0  0  0  0  0  0  0  0
   -8.5283   -0.0081   -6.3093 N   0  0  0  0  0  0  0  0  0  0  0  0
   -8.0237   -0.5324   -7.4505 C   0  0  0  0  0  0  0  0  0  0  0  0
   -6.8264    0.0192   -7.6726 N   0  0  1  0  0  0  0  0  0  0  0  0
  1  2  1  1  0  0  0
  1  3  1  0  0  0  0
  1  4  2  0  0  0  0
  1  6  1  0  0  0  0
  5  6  1  0  0  0  0
  7  5  1  1  0  0  0
  7  8  1  0  0  0  0
  7  9  1  0  0  0  0
  9 10  1  6  0  0  0
  9 11  1  0  0  0  0
 11 12  1  6  0  0  0
 11 13  1  0  0  0  0
 13  8  1  1  0  0  0
 13 24  1  0  0  0  0
 14 15  1  0  0  0  0
 14 20  1  0  0  0  0
 15 16  1  1  0  0  0
 15 17  1  0  0  0  0
 18 17  1  6  0  0  0
 18 19  1  0  0  0  0
 18 24  1  0  0  0  0
 19 20  1  1  0  0  0
 19 22  1  0  0  0  0
 20 21  2  0  0  0  0
 22 23  1  0  0  0  0
 24 23  1  6  0  0  0
M  CHG  1   3  -1
M  END
>  <CHROM.1>
75.43830509,-54.94664382,179.23224105,136.22631764,-5.84018782,-0.97672675
-6.65600834,1.33234781,-0.85683369,3.08021589

>  <Name>
ligand

>  <RI>
0

>  <Rbt.Current_Directory>
/home/itssahil/PROJECTS/Mol_Feturizer/New_Systems/rnas/3SLQ

>  <Rbt.Executable>
rbdock ($Id: //depot/dev/client3/rdock/2013.1/src/exe/rbdock.cxx#4 $)

>  <Rbt.Library>
libRbt.so (2013.1, Build901 2013/11/27)

>  <Rbt.Parameter_File>
/export/apps/rDock/src/rDock_2013.1_src/data/scripts/dock_solv.prm

>  <Rbt.Receptor>
prm/blind_docking_80.prm

>  <SCORE>
-16.4796

>  <SCORE.INTER>
-11.1447

>  <SCORE.INTER.CONST>
1

>  <SCORE.INTER.POLAR>
0

>  <SCORE.INTER.ROT>
4

>  <SCORE.INTER.SOLV>
13.9024

>  <SCORE.INTER.VDW>
-18.3306

>  <SCORE.INTER.norm>
-0.464364

>  <SCORE.INTRA>
-5.33489

>  <SCORE.INTRA.DIHEDRAL>
-11.5982

>  <SCORE.INTRA.DIHEDRAL.0>
13.2525

>  <SCORE.INTRA.POLAR>
0

>  <SCORE.INTRA.POLAR.0>
0

>  <SCORE.INTRA.REPUL>
0

>  <SCORE.INTRA.REPUL.0>
0

>  <SCORE.INTRA.SOLV>
0.256196

>  <SCORE.INTRA.SOLV.lig_0>
-70.7221

>  <SCORE.INTRA.VDW>
0.336096

>  <SCORE.INTRA.VDW.0>
-1.46337

>  <SCORE.INTRA.norm>
-0.222287

>  <SCORE.RESTR>
0

>  <SCORE.RESTR.CAVITY>
0

>  <SCORE.RESTR.norm>
0

>  <SCORE.SYSTEM>
0

>  <SCORE.SYSTEM.CONST>
0

>  <SCORE.SYSTEM.DIHEDRAL>
0

>  <SCORE.SYSTEM.SOLV>
0

>  <SCORE.SYSTEM.norm>
0

>  <SCORE.heavy>
24

>  <SCORE.norm>
-0.686651

>  <RMSD>
18.615

$$$$
ligand
 OpenBabel11021811483D
libRbt.so/2013.1/901 2013/11/27
 24 26  0  0  0  0  0  0  0  0999 V2000
  -10.2062   -1.9975   -3.6116 P   0  0  1  0  0  0  0  0  0  0  0  0
   -9.6003   -3.2178   -2.9518 O   0  0  0  0  0  0  0  0  0  0  0  0
  -10.5233   -2.1191   -5.0835 O   0  5  0  0  0  0  0  0  0  0  0  0
  -11.3372   -1.3617   -2.8171 O   0  0  0  0  0  0  0  0  0  0  0  0
   -9.0999    0.4077   -4.1636 C   0  0  0  0  0  0  0  0  0  0  0  0
   -8.9827   -0.9304   -3.6497 O   0  0  0  0  0  0  0  0  0  0  0  0
   -7.7543    1.1300   -4.0472 C   0  0  1  0  0  0  0  0  0  0  0  0
   -6.7881    0.6119   -4.9702 O   0  0  0  0  0  0  0  0  0  0  0  0
   -7.8087    2.6258   -4.3068 C   0  0  1  0  0  0  0  0  0  0  0  0
   -8.0397    3.3027   -3.0678 O   0  0  0  0  0  0  0  0  0  0  0  0
   -6.4281    2.9353   -4.8619 C   0  0  1  0  0  0  0  0  0  0  0  0
   -5.4818    3.0951   -3.7954 O   0  0  0  0  0  0  0  0  0  0  0  0
   -6.0310    1.6627   -5.5834 C   0  0  2  0  0  0  0  0  0  0  0  0
   -5.4207   -0.8605   -9.9786 N   0  0  0  0  0  0  0  0  0  0  0  0
   -4.8685   -1.0989   -8.7671 C   0  0  1  0  0  0  0  0  0  0  0  0
   -4.0257   -2.1462   -8.6208 N   0  0  0  0  0  0  0  0  0  0  0  0
   -5.1479   -0.3059   -7.7063 N   0  0  0  0  0  0  0  0  0  0  0  0
   -5.9925    0.7420   -7.8594 C   0  0  1  0  0  0  0  0  0  0  0  0
   -6.5692    1.0097   -9.0853 C   0  0  2  0  0  0  0  0  0  0  0  0
   -6.2667    0.1798  -10.1585 C   0  0  0  0  0  0  0  0  0  0  0  0
   -6.7654    0.3860  -11.2825 O   0  0  0  0  0  0  0  0  0  0  0  0
   -7.3460    2.1015   -8.9314 N   0  0  0  0  0  0  0  0  0  0  0  0
   -7.2561    2.4929   -7.6389 C   0  0  0  0  0  0  0  0  0  0  0  0
   -6.4312    1.6550   -7.0029 N   0  0  1  0  0  0  0  0  0  0  0  0
  1  2  1  1  0  0  0
  1  3  1  0  0  0  0
  1  4  2  0  0  0  0
  1  6  1  0  0  0  0
  5  6  1  0  0  0  0
  7  5  1  6  0  0  0
  7  8  1  0  0  0  0
  7  9  1  0  0  0  0
  9 10  1  1  0  0  0
  9 11  1  0  0  0  0
 11 12  1  1  0  0  0
 11 13  1  0  0  0  0
 13  8  1  1  0  0  0
 13 24  1  0  0  0  0
 14 15  1  0  0  0  0
 14 20  1  0  0  0  0
 15 16  1  6  0  0  0
 15 17  1  0  0  0  0
 18 17  1  1  0  0  0
 18 19  1  0  0  0  0
 18 24  1  0  0  0  0
 19 20  1  6  0  0  0
 19 22  1  0  0  0  0
 20 21  2  0  0  0  0
 22 23  1  0  0  0  0
 24 23  1  1  0  0  0
M  CHG  1   3  -1
M  END
>  <CHROM.1>
-178.21611323,70.73109385,-179.86517284,-76.11992225,-7.48398315,0.26758540
-6.00040749,2.70564206,0.91149536,0.75437359

>  <Name>
ligand

>  <RI>
0

>  <Rbt.Current_Directory>
/home/itssahil/PROJECTS/Mol_Feturizer/New_Systems/rnas/3SLQ

>  <Rbt.Executable>
rbdock ($Id: //depot/dev/client3/rdock/2013.1/src/exe/rbdock.cxx#4 $)

>  <Rbt.Library>
libRbt.so (2013.1, Build901 2013/11/27)

>  <Rbt.Parameter_File>
/export/apps/rDock/src/rDock_2013.1_src/data/scripts/dock_solv.prm

>  <Rbt.Receptor>
prm/blind_docking_40.prm

>  <SCORE>
-19.8357

>  <SCORE.INTER>
-14.0762

>  <SCORE.INTER.CONST>
1

>  <SCORE.INTER.POLAR>
0

>  <SCORE.INTER.ROT>
4

>  <SCORE.INTER.SOLV>
18.7264

>  <SCORE.INTER.VDW>
-21.8929

>  <SCORE.INTER.norm>
-0.586507

>  <SCORE.INTRA>
-5.75953

>  <SCORE.INTRA.DIHEDRAL>
-11.6565

>  <SCORE.INTRA.DIHEDRAL.0>
13.2525

>  <SCORE.INTRA.POLAR>
0

>  <SCORE.INTRA.POLAR.0>
0

>  <SCORE.INTRA.REPUL>
0

>  <SCORE.INTRA.REPUL.0>
0

>  <SCORE.INTRA.SOLV>
0.439274

>  <SCORE.INTRA.SOLV.lig_0>
-70.7221

>  <SCORE.INTRA.VDW>
-0.150906

>  <SCORE.INTRA.VDW.0>
-1.46337

>  <SCORE.INTRA.norm>
-0.239981

>  <SCORE.RESTR>
0

>  <SCORE.RESTR.CAVITY>
0

>  <SCORE.RESTR.norm>
0

>  <SCORE.SYSTEM>
0

>  <SCORE.SYSTEM.CONST>
0

>  <SCORE.SYSTEM.DIHEDRAL>
0

>  <SCORE.SYSTEM.SOLV>
0

>  <SCORE.SYSTEM.norm>
0

>  <SCORE.heavy>
24

>  <SCORE.norm>
-0.826488

>  <RMSD>
18.632

$$$$
ligand
 OpenBabel11021811483D
libRbt.so/2013.1/901 2013/11/27
 24 26  0  0  0  0  0  0  0  0999 V2000
  -13.6562   -0.0521   -2.4717 P   0  0  1  0  0  0  0  0  0  0  0  0
  -14.3395   -0.5977   -3.7074 O   0  0  0  0  0  0  0  0  0  0  0  0
  -14.1754    1.2651   -1.9450 O   0  5  0  0  0  0  0  0  0  0  0  0
  -13.4480   -1.0837   -1.3730 O   0  0  0  0  0  0  0  0  0  0  0  0
  -11.2055   -0.5320   -3.5097 C   0  0  0  0  0  0  0  0  0  0  0  0
  -12.1872    0.3897   -3.0049 O   0  0  0  0  0  0  0  0  0  0  0  0
   -9.9306    0.2243   -3.8950 C   0  0  1  0  0  0  0  0  0  0  0  0
   -8.9021   -0.6615   -4.3549 O   0  0  0  0  0  0  0  0  0  0  0  0
  -10.1085    1.2541   -4.9976 C   0  0  1  0  0  0  0  0  0  0  0  0
  -10.4258    2.5170   -4.4050 O   0  0  0  0  0  0  0  0  0  0  0  0
   -8.7474    1.2820   -5.6736 C   0  0  1  0  0  0  0  0  0  0  0  0
   -7.8434    2.1277   -4.9485 O   0  0  0  0  0  0  0  0  0  0  0  0
   -8.2250   -0.1305   -5.5008 C   0  0  2  0  0  0  0  0  0  0  0  0
   -7.4934   -0.9263  -10.4896 N   0  0  0  0  0  0  0  0  0  0  0  0
   -7.0059    0.0540   -9.6953 C   0  0  1  0  0  0  0  0  0  0  0  0
   -6.1934    0.9934  -10.2299 N   0  0  0  0  0  0  0  0  0  0  0  0
   -7.3206    0.1052   -8.3798 N   0  0  0  0  0  0  0  0  0  0  0  0
   -8.1355   -0.8383   -7.8503 C   0  0  1  0  0  0  0  0  0  0  0  0
   -8.6489   -1.8496   -8.6384 C   0  0  2  0  0  0  0  0  0  0  0  0
   -8.3099   -1.8802   -9.9860 C   0  0  0  0  0  0  0  0  0  0  0  0
   -8.7516   -2.7757  -10.7329 O   0  0  0  0  0  0  0  0  0  0  0  0
   -9.4193   -2.6220   -7.8454 N   0  0  0  0  0  0  0  0  0  0  0  0
   -9.3755   -2.1033   -6.5960 C   0  0  0  0  0  0  0  0  0  0  0  0
   -8.5902   -1.0217   -6.6177 N   0  0  1  0  0  0  0  0  0  0  0  0
  1  2  1  6  0  0  0
  1  3  1  0  0  0  0
  1  4  2  0  0  0  0
  1  6  1  0  0  0  0
  5  6  1  0  0  0  0
  7  5  1  6  0  0  0
  7  8  1  0  0  0  0
  7  9  1  0  0  0  0
  9 10  1  1  0  0  0
  9 11  1  0  0  0  0
 11 12  1  1  0  0  0
 11 13  1  0  0  0  0
 13  8  1  1  0  0  0
 13 24  1  0  0  0  0
 14 15  1  0  0  0  0
 14 20  1  0  0  0  0
 15 16  1  6  0  0  0
 15 17  1  0  0  0  0
 18 17  1  1  0  0  0
 18 19  1  0  0  0  0
 18 24  1  0  0  0  0
 19 20  1  6  0  0  0
 19 22  1  0  0  0  0
 20 21  2  0  0  0  0
 22 23  1  0  0  0  0
 24 23  1  1  0  0  0
M  CHG  1   3  -1
M  END
>  <CHROM.1>
-64.84380712,177.69200420,-178.82813740,-179.65303423,-9.98927430,-0.23664741
-5.80692358,2.43508268,0.62248145,0.81493866

>  <Name>
ligand

>  <RI>
0

>  <Rbt.Current_Directory>
/home/itssahil/PROJECTS/Mol_Feturizer/New_Systems/rnas/3SLQ

>  <Rbt.Executable>
rbdock ($Id: //depot/dev/client3/rdock/2013.1/src/exe/rbdock.cxx#4 $)

>  <Rbt.Library>
libRbt.so (2013.1, Build901 2013/11/27)

>  <Rbt.Parameter_File>
/export/apps/rDock/src/rDock_2013.1_src/data/scripts/dock_solv.prm

>  <Rbt.Receptor>
prm/blind_docking_20.prm

>  <SCORE>
-19.0535

>  <SCORE.INTER>
-12.8171

>  <SCORE.INTER.CONST>
1

>  <SCORE.INTER.POLAR>
0

>  <SCORE.INTER.ROT>
4

>  <SCORE.INTER.SOLV>
18.4755

>  <SCORE.INTER.VDW>
-20.9699

>  <SCORE.INTER.norm>
-0.534047

>  <SCORE.INTRA>
-6.23639

>  <SCORE.INTRA.DIHEDRAL>
-11.9874

>  <SCORE.INTRA.DIHEDRAL.0>
13.2525

>  <SCORE.INTRA.POLAR>
0

>  <SCORE.INTRA.POLAR.0>
0

>  <SCORE.INTRA.REPUL>
0

>  <SCORE.INTRA.REPUL.0>
0

>  <SCORE.INTRA.SOLV>
0.0439

>  <SCORE.INTRA.SOLV.lig_0>
-70.7221

>  <SCORE.INTRA.VDW>
-0.26462

>  <SCORE.INTRA.VDW.0>
-1.46337

>  <SCORE.INTRA.norm>
-0.25985

>  <SCORE.RESTR>
0

>  <SCORE.RESTR.CAVITY>
0

>  <SCORE.RESTR.norm>
0

>  <SCORE.SYSTEM>
0

>  <SCORE.SYSTEM.CONST>
0

>  <SCORE.SYSTEM.DIHEDRAL>
0

>  <SCORE.SYSTEM.SOLV>
0

>  <SCORE.SYSTEM.norm>
0

>  <SCORE.heavy>
24

>  <SCORE.norm>
-0.793896

>  <RMSD>
18.665

$$$$
ligand
 OpenBabel11021811483D
libRbt.so/2013.1/901 2013/11/27
 24 26  0  0  0  0  0  0  0  0999 V2000
   -6.2999   -4.7477   -6.2124 P   0  0  1  0  0  0  0  0  0  0  0  0
   -7.4060   -4.7760   -5.1793 O   0  0  0  0  0  0  0  0  0  0  0  0
   -5.0156   -4.0671   -5.8011 O   0  5  0  0  0  0  0  0  0  0  0  0
   -6.0629   -6.0830   -6.9021 O   0  0  0  0  0  0  0  0  0  0  0  0
   -7.6722   -2.5714   -7.0453 C   0  0  0  0  0  0  0  0  0  0  0  0
   -6.8475   -3.7127   -7.3376 O   0  0  0  0  0  0  0  0  0  0  0  0
   -7.7448   -1.6541   -8.2697 C   0  0  1  0  0  0  0  0  0  0  0  0
   -8.5204   -0.4772   -8.0105 O   0  0  0  0  0  0  0  0  0  0  0  0
   -6.4011   -1.1568   -8.7747 C   0  0  1  0  0  0  0  0  0  0  0  0
   -5.9063   -2.0743   -9.7547 O   0  0  0  0  0  0  0  0  0  0  0  0
   -6.7360    0.1910   -9.3922 C   0  0  1  0  0  0  0  0  0  0  0  0
   -7.2407    0.0220  -10.7245 O   0  0  0  0  0  0  0  0  0  0  0  0
   -7.9037    0.6913   -8.5652 C   0  0  2  0  0  0  0  0  0  0  0  0
   -9.0917    1.8013   -3.7265 N   0  0  0  0  0  0  0  0  0  0  0  0
   -9.7207    0.9816   -4.5993 C   0  0  1  0  0  0  0  0  0  0  0  0
  -10.8306    0.3201   -4.2005 N   0  0  0  0  0  0  0  0  0  0  0  0
   -9.2549    0.8172   -5.8596 N   0  0  0  0  0  0  0  0  0  0  0  0
   -8.1430    1.4831   -6.2532 C   0  0  1  0  0  0  0  0  0  0  0  0
   -7.4817    2.3277   -5.3835 C   0  0  2  0  0  0  0  0  0  0  0  0
   -7.9798    2.4784   -4.0946 C   0  0  0  0  0  0  0  0  0  0  0  0
   -7.4134    3.2312   -3.2777 O   0  0  0  0  0  0  0  0  0  0  0  0
   -6.4303    2.8452   -6.0511 N   0  0  0  0  0  0  0  0  0  0  0  0
   -6.4390    2.3257   -7.3009 C   0  0  0  0  0  0  0  0  0  0  0  0
   -7.4850    1.4998   -7.4050 N   0  0  1  0  0  0  0  0  0  0  0  0
  1  2  1  1  0  0  0
  1  3  1  0  0  0  0
  1  4  2  0  0  0  0
  1  6  1  0  0  0  0
  5  6  1  0  0  0  0
  7  5  1  1  0  0  0
  7  8  1  0  0  0  0
  7  9  1  0  0  0  0
  9 10  1  6  0  0  0
  9 11  1  0  0  0  0
 11 12  1  6  0  0  0
 11 13  1  0  0  0  0
 13  8  1  1  0  0  0
 13 24  1  0  0  0  0
 14 15  1  0  0  0  0
 14 20  1  0  0  0  0
 15 16  1  6  0  0  0
 15 17  1  0  0  0  0
 18 17  1  1  0  0  0
 18 19  1  0  0  0  0
 18 24  1  0  0  0  0
 19 20  1  6  0  0  0
 19 22  1  0  0  0  0
 20 21  2  0  0  0  0
 22 23  1  0  0  0  0
 24 23  1  1  0  0  0
M  CHG  1   3  -1
M  END
>  <CHROM.1>
32.95849835,-177.99941044,167.52019750,-30.54522785,-7.40304551,-0.78256143
-6.67911392,0.62995122,-1.23813352,2.50532062

>  <Name>
ligand

>  <RI>
0

>  <Rbt.Current_Directory>
/home/itssahil/PROJECTS/Mol_Feturizer/New_Systems/rnas/3SLQ

>  <Rbt.Executable>
rbdock ($Id: //depot/dev/client3/rdock/2013.1/src/exe/rbdock.cxx#4 $)

>  <Rbt.Library>
libRbt.so (2013.1, Build901 2013/11/27)

>  <Rbt.Parameter_File>
/export/apps/rDock/src/rDock_2013.1_src/data/scripts/dock_solv.prm

>  <Rbt.Receptor>
prm/blind_docking_20.prm

>  <SCORE>
-12.3655

>  <SCORE.INTER>
-7.59272

>  <SCORE.INTER.CONST>
1

>  <SCORE.INTER.POLAR>
0

>  <SCORE.INTER.ROT>
4

>  <SCORE.INTER.SOLV>
18.9684

>  <SCORE.INTER.VDW>
-17.6513

>  <SCORE.INTER.norm>
-0.316364

>  <SCORE.INTRA>
-4.77275

>  <SCORE.INTRA.DIHEDRAL>
-10.2651

>  <SCORE.INTRA.DIHEDRAL.0>
13.2525

>  <SCORE.INTRA.POLAR>
0

>  <SCORE.INTRA.POLAR.0>
0

>  <SCORE.INTRA.REPUL>
0

>  <SCORE.INTRA.REPUL.0>
0

>  <SCORE.INTRA.SOLV>
0.281205

>  <SCORE.INTRA.SOLV.lig_0>
-70.7221

>  <SCORE.INTRA.VDW>
0.219178

>  <SCORE.INTRA.VDW.0>
-1.46337

>  <SCORE.INTRA.norm>
-0.198865

>  <SCORE.RESTR>
0

>  <SCORE.RESTR.CAVITY>
0

>  <SCORE.RESTR.norm>
0

>  <SCORE.SYSTEM>
0

>  <SCORE.SYSTEM.CONST>
0

>  <SCORE.SYSTEM.DIHEDRAL>
0

>  <SCORE.SYSTEM.SOLV>
0

>  <SCORE.SYSTEM.norm>
0

>  <SCORE.heavy>
24

>  <SCORE.norm>
-0.515228

>  <RMSD>
18.669

$$$$
ligand
 OpenBabel11021811483D
libRbt.so/2013.1/901 2013/11/27
 24 26  0  0  0  0  0  0  0  0999 V2000
   -6.6389   -0.1653  -10.0582 P   0  0  1  0  0  0  0  0  0  0  0  0
   -7.7871   -0.5049  -10.9844 O   0  0  0  0  0  0  0  0  0  0  0  0
   -5.6327   -1.2636   -9.8071 O   0  5  0  0  0  0  0  0  0  0  0  0
   -5.9840    1.1764  -10.3506 O   0  0  0  0  0  0  0  0  0  0  0  0
   -6.6530    0.3721   -7.4078 C   0  0  0  0  0  0  0  0  0  0  0  0
   -7.3398   -0.0532   -8.5976 O   0  0  0  0  0  0  0  0  0  0  0  0
   -7.5738    0.2219   -6.1931 C   0  0  1  0  0  0  0  0  0  0  0  0
   -6.9281    0.6279   -4.9797 O   0  0  0  0  0  0  0  0  0  0  0  0
   -8.8592    1.0284   -6.2635 C   0  0  1  0  0  0  0  0  0  0  0  0
   -9.8770    0.2257   -6.8689 O   0  0  0  0  0  0  0  0  0  0  0  0
   -9.1717    1.3174   -4.8044 C   0  0  1  0  0  0  0  0  0  0  0  0
   -9.8373    0.1984   -4.2018 O   0  0  0  0  0  0  0  0  0  0  0  0
   -7.8079    1.3937   -4.1472 C   0  0  2  0  0  0  0  0  0  0  0  0
   -8.6162    6.1225   -2.4030 N   0  0  0  0  0  0  0  0  0  0  0  0
   -9.3716    5.0105   -2.2532 C   0  0  1  0  0  0  0  0  0  0  0  0
  -10.5206    5.0842   -1.5441 N   0  0  0  0  0  0  0  0  0  0  0  0
   -8.9930    3.8324   -2.8017 N   0  0  0  0  0  0  0  0  0  0  0  0
   -7.8412    3.7652   -3.5114 C   0  0  1  0  0  0  0  0  0  0  0  0
   -7.0513    4.8851   -3.6817 C   0  0  2  0  0  0  0  0  0  0  0  0
   -7.4619    6.0826   -3.1076 C   0  0  0  0  0  0  0  0  0  0  0  0
   -6.7787    7.1175   -3.2372 O   0  0  0  0  0  0  0  0  0  0  0  0
   -5.9895    4.5156   -4.4266 N   0  0  0  0  0  0  0  0  0  0  0  0
   -6.1180    3.1968   -4.7025 C   0  0  0  0  0  0  0  0  0  0  0  0
   -7.2472    2.7578   -4.1375 N   0  0  1  0  0  0  0  0  0  0  0  0
  1  2  1  6  0  0  0
  1  3  1  0  0  0  0
  1  4  2  0  0  0  0
  1  6  1  0  0  0  0
  5  6  1  0  0  0  0
  7  5  1  6  0  0  0
  7  8  1  0  0  0  0
  7  9  1  0  0  0  0
  9 10  1  1  0  0  0
  9 11  1  0  0  0  0
 11 12  1  1  0  0  0
 11 13  1  0  0  0  0
 13  8  1  6  0  0  0
 13 24  1  0  0  0  0
 14 15  1  0  0  0  0
 14 20  1  0  0  0  0
 15 16  1  6  0  0  0
 15 17  1  0  0  0  0
 18 17  1  1  0  0  0
 18 19  1  0  0  0  0
 18 24  1  0  0  0  0
 19 20  1  6  0  0  0
 19 22  1  0  0  0  0
 20 21  2  0  0  0  0
 22 23  1  0  0  0  0
 24 23  1  1  0  0  0
M  CHG  1   3  -1
M  END
>  <CHROM.1>
-174.29133924,179.68190467,-174.19402323,176.77268193,-7.68808085,2.14019325
-5.80108927,-1.35827950,0.74043605,0.75445608

>  <Name>
ligand

>  <RI>
0

>  <Rbt.Current_Directory>
/home/itssahil/PROJECTS/Mol_Feturizer/New_Systems/rnas/3SLQ

>  <Rbt.Executable>
rbdock ($Id: //depot/dev/client3/rdock/2013.1/src/exe/rbdock.cxx#4 $)

>  <Rbt.Library>
libRbt.so (2013.1, Build901 2013/11/27)

>  <Rbt.Parameter_File>
/export/apps/rDock/src/rDock_2013.1_src/data/scripts/dock_solv.prm

>  <Rbt.Receptor>
prm/blind_docking_80.prm

>  <SCORE>
-17.1842

>  <SCORE.INTER>
-11.4158

>  <SCORE.INTER.CONST>
1

>  <SCORE.INTER.POLAR>
0

>  <SCORE.INTER.ROT>
4

>  <SCORE.INTER.SOLV>
14.2816

>  <SCORE.INTER.VDW>
-18.6378

>  <SCORE.INTER.norm>
-0.47566

>  <SCORE.INTRA>
-5.7684

>  <SCORE.INTRA.DIHEDRAL>
-11.835

>  <SCORE.INTRA.DIHEDRAL.0>
13.2525

>  <SCORE.INTRA.POLAR>
0

>  <SCORE.INTRA.POLAR.0>
0

>  <SCORE.INTRA.REPUL>
0

>  <SCORE.INTRA.REPUL.0>
0

>  <SCORE.INTRA.SOLV>
0.605176

>  <SCORE.INTRA.SOLV.lig_0>
-70.7221

>  <SCORE.INTRA.VDW>
-0.153513

>  <SCORE.INTRA.VDW.0>
-1.46337

>  <SCORE.INTRA.norm>
-0.24035

>  <SCORE.RESTR>
0

>  <SCORE.RESTR.CAVITY>
0

>  <SCORE.RESTR.norm>
0

>  <SCORE.SYSTEM>
0

>  <SCORE.SYSTEM.CONST>
0

>  <SCORE.SYSTEM.DIHEDRAL>
0

>  <SCORE.SYSTEM.SOLV>
0

>  <SCORE.SYSTEM.norm>
0

>  <SCORE.heavy>
24

>  <SCORE.norm>
-0.71601

>  <RMSD>
18.705

$$$$
ligand
 OpenBabel11021811483D
libRbt.so/2013.1/901 2013/11/27
 24 26  0  0  0  0  0  0  0  0999 V2000
  -11.3368   -0.7994   -3.4690 P   0  0  1  0  0  0  0  0  0  0  0  0
   -9.9652   -1.0689   -2.8879 O   0  0  0  0  0  0  0  0  0  0  0  0
  -12.0997   -2.0021   -3.9723 O   0  5  0  0  0  0  0  0  0  0  0  0
  -12.1952    0.1301   -2.6242 O   0  0  0  0  0  0  0  0  0  0  0  0
  -10.4968    1.3051   -4.9452 C   0  0  0  0  0  0  0  0  0  0  0  0
  -11.0218   -0.0314   -4.8648 O   0  0  0  0  0  0  0  0  0  0  0  0
   -9.0468    1.3256   -4.4525 C   0  0  1  0  0  0  0  0  0  0  0  0
   -8.2014    0.4814   -5.2441 O   0  0  0  0  0  0  0  0  0  0  0  0
   -8.3879    2.6943   -4.4657 C   0  0  1  0  0  0  0  0  0  0  0  0
   -8.6047    3.3248   -3.1999 O   0  0  0  0  0  0  0  0  0  0  0  0
   -6.9184    2.3734   -4.6840 C   0  0  1  0  0  0  0  0  0  0  0  0
   -6.2917    2.0184   -3.4432 O   0  0  0  0  0  0  0  0  0  0  0  0
   -6.9411    1.1066   -5.5162 C   0  0  2  0  0  0  0  0  0  0  0  0
   -5.0300   -0.5332   -9.9564 N   0  0  0  0  0  0  0  0  0  0  0  0
   -4.8149   -0.9977   -8.7044 C   0  0  1  0  0  0  0  0  0  0  0  0
   -3.9889   -2.0532   -8.5253 N   0  0  0  0  0  0  0  0  0  0  0  0
   -5.4128   -0.4213   -7.6356 N   0  0  0  0  0  0  0  0  0  0  0  0
   -6.2386    0.6362   -7.8215 C   0  0  1  0  0  0  0  0  0  0  0  0
   -6.4751    1.1322   -9.0885 C   0  0  2  0  0  0  0  0  0  0  0  0
   -5.8496    0.5220  -10.1694 C   0  0  0  0  0  0  0  0  0  0  0  0
   -6.0354    0.9382  -11.3300 O   0  0  0  0  0  0  0  0  0  0  0  0
   -7.3212    2.1743   -8.9581 N   0  0  0  0  0  0  0  0  0  0  0  0
   -7.6057    2.3125   -7.6421 C   0  0  0  0  0  0  0  0  0  0  0  0
   -6.9408    1.3692   -6.9674 N   0  0  1  0  0  0  0  0  0  0  0  0
  1  2  1  1  0  0  0
  1  3  1  0  0  0  0
  1  4  2  0  0  0  0
  1  6  1  0  0  0  0
  5  6  1  0  0  0  0
  7  5  1  6  0  0  0
  7  8  1  0  0  0  0
  7  9  1  0  0  0  0
  9 10  1  1  0  0  0
  9 11  1  0  0  0  0
 11 12  1  1  0  0  0
 11 13  1  0  0  0  0
 13  8  1  1  0  0  0
 13 24  1  0  0  0  0
 14 15  1  0  0  0  0
 14 20  1  0  0  0  0
 15 16  1  1  0  0  0
 15 17  1  0  0  0  0
 18 17  1  6  0  0  0
 18 19  1  0  0  0  0
 18 24  1  0  0  0  0
 19 20  1  1  0  0  0
 19 22  1  0  0  0  0
 20 21  2  0  0  0  0
 22 23  1  0  0  0  0
 24 23  1  6  0  0  0
M  CHG  1   3  -1
M  END
>  <CHROM.1>
-69.89335306,60.63160832,69.24736323,-104.57458997,-8.08213386,0.57055588
-6.01763545,2.65069175,0.70328076,0.73149948

>  <Name>
ligand

>  <RI>
0

>  <Rbt.Current_Directory>
/home/itssahil/PROJECTS/Mol_Feturizer/New_Systems/rnas/3SLQ

>  <Rbt.Executable>
rbdock ($Id: //depot/dev/client3/rdock/2013.1/src/exe/rbdock.cxx#4 $)

>  <Rbt.Library>
libRbt.so (2013.1, Build901 2013/11/27)

>  <Rbt.Parameter_File>
/export/apps/rDock/src/rDock_2013.1_src/data/scripts/dock_solv.prm

>  <Rbt.Receptor>
prm/blind_docking_40.prm

>  <SCORE>
-18.3005

>  <SCORE.INTER>
-12.3242

>  <SCORE.INTER.CONST>
1

>  <SCORE.INTER.POLAR>
0

>  <SCORE.INTER.ROT>
4

>  <SCORE.INTER.SOLV>
18.4435

>  <SCORE.INTER.VDW>
-20.6307

>  <SCORE.INTER.norm>
-0.513509

>  <SCORE.INTRA>
-5.97623

>  <SCORE.INTRA.DIHEDRAL>
-11.4953

>  <SCORE.INTRA.DIHEDRAL.0>
13.2525

>  <SCORE.INTRA.POLAR>
0

>  <SCORE.INTRA.POLAR.0>
0

>  <SCORE.INTRA.REPUL>
0

>  <SCORE.INTRA.REPUL.0>
0

>  <SCORE.INTRA.SOLV>
0.917225

>  <SCORE.INTRA.SOLV.lig_0>
-70.7221

>  <SCORE.INTRA.VDW>
-0.687212

>  <SCORE.INTRA.VDW.0>
-1.46337

>  <SCORE.INTRA.norm>
-0.24901

>  <SCORE.RESTR>
0

>  <SCORE.RESTR.CAVITY>
0

>  <SCORE.RESTR.norm>
0

>  <SCORE.SYSTEM>
0

>  <SCORE.SYSTEM.CONST>
0

>  <SCORE.SYSTEM.DIHEDRAL>
0

>  <SCORE.SYSTEM.SOLV>
0

>  <SCORE.SYSTEM.norm>
0

>  <SCORE.heavy>
24

>  <SCORE.norm>
-0.762519

>  <RMSD>
18.771

$$$$
ligand
 OpenBabel11021811483D
libRbt.so/2013.1/901 2013/11/27
 24 26  0  0  0  0  0  0  0  0999 V2000
   -6.8252    1.2008   -7.3413 P   0  0  1  0  0  0  0  0  0  0  0  0
   -6.9149    2.4377   -6.4733 O   0  0  0  0  0  0  0  0  0  0  0  0
   -7.5465    1.2585   -8.6673 O   0  5  0  0  0  0  0  0  0  0  0  0
   -5.4204    0.6290   -7.4607 O   0  0  0  0  0  0  0  0  0  0  0  0
   -9.1460    0.2288   -6.3499 C   0  0  0  0  0  0  0  0  0  0  0  0
   -7.7271    0.1064   -6.5501 O   0  0  0  0  0  0  0  0  0  0  0  0
   -9.6557   -0.9426   -5.5052 C   0  0  1  0  0  0  0  0  0  0  0  0
   -9.4642   -2.2004   -6.1650 O   0  0  0  0  0  0  0  0  0  0  0  0
   -8.9909   -1.0865   -4.1469 C   0  0  1  0  0  0  0  0  0  0  0  0
   -9.7403   -0.3406   -3.1832 O   0  0  0  0  0  0  0  0  0  0  0  0
   -9.0662   -2.5803   -3.8766 C   0  0  1  0  0  0  0  0  0  0  0  0
  -10.3535   -2.9313   -3.3494 O   0  0  0  0  0  0  0  0  0  0  0  0
   -8.9970   -3.2048   -5.2560 C   0  0  2  0  0  0  0  0  0  0  0  0
   -6.0149   -3.6716   -9.3726 N   0  0  0  0  0  0  0  0  0  0  0  0
   -7.3346   -3.3855   -9.2955 C   0  0  1  0  0  0  0  0  0  0  0  0
   -8.0312   -3.1732  -10.4349 N   0  0  0  0  0  0  0  0  0  0  0  0
   -7.9620   -3.3102   -8.0985 N   0  0  0  0  0  0  0  0  0  0  0  0
   -7.2589   -3.5244   -6.9608 C   0  0  1  0  0  0  0  0  0  0  0  0
   -5.9108   -3.8200   -7.0099 C   0  0  2  0  0  0  0  0  0  0  0  0
   -5.2899   -3.8907   -8.2515 C   0  0  0  0  0  0  0  0  0  0  0  0
   -4.0746   -4.1548   -8.3410 O   0  0  0  0  0  0  0  0  0  0  0  0
   -5.4913   -3.9847   -5.7388 N   0  0  0  0  0  0  0  0  0  0  0  0
   -6.5545   -3.7877   -4.9247 C   0  0  0  0  0  0  0  0  0  0  0  0
   -7.6186   -3.5078   -5.6840 N   0  0  1  0  0  0  0  0  0  0  0  0
  1  2  1  1  0  0  0
  1  3  1  0  0  0  0
  1  4  2  0  0  0  0
  1  6  1  0  0  0  0
  5  6  1  0  0  0  0
  7  5  1  6  0  0  0
  7  8  1  0  0  0  0
  7  9  1  0  0  0  0
  9 10  1  1  0  0  0
  9 11  1  0  0  0  0
 11 12  1  6  0  0  0
 11 13  1  0  0  0  0
 13  8  1  6  0  0  0
 13 24  1  0  0  0  0
 14 15  1  0  0  0  0
 14 20  1  0  0  0  0
 15 16  1  6  0  0  0
 15 17  1  0  0  0  0
 18 17  1  1  0  0  0
 18 19  1  0  0  0  0
 18 24  1  0  0  0  0
 19 20  1  6  0  0  0
 19 22  1  0  0  0  0
 20 21  2  0  0  0  0
 22 23  1  0  0  0  0
 24 23  1  1  0  0  0
M  CHG  1   3  -1
M  END
>  <CHROM.1>
64.96012573,-62.90487066,-177.11785058,-36.47094450,-7.53989541,-1.72525198
-6.62405959,-2.69763542,-0.91478726,2.99604032

>  <Name>
ligand

>  <RI>
0

>  <Rbt.Current_Directory>
/home/itssahil/PROJECTS/Mol_Feturizer/New_Systems/rnas/3SLQ

>  <Rbt.Executable>
rbdock ($Id: //depot/dev/client3/rdock/2013.1/src/exe/rbdock.cxx#4 $)

>  <Rbt.Library>
libRbt.so (2013.1, Build901 2013/11/27)

>  <Rbt.Parameter_File>
/export/apps/rDock/src/rDock_2013.1_src/data/scripts/dock_solv.prm

>  <Rbt.Receptor>
prm/blind_docking_20.prm

>  <SCORE>
-16.4375

>  <SCORE.INTER>
-9.95779

>  <SCORE.INTER.CONST>
1

>  <SCORE.INTER.POLAR>
0

>  <SCORE.INTER.ROT>
4

>  <SCORE.INTER.SOLV>
11.8372

>  <SCORE.INTER.VDW>
-16.8509

>  <SCORE.INTER.norm>
-0.414908

>  <SCORE.INTRA>
-6.47971

>  <SCORE.INTRA.DIHEDRAL>
-11.9188

>  <SCORE.INTRA.DIHEDRAL.0>
13.2525

>  <SCORE.INTRA.POLAR>
0

>  <SCORE.INTRA.POLAR.0>
0

>  <SCORE.INTRA.REPUL>
0

>  <SCORE.INTRA.REPUL.0>
0

>  <SCORE.INTRA.SOLV>
0.129188

>  <SCORE.INTRA.SOLV.lig_0>
-70.7221

>  <SCORE.INTRA.VDW>
-0.584908

>  <SCORE.INTRA.VDW.0>
-1.46337

>  <SCORE.INTRA.norm>
-0.269988

>  <SCORE.RESTR>
0

>  <SCORE.RESTR.CAVITY>
0

>  <SCORE.RESTR.norm>
0

>  <SCORE.SYSTEM>
0

>  <SCORE.SYSTEM.CONST>
0

>  <SCORE.SYSTEM.DIHEDRAL>
0

>  <SCORE.SYSTEM.SOLV>
0

>  <SCORE.SYSTEM.norm>
0

>  <SCORE.heavy>
24

>  <SCORE.norm>
-0.684896

>  <RMSD>
18.783

$$$$
ligand
 OpenBabel11021811483D
libRbt.so/2013.1/901 2013/11/27
 24 26  0  0  0  0  0  0  0  0999 V2000
   -6.4740    0.6169   -9.7771 P   0  0  1  0  0  0  0  0  0  0  0  0
   -7.8326    0.3425  -10.3856 O   0  0  0  0  0  0  0  0  0  0  0  0
   -5.9246   -0.4471   -8.8562 O   0  5  0  0  0  0  0  0  0  0  0  0
   -5.4409    1.1235  -10.7724 O   0  0  0  0  0  0  0  0  0  0  0  0
   -7.8841    1.8518   -7.8277 C   0  0  0  0  0  0  0  0  0  0  0  0
   -6.7579    1.8178   -8.7214 O   0  0  0  0  0  0  0  0  0  0  0  0
   -7.8145    0.6691   -6.8570 C   0  0  1  0  0  0  0  0  0  0  0  0
   -7.3056    1.0590   -5.5752 O   0  0  0  0  0  0  0  0  0  0  0  0
   -9.1457   -0.0088   -6.5810 C   0  0  1  0  0  0  0  0  0  0  0  0
   -9.3310   -1.0673   -7.5255 O   0  0  0  0  0  0  0  0  0  0  0  0
   -8.9795   -0.5450   -5.1686 C   0  0  1  0  0  0  0  0  0  0  0  0
   -8.2785   -1.7966   -5.1854 O   0  0  0  0  0  0  0  0  0  0  0  0
   -8.0428    0.4478   -4.5091 C   0  0  2  0  0  0  0  0  0  0  0  0
   -7.6312    5.3718   -3.2280 N   0  0  0  0  0  0  0  0  0  0  0  0
   -6.7441    4.5720   -3.8626 C   0  0  1  0  0  0  0  0  0  0  0  0
   -5.5542    5.0840   -4.2506 N   0  0  0  0  0  0  0  0  0  0  0  0
   -7.0319    3.2730   -4.1119 N   0  0  0  0  0  0  0  0  0  0  0  0
   -8.2253    2.7659   -3.7203 C   0  0  1  0  0  0  0  0  0  0  0  0
   -9.1492    3.5592   -3.0690 C   0  0  2  0  0  0  0  0  0  0  0  0
   -8.8298    4.8900   -2.8258 C   0  0  0  0  0  0  0  0  0  0  0  0
   -9.6350    5.6408   -2.2407 O   0  0  0  0  0  0  0  0  0  0  0  0
  -10.2222    2.7866   -2.8030 N   0  0  0  0  0  0  0  0  0  0  0  0
   -9.9685    1.5479   -3.2858 C   0  0  0  0  0  0  0  0  0  0  0  0
   -8.7523    1.5545   -3.8406 N   0  0  1  0  0  0  0  0  0  0  0  0
  1  2  1  6  0  0  0
  1  3  1  0  0  0  0
  1  4  2  0  0  0  0
  1  6  1  0  0  0  0
  5  6  1  0  0  0  0
  7  5  1  6  0  0  0
  7  8  1  0  0  0  0
  7  9  1  0  0  0  0
  9 10  1  6  0  0  0
  9 11  1  0  0  0  0
 11 12  1  6  0  0  0
 11 13  1  0  0  0  0
 13  8  1  6  0  0  0
 13 24  1  0  0  0  0
 14 15  1  0  0  0  0
 14 20  1  0  0  0  0
 15 16  1  1  0  0  0
 15 17  1  0  0  0  0
 18 17  1  6  0  0  0
 18 19  1  0  0  0  0
 18 24  1  0  0  0  0
 19 20  1  1  0  0  0
 19 22  1  0  0  0  0
 20 21  2  0  0  0  0
 22 23  1  0  0  0  0
 24 23  1  6  0  0  0
M  CHG  1   3  -1
M  END
>  <CHROM.1>
43.76084511,100.39171736,62.77787386,-34.89759146,-7.84438522,1.74703787
-5.96487479,-1.19438855,0.92606374,0.71949259

>  <Name>
ligand

>  <RI>
0

>  <Rbt.Current_Directory>
/home/itssahil/PROJECTS/Mol_Feturizer/New_Systems/rnas/3SLQ

>  <Rbt.Executable>
rbdock ($Id: //depot/dev/client3/rdock/2013.1/src/exe/rbdock.cxx#4 $)

>  <Rbt.Library>
libRbt.so (2013.1, Build901 2013/11/27)

>  <Rbt.Parameter_File>
/export/apps/rDock/src/rDock_2013.1_src/data/scripts/dock_solv.prm

>  <Rbt.Receptor>
prm/blind_docking_100.prm

>  <SCORE>
-18.7252

>  <SCORE.INTER>
-15.8254

>  <SCORE.INTER.CONST>
1

>  <SCORE.INTER.POLAR>
0

>  <SCORE.INTER.ROT>
4

>  <SCORE.INTER.SOLV>
13.8754

>  <SCORE.INTER.VDW>
-21.4421

>  <SCORE.INTER.norm>
-0.659391

>  <SCORE.INTRA>
-2.89984

>  <SCORE.INTRA.DIHEDRAL>
-7.58513

>  <SCORE.INTRA.DIHEDRAL.0>
13.2525

>  <SCORE.INTRA.POLAR>
0

>  <SCORE.INTRA.POLAR.0>
0

>  <SCORE.INTRA.REPUL>
0

>  <SCORE.INTRA.REPUL.0>
0

>  <SCORE.INTRA.SOLV>
2.48117

>  <SCORE.INTRA.SOLV.lig_0>
-70.7221

>  <SCORE.INTRA.VDW>
-0.347856

>  <SCORE.INTRA.VDW.0>
-1.46337

>  <SCORE.INTRA.norm>
-0.120827

>  <SCORE.RESTR>
0

>  <SCORE.RESTR.CAVITY>
0

>  <SCORE.RESTR.norm>
0

>  <SCORE.SYSTEM>
0

>  <SCORE.SYSTEM.CONST>
0

>  <SCORE.SYSTEM.DIHEDRAL>
0

>  <SCORE.SYSTEM.SOLV>
0

>  <SCORE.SYSTEM.norm>
0

>  <SCORE.heavy>
24

>  <SCORE.norm>
-0.780217

>  <RMSD>
18.790

$$$$
ligand
 OpenBabel11021811483D
libRbt.so/2013.1/901 2013/11/27
 24 26  0  0  0  0  0  0  0  0999 V2000
   -7.2908    0.4239   -9.5987 P   0  0  1  0  0  0  0  0  0  0  0  0
   -7.4761    1.8720   -9.1984 O   0  0  0  0  0  0  0  0  0  0  0  0
   -8.0876   -0.5947   -8.8179 O   0  5  0  0  0  0  0  0  0  0  0  0
   -7.3427    0.1853  -11.1003 O   0  0  0  0  0  0  0  0  0  0  0  0
   -5.4361   -0.2416   -7.7465 C   0  0  0  0  0  0  0  0  0  0  0  0
   -5.7832    0.0758   -9.1055 O   0  0  0  0  0  0  0  0  0  0  0  0
   -5.3893    1.0394   -6.9082 C   0  0  1  0  0  0  0  0  0  0  0  0
   -6.6819    1.6466   -6.7876 O   0  0  0  0  0  0  0  0  0  0  0  0
   -4.8893    0.8530   -5.4859 C   0  0  1  0  0  0  0  0  0  0  0  0
   -3.4710    1.0395   -5.4654 O   0  0  0  0  0  0  0  0  0  0  0  0
   -5.6067    1.9497   -4.7159 C   0  0  1  0  0  0  0  0  0  0  0  0
   -4.9151    3.1986   -4.8583 O   0  0  0  0  0  0  0  0  0  0  0  0
   -6.9201    2.1149   -5.4544 C   0  0  2  0  0  0  0  0  0  0  0  0
  -11.1350    2.1560   -2.5752 N   0  0  0  0  0  0  0  0  0  0  0  0
  -10.2950    3.1704   -2.8834 C   0  0  1  0  0  0  0  0  0  0  0  0
  -10.5483    4.4071   -2.3988 N   0  0  0  0  0  0  0  0  0  0  0  0
   -9.2104    2.9628   -3.6661 N   0  0  0  0  0  0  0  0  0  0  0  0
   -8.9617    1.7215   -4.1480 C   0  0  1  0  0  0  0  0  0  0  0  0
   -9.8016    0.6671   -3.8479 C   0  0  2  0  0  0  0  0  0  0  0  0
  -10.9090    0.9068   -3.0428 C   0  0  0  0  0  0  0  0  0  0  0  0
  -11.6927   -0.0169   -2.7475 O   0  0  0  0  0  0  0  0  0  0  0  0
   -9.3008   -0.4279   -4.4555 N   0  0  0  0  0  0  0  0  0  0  0  0
   -8.1825   -0.0555   -5.1208 C   0  0  0  0  0  0  0  0  0  0  0  0
   -7.9930    1.2531   -4.9239 N   0  0  1  0  0  0  0  0  0  0  0  0
  1  2  1  1  0  0  0
  1  3  1  0  0  0  0
  1  4  2  0  0  0  0
  1  6  1  0  0  0  0
  5  6  1  0  0  0  0
  7  5  1  1  0  0  0
  7  8  1  0  0  0  0
  7  9  1  0  0  0  0
  9 10  1  6  0  0  0
  9 11  1  0  0  0  0
 11 12  1  6  0  0  0
 11 13  1  0  0  0  0
 13  8  1  6  0  0  0
 13 24  1  0  0  0  0
 14 15  1  0  0  0  0
 14 20  1  0  0  0  0
 15 16  1  1  0  0  0
 15 17  1  0  0  0  0
 18 17  1  6  0  0  0
 18 19  1  0  0  0  0
 18 24  1  0  0  0  0
 19 20  1  1  0  0  0
 19 22  1  0  0  0  0
 20 21  2  0  0  0  0
 22 23  1  0  0  0  0
 24 23  1  6  0  0  0
M  CHG  1   3  -1
M  END
>  <CHROM.1>
79.82592156,65.74157011,-77.06838858,-141.70793971,-7.71320381,1.20442060
-5.94129926,0.96464536,-0.19758391,-1.94954162

>  <Name>
ligand

>  <RI>
0

>  <Rbt.Current_Directory>
/home/itssahil/PROJECTS/Mol_Feturizer/New_Systems/rnas/3SLQ

>  <Rbt.Executable>
rbdock ($Id: //depot/dev/client3/rdock/2013.1/src/exe/rbdock.cxx#4 $)

>  <Rbt.Library>
libRbt.so (2013.1, Build901 2013/11/27)

>  <Rbt.Parameter_File>
/export/apps/rDock/src/rDock_2013.1_src/data/scripts/dock_solv.prm

>  <Rbt.Receptor>
prm/blind_docking_20.prm

>  <SCORE>
-17.9741

>  <SCORE.INTER>
-13.2502

>  <SCORE.INTER.CONST>
1

>  <SCORE.INTER.POLAR>
0

>  <SCORE.INTER.ROT>
4

>  <SCORE.INTER.SOLV>
15.7416

>  <SCORE.INTER.VDW>
-20.3473

>  <SCORE.INTER.norm>
-0.552092

>  <SCORE.INTRA>
-4.72389

>  <SCORE.INTRA.DIHEDRAL>
-9.97654

>  <SCORE.INTRA.DIHEDRAL.0>
13.2525

>  <SCORE.INTRA.POLAR>
0

>  <SCORE.INTRA.POLAR.0>
0

>  <SCORE.INTRA.REPUL>
0

>  <SCORE.INTRA.REPUL.0>
0

>  <SCORE.INTRA.SOLV>
2.02043

>  <SCORE.INTRA.SOLV.lig_0>
-70.7221

>  <SCORE.INTRA.VDW>
-0.745836

>  <SCORE.INTRA.VDW.0>
-1.46337

>  <SCORE.INTRA.norm>
-0.196829

>  <SCORE.RESTR>
0

>  <SCORE.RESTR.CAVITY>
0

>  <SCORE.RESTR.norm>
0

>  <SCORE.SYSTEM>
0

>  <SCORE.SYSTEM.CONST>
0

>  <SCORE.SYSTEM.DIHEDRAL>
0

>  <SCORE.SYSTEM.SOLV>
0

>  <SCORE.SYSTEM.norm>
0

>  <SCORE.heavy>
24

>  <SCORE.norm>
-0.748921

>  <RMSD>
18.792

$$$$
ligand
 OpenBabel11021811483D
libRbt.so/2013.1/901 2013/11/27
 24 26  0  0  0  0  0  0  0  0999 V2000
   -4.1298   -0.5936   -9.7594 P   0  0  1  0  0  0  0  0  0  0  0  0
   -3.4741   -0.9766  -11.0690 O   0  0  0  0  0  0  0  0  0  0  0  0
   -3.2310    0.0272   -8.7160 O   0  5  0  0  0  0  0  0  0  0  0  0
   -5.4457    0.1528   -9.9212 O   0  0  0  0  0  0  0  0  0  0  0  0
   -4.9834   -2.1616   -7.7282 C   0  0  0  0  0  0  0  0  0  0  0  0
   -4.4662   -2.0214   -9.0627 O   0  0  0  0  0  0  0  0  0  0  0  0
   -5.0505   -3.6440   -7.3488 C   0  0  1  0  0  0  0  0  0  0  0  0
   -4.9652   -3.8372   -5.9312 O   0  0  0  0  0  0  0  0  0  0  0  0
   -6.3192   -4.3571   -7.7843 C   0  0  1  0  0  0  0  0  0  0  0  0
   -6.1127   -4.9167   -9.0847 O   0  0  0  0  0  0  0  0  0  0  0  0
   -6.4907   -5.4406   -6.7322 C   0  0  1  0  0  0  0  0  0  0  0  0
   -5.6738   -6.5779   -7.0443 O   0  0  0  0  0  0  0  0  0  0  0  0
   -5.8938   -4.8306   -5.4795 C   0  0  2  0  0  0  0  0  0  0  0  0
   -9.4304   -1.1557   -5.6907 N   0  0  0  0  0  0  0  0  0  0  0  0
   -8.6158   -1.6213   -6.6649 C   0  0  1  0  0  0  0  0  0  0  0  0
   -8.6976   -1.0872   -7.9045 N   0  0  0  0  0  0  0  0  0  0  0  0
   -7.7250   -2.6092   -6.4146 N   0  0  0  0  0  0  0  0  0  0  0  0
   -7.6473   -3.1397   -5.1707 C   0  0  1  0  0  0  0  0  0  0  0  0
   -8.4657   -2.6824   -4.1566 C   0  0  2  0  0  0  0  0  0  0  0  0
   -9.3725   -1.6678   -4.4398 C   0  0  0  0  0  0  0  0  0  0  0  0
  -10.1298   -1.2256   -3.5533 O   0  0  0  0  0  0  0  0  0  0  0  0
   -8.1590   -3.3861   -3.0477 N   0  0  0  0  0  0  0  0  0  0  0  0
   -7.1797   -4.2621   -3.3727 C   0  0  0  0  0  0  0  0  0  0  0  0
   -6.8829   -4.0991   -4.6659 N   0  0  1  0  0  0  0  0  0  0  0  0
  1  2  1  6  0  0  0
  1  3  1  0  0  0  0
  1  4  2  0  0  0  0
  1  6  1  0  0  0  0
  5  6  1  0  0  0  0
  7  5  1  1  0  0  0
  7  8  1  0  0  0  0
  7  9  1  0  0  0  0
  9 10  1  6  0  0  0
  9 11  1  0  0  0  0
 11 12  1  6  0  0  0
 11 13  1  0  0  0  0
 13  8  1  6  0  0  0
 13 24  1  0  0  0  0
 14 15  1  0  0  0  0
 14 20  1  0  0  0  0
 15 16  1  1  0  0  0
 15 17  1  0  0  0  0
 18 17  1  6  0  0  0
 18 19  1  0  0  0  0
 18 24  1  0  0  0  0
 19 20  1  1  0  0  0
 19 22  1  0  0  0  0
 20 21  2  0  0  0  0
 22 23  1  0  0  0  0
 24 23  1  6  0  0  0
M  CHG  1   3  -1
M  END
>  <CHROM.1>
173.67440988,153.77296483,-174.40389735,61.42962841,-6.39612575,-2.61858662
-6.95743535,0.61421843,0.75620775,-0.45164596

>  <Name>
ligand

>  <RI>
0

>  <Rbt.Current_Directory>
/home/itssahil/PROJECTS/Mol_Feturizer/New_Systems/rnas/3SLQ

>  <Rbt.Executable>
rbdock ($Id: //depot/dev/client3/rdock/2013.1/src/exe/rbdock.cxx#4 $)

>  <Rbt.Library>
libRbt.so (2013.1, Build901 2013/11/27)

>  <Rbt.Parameter_File>
/export/apps/rDock/src/rDock_2013.1_src/data/scripts/dock_solv.prm

>  <Rbt.Receptor>
prm/blind_docking_60.prm

>  <SCORE>
-15.6762

>  <SCORE.INTER>
-12.2695

>  <SCORE.INTER.CONST>
1

>  <SCORE.INTER.POLAR>
0

>  <SCORE.INTER.ROT>
4

>  <SCORE.INTER.SOLV>
14.2767

>  <SCORE.INTER.VDW>
-19.2052

>  <SCORE.INTER.norm>
-0.511229

>  <SCORE.INTRA>
-3.40674

>  <SCORE.INTRA.DIHEDRAL>
-9.70854

>  <SCORE.INTRA.DIHEDRAL.0>
13.2525

>  <SCORE.INTRA.POLAR>
0

>  <SCORE.INTRA.POLAR.0>
0

>  <SCORE.INTRA.REPUL>
0

>  <SCORE.INTRA.REPUL.0>
0

>  <SCORE.INTRA.SOLV>
2.97112

>  <SCORE.INTRA.SOLV.lig_0>
-70.7221

>  <SCORE.INTRA.VDW>
-0.0380307

>  <SCORE.INTRA.VDW.0>
-1.46337

>  <SCORE.INTRA.norm>
-0.141948

>  <SCORE.RESTR>
0

>  <SCORE.RESTR.CAVITY>
0

>  <SCORE.RESTR.norm>
0

>  <SCORE.SYSTEM>
0

>  <SCORE.SYSTEM.CONST>
0

>  <SCORE.SYSTEM.DIHEDRAL>
0

>  <SCORE.SYSTEM.SOLV>
0

>  <SCORE.SYSTEM.norm>
0

>  <SCORE.heavy>
24

>  <SCORE.norm>
-0.653176

>  <RMSD>
18.822

$$$$
ligand
 OpenBabel11021811483D
libRbt.so/2013.1/901 2013/11/27
 24 26  0  0  0  0  0  0  0  0999 V2000
   -6.4913   -0.2031  -10.4303 P   0  0  1  0  0  0  0  0  0  0  0  0
   -7.6529   -0.5102  -11.3511 O   0  0  0  0  0  0  0  0  0  0  0  0
   -5.4441   -1.2826  -10.2894 O   0  5  0  0  0  0  0  0  0  0  0  0
   -5.8878    1.1784  -10.6350 O   0  0  0  0  0  0  0  0  0  0  0  0
   -6.4512    0.1343   -7.7474 C   0  0  0  0  0  0  0  0  0  0  0  0
   -7.1552   -0.2262   -8.9485 O   0  0  0  0  0  0  0  0  0  0  0  0
   -7.3499   -0.0944   -6.5284 C   0  0  1  0  0  0  0  0  0  0  0  0
   -6.7082    0.3015   -5.3096 O   0  0  0  0  0  0  0  0  0  0  0  0
   -8.6702    0.6562   -6.5596 C   0  0  1  0  0  0  0  0  0  0  0  0
   -9.6590   -0.1715   -7.1794 O   0  0  0  0  0  0  0  0  0  0  0  0
   -8.9776    0.8852   -5.0888 C   0  0  1  0  0  0  0  0  0  0  0  0
   -9.5862   -0.2805   -4.5151 O   0  0  0  0  0  0  0  0  0  0  0  0
   -7.6107    1.0012   -4.4439 C   0  0  2  0  0  0  0  0  0  0  0  0
   -8.6226    5.6399   -2.5692 N   0  0  0  0  0  0  0  0  0  0  0  0
   -9.3282    4.4922   -2.4497 C   0  0  1  0  0  0  0  0  0  0  0  0
  -10.4782    4.4958   -1.7383 N   0  0  0  0  0  0  0  0  0  0  0  0
   -8.8993    3.3475   -3.0309 N   0  0  0  0  0  0  0  0  0  0  0  0
   -7.7468    3.3505   -3.7427 C   0  0  1  0  0  0  0  0  0  0  0  0
   -7.0072    4.5083   -3.8824 C   0  0  2  0  0  0  0  0  0  0  0  0
   -7.4689    5.6702   -3.2752 C   0  0  0  0  0  0  0  0  0  0  0  0
   -6.8319    6.7373   -3.3765 O   0  0  0  0  0  0  0  0  0  0  0  0
   -5.9314    4.2064   -4.6378 N   0  0  0  0  0  0  0  0  0  0  0  0
   -6.0025    2.8913   -4.9500 C   0  0  0  0  0  0  0  0  0  0  0  0
   -7.1104    2.3878   -4.3968 N   0  0  1  0  0  0  0  0  0  0  0  0
  1  2  1  6  0  0  0
  1  3  1  0  0  0  0
  1  4  2  0  0  0  0
  1  6  1  0  0  0  0
  5  6  1  0  0  0  0
  7  5  1  6  0  0  0
  7  8  1  0  0  0  0
  7  9  1  0  0  0  0
  9 10  1  1  0  0  0
  9 11  1  0  0  0  0
 11 12  1  1  0  0  0
 11 13  1  0  0  0  0
 13  8  1  6  0  0  0
 13 24  1  0  0  0  0
 14 15  1  0  0  0  0
 14 20  1  0  0  0  0
 15 16  1  6  0  0  0
 15 17  1  0  0  0  0
 18 17  1  1  0  0  0
 18 19  1  0  0  0  0
 18 24  1  0  0  0  0
 19 20  1  6  0  0  0
 19 22  1  0  0  0  0
 20 21  2  0  0  0  0
 22 23  1  0  0  0  0
 24 23  1  1  0  0  0
M  CHG  1   3  -1
M  END
>  <CHROM.1>
-174.10210717,-177.70013255,-176.13581241,176.14910881,-7.55930806,1.83521872
-6.08460768,-1.32368836,0.79473592,0.76745524

>  <Name>
ligand

>  <RI>
0

>  <Rbt.Current_Directory>
/home/itssahil/PROJECTS/Mol_Feturizer/New_Systems/rnas/3SLQ

>  <Rbt.Executable>
rbdock ($Id: //depot/dev/client3/rdock/2013.1/src/exe/rbdock.cxx#4 $)

>  <Rbt.Library>
libRbt.so (2013.1, Build901 2013/11/27)

>  <Rbt.Parameter_File>
/export/apps/rDock/src/rDock_2013.1_src/data/scripts/dock_solv.prm

>  <Rbt.Receptor>
prm/blind_docking_100.prm

>  <SCORE>
-16.7113

>  <SCORE.INTER>
-10.9326

>  <SCORE.INTER.CONST>
1

>  <SCORE.INTER.POLAR>
0

>  <SCORE.INTER.ROT>
4

>  <SCORE.INTER.SOLV>
15.8311

>  <SCORE.INTER.VDW>
-18.8321

>  <SCORE.INTER.norm>
-0.455524

>  <SCORE.INTRA>
-5.7974

>  <SCORE.INTRA.DIHEDRAL>
-11.9053

>  <SCORE.INTRA.DIHEDRAL.0>
13.2525

>  <SCORE.INTRA.POLAR>
0

>  <SCORE.INTRA.POLAR.0>
0

>  <SCORE.INTRA.REPUL>
0

>  <SCORE.INTRA.REPUL.0>
0

>  <SCORE.INTRA.SOLV>
0.618559

>  <SCORE.INTRA.SOLV.lig_0>
-70.7221

>  <SCORE.INTRA.VDW>
-0.15404

>  <SCORE.INTRA.VDW.0>
-1.46337

>  <SCORE.INTRA.norm>
-0.241558

>  <SCORE.RESTR>
0.0187076

>  <SCORE.RESTR.CAVITY>
0.0187076

>  <SCORE.RESTR.norm>
0.000779481

>  <SCORE.SYSTEM>
0

>  <SCORE.SYSTEM.CONST>
0

>  <SCORE.SYSTEM.DIHEDRAL>
0

>  <SCORE.SYSTEM.SOLV>
0

>  <SCORE.SYSTEM.norm>
0

>  <SCORE.heavy>
24

>  <SCORE.norm>
-0.696303

>  <RMSD>
18.846

$$$$
ligand
 OpenBabel11021811483D
libRbt.so/2013.1/901 2013/11/27
 24 26  0  0  0  0  0  0  0  0999 V2000
   -5.4796   -6.3682   -8.8343 P   0  0  1  0  0  0  0  0  0  0  0  0
   -6.5954   -6.7257   -9.7928 O   0  0  0  0  0  0  0  0  0  0  0  0
   -5.7008   -6.7278   -7.3840 O   0  5  0  0  0  0  0  0  0  0  0  0
   -4.0924   -6.7493   -9.3296 O   0  0  0  0  0  0  0  0  0  0  0  0
   -5.2811   -3.8818   -9.8792 C   0  0  0  0  0  0  0  0  0  0  0  0
   -5.5379   -4.7471   -8.7596 O   0  0  0  0  0  0  0  0  0  0  0  0
   -5.5649   -2.4280   -9.4897 C   0  0  1  0  0  0  0  0  0  0  0  0
   -6.8484   -2.2819   -8.8689 O   0  0  0  0  0  0  0  0  0  0  0  0
   -4.5675   -1.8218   -8.5173 C   0  0  1  0  0  0  0  0  0  0  0  0
   -3.5177   -1.1959   -9.2609 O   0  0  0  0  0  0  0  0  0  0  0  0
   -5.3968   -0.8004   -7.7563 C   0  0  1  0  0  0  0  0  0  0  0  0
   -5.5001    0.4202   -8.5032 O   0  0  0  0  0  0  0  0  0  0  0  0
   -6.7895   -1.3986   -7.7420 C   0  0  2  0  0  0  0  0  0  0  0  0
   -9.3068   -1.5869   -3.3053 N   0  0  0  0  0  0  0  0  0  0  0  0
   -9.2544   -0.5938   -4.2220 C   0  0  1  0  0  0  0  0  0  0  0  0
   -9.9508    0.5443   -4.0022 N   0  0  0  0  0  0  0  0  0  0  0  0
   -8.5172   -0.7252   -5.3496 N   0  0  0  0  0  0  0  0  0  0  0  0
   -7.8214   -1.8674   -5.5637 C   0  0  1  0  0  0  0  0  0  0  0  0
   -7.8553   -2.8970   -4.6439 C   0  0  2  0  0  0  0  0  0  0  0  0
   -8.6206   -2.7374   -3.4946 C   0  0  0  0  0  0  0  0  0  0  0  0
   -8.6789   -3.6420   -2.6384 O   0  0  0  0  0  0  0  0  0  0  0  0
   -7.0719   -3.8854   -5.1215 N   0  0  0  0  0  0  0  0  0  0  0  0
   -6.5728   -3.4776   -6.3116 C   0  0  0  0  0  0  0  0  0  0  0  0
   -7.0397   -2.2508   -6.5646 N   0  0  1  0  0  0  0  0  0  0  0  0
  1  2  1  6  0  0  0
  1  3  1  0  0  0  0
  1  4  2  0  0  0  0
  1  6  1  0  0  0  0
  5  6  1  0  0  0  0
  7  5  1  1  0  0  0
  7  8  1  0  0  0  0
  7  9  1  0  0  0  0
  9 10  1  6  0  0  0
  9 11  1  0  0  0  0
 11 12  1  6  0  0  0
 11 13  1  0  0  0  0
 13  8  1  6  0  0  0
 13 24  1  0  0  0  0
 14 15  1  0  0  0  0
 14 20  1  0  0  0  0
 15 16  1  1  0  0  0
 15 17  1  0  0  0  0
 18 17  1  6  0  0  0
 18 19  1  0  0  0  0
 18 24  1  0  0  0  0
 19 20  1  1  0  0  0
 19 22  1  0  0  0  0
 20 21  2  0  0  0  0
 22 23  1  0  0  0  0
 24 23  1  6  0  0  0
M  CHG  1   3  -1
M  END
>  <CHROM.1>
-64.06298631,-49.85786837,174.14491272,-138.02578752,-6.60689588,-3.07394897
-7.07576552,0.53149806,-0.95901953,3.10950188

>  <Name>
ligand

>  <RI>
0

>  <Rbt.Current_Directory>
/home/itssahil/PROJECTS/Mol_Feturizer/New_Systems/rnas/3SLQ

>  <Rbt.Executable>
rbdock ($Id: //depot/dev/client3/rdock/2013.1/src/exe/rbdock.cxx#4 $)

>  <Rbt.Library>
libRbt.so (2013.1, Build901 2013/11/27)

>  <Rbt.Parameter_File>
/export/apps/rDock/src/rDock_2013.1_src/data/scripts/dock_solv.prm

>  <Rbt.Receptor>
prm/blind_docking_100.prm

>  <SCORE>
-14.7212

>  <SCORE.INTER>
-8.03325

>  <SCORE.INTER.CONST>
1

>  <SCORE.INTER.POLAR>
0

>  <SCORE.INTER.ROT>
4

>  <SCORE.INTER.SOLV>
18.116

>  <SCORE.INTER.VDW>
-17.6608

>  <SCORE.INTER.norm>
-0.334719

>  <SCORE.INTRA>
-6.69063

>  <SCORE.INTRA.DIHEDRAL>
-11.4782

>  <SCORE.INTRA.DIHEDRAL.0>
13.2525

>  <SCORE.INTRA.POLAR>
0

>  <SCORE.INTRA.POLAR.0>
0

>  <SCORE.INTRA.REPUL>
0

>  <SCORE.INTRA.REPUL.0>
0

>  <SCORE.INTRA.SOLV>
0.305804

>  <SCORE.INTRA.SOLV.lig_0>
-70.7221

>  <SCORE.INTRA.VDW>
-1.10442

>  <SCORE.INTRA.VDW.0>
-1.46337

>  <SCORE.INTRA.norm>
-0.278776

>  <SCORE.RESTR>
0.00269906

>  <SCORE.RESTR.CAVITY>
0.00269906

>  <SCORE.RESTR.norm>
0.000112461

>  <SCORE.SYSTEM>
0

>  <SCORE.SYSTEM.CONST>
0

>  <SCORE.SYSTEM.DIHEDRAL>
0

>  <SCORE.SYSTEM.SOLV>
0

>  <SCORE.SYSTEM.norm>
0

>  <SCORE.heavy>
24

>  <SCORE.norm>
-0.613383

>  <RMSD>
18.847

$$$$
ligand
 OpenBabel11021811483D
libRbt.so/2013.1/901 2013/11/27
 24 26  0  0  0  0  0  0  0  0999 V2000
   -6.7913    0.1379  -10.1284 P   0  0  1  0  0  0  0  0  0  0  0  0
   -7.3706    0.1248  -11.5269 O   0  0  0  0  0  0  0  0  0  0  0  0
   -6.8687   -1.1595   -9.3586 O   0  5  0  0  0  0  0  0  0  0  0  0
   -5.4243    0.7987  -10.0309 O   0  0  0  0  0  0  0  0  0  0  0  0
   -7.6041    1.4992   -7.9376 C   0  0  0  0  0  0  0  0  0  0  0  0
   -7.8332    1.0557   -9.2863 O   0  0  0  0  0  0  0  0  0  0  0  0
   -7.6815    0.3084   -6.9775 C   0  0  1  0  0  0  0  0  0  0  0  0
   -7.2224    0.6505   -5.6636 O   0  0  0  0  0  0  0  0  0  0  0  0
   -9.0739   -0.2688   -6.7882 C   0  0  1  0  0  0  0  0  0  0  0  0
   -9.2812   -1.3043   -7.7534 O   0  0  0  0  0  0  0  0  0  0  0  0
   -9.0331   -0.8251   -5.3743 C   0  0  1  0  0  0  0  0  0  0  0  0
   -8.4282   -2.1260   -5.3632 O   0  0  0  0  0  0  0  0  0  0  0  0
   -8.0658    0.0899   -4.6498 C   0  0  2  0  0  0  0  0  0  0  0  0
   -7.4439    5.0208   -3.4857 N   0  0  0  0  0  0  0  0  0  0  0  0
   -6.5898    4.1676   -4.0956 C   0  0  1  0  0  0  0  0  0  0  0  0
   -5.3767    4.6172   -4.4888 N   0  0  0  0  0  0  0  0  0  0  0  0
   -6.9333    2.8769   -4.3150 N   0  0  0  0  0  0  0  0  0  0  0  0
   -8.1497    2.4323   -3.9182 C   0  0  1  0  0  0  0  0  0  0  0  0
   -9.0410    3.2811   -3.2918 C   0  0  2  0  0  0  0  0  0  0  0  0
   -8.6644    4.6021   -3.0790 C   0  0  0  0  0  0  0  0  0  0  0  0
   -9.4386    5.4017   -2.5168 O   0  0  0  0  0  0  0  0  0  0  0  0
  -10.1482    2.5631   -3.0134 N   0  0  0  0  0  0  0  0  0  0  0  0
   -9.9470    1.3030   -3.4647 C   0  0  0  0  0  0  0  0  0  0  0  0
   -8.7290    1.2426   -4.0123 N   0  0  1  0  0  0  0  0  0  0  0  0
  1  2  1  6  0  0  0
  1  3  1  0  0  0  0
  1  4  2  0  0  0  0
  1  6  1  0  0  0  0
  5  6  1  0  0  0  0
  7  5  1  6  0  0  0
  7  8  1  0  0  0  0
  7  9  1  0  0  0  0
  9 10  1  6  0  0  0
  9 11  1  0  0  0  0
 11 12  1  6  0  0  0
 11 13  1  0  0  0  0
 13  8  1  6  0  0  0
 13 24  1  0  0  0  0
 14 15  1  0  0  0  0
 14 20  1  0  0  0  0
 15 16  1  1  0  0  0
 15 17  1  0  0  0  0
 18 17  1  6  0  0  0
 18 19  1  0  0  0  0
 18 24  1  0  0  0  0
 19 20  1  1  0  0  0
 19 22  1  0  0  0  0
 20 21  2  0  0  0  0
 22 23  1  0  0  0  0
 24 23  1  6  0  0  0
M  CHG  1   3  -1
M  END
>  <CHROM.1>
-171.54463441,169.36347676,-69.61641421,-30.84043312,-7.87774592,1.37828715
-6.20471210,-1.28927060,0.95644528,0.78373017

>  <Name>
ligand

>  <RI>
0

>  <Rbt.Current_Directory>
/home/itssahil/PROJECTS/Mol_Feturizer/New_Systems/rnas/3SLQ

>  <Rbt.Executable>
rbdock ($Id: //depot/dev/client3/rdock/2013.1/src/exe/rbdock.cxx#4 $)

>  <Rbt.Library>
libRbt.so (2013.1, Build901 2013/11/27)

>  <Rbt.Parameter_File>
/export/apps/rDock/src/rDock_2013.1_src/data/scripts/dock_solv.prm

>  <Rbt.Receptor>
prm/blind_docking_80.prm

>  <SCORE>
-19.7973

>  <SCORE.INTER>
-15.9043

>  <SCORE.INTER.CONST>
1

>  <SCORE.INTER.POLAR>
0

>  <SCORE.INTER.ROT>
4

>  <SCORE.INTER.SOLV>
10.9921

>  <SCORE.INTER.VDW>
-20.5336

>  <SCORE.INTER.norm>
-0.662679

>  <SCORE.INTRA>
-3.89304

>  <SCORE.INTRA.DIHEDRAL>
-11.0661

>  <SCORE.INTRA.DIHEDRAL.0>
13.2525

>  <SCORE.INTRA.POLAR>
0

>  <SCORE.INTRA.POLAR.0>
0

>  <SCORE.INTRA.REPUL>
0

>  <SCORE.INTRA.REPUL.0>
0

>  <SCORE.INTRA.SOLV>
4.08965

>  <SCORE.INTRA.SOLV.lig_0>
-70.7221

>  <SCORE.INTRA.VDW>
-0.404807

>  <SCORE.INTRA.VDW.0>
-1.46337

>  <SCORE.INTRA.norm>
-0.16221

>  <SCORE.RESTR>
0

>  <SCORE.RESTR.CAVITY>
0

>  <SCORE.RESTR.norm>
0

>  <SCORE.SYSTEM>
0

>  <SCORE.SYSTEM.CONST>
0

>  <SCORE.SYSTEM.DIHEDRAL>
0

>  <SCORE.SYSTEM.SOLV>
0

>  <SCORE.SYSTEM.norm>
0

>  <SCORE.heavy>
24

>  <SCORE.norm>
-0.824889

>  <RMSD>
18.875

$$$$
ligand
 OpenBabel11021811483D
libRbt.so/2013.1/901 2013/11/27
 24 26  0  0  0  0  0  0  0  0999 V2000
   -6.4980   -0.1953  -10.4467 P   0  0  1  0  0  0  0  0  0  0  0  0
   -5.4224   -1.1323   -9.9403 O   0  0  0  0  0  0  0  0  0  0  0  0
   -6.2965    1.2741  -10.1597 O   0  5  0  0  0  0  0  0  0  0  0  0
   -6.9242   -0.4607  -11.8829 O   0  0  0  0  0  0  0  0  0  0  0  0
   -8.1606   -1.8466   -9.0968 C   0  0  0  0  0  0  0  0  0  0  0  0
   -7.7737   -0.5202   -9.4958 O   0  0  0  0  0  0  0  0  0  0  0  0
   -7.1147   -2.4290   -8.1414 C   0  0  1  0  0  0  0  0  0  0  0  0
   -7.0290   -1.6805   -6.9223 O   0  0  0  0  0  0  0  0  0  0  0  0
   -7.3643   -3.8678   -7.7227 C   0  0  1  0  0  0  0  0  0  0  0  0
   -6.7010   -4.7396   -8.6430 O   0  0  0  0  0  0  0  0  0  0  0  0
   -6.7426   -3.9423   -6.3377 C   0  0  1  0  0  0  0  0  0  0  0  0
   -5.3268   -4.1535   -6.4330 O   0  0  0  0  0  0  0  0  0  0  0  0
   -6.9182   -2.5426   -5.7830 C   0  0  2  0  0  0  0  0  0  0  0  0
   -9.8419    0.9398   -3.4632 N   0  0  0  0  0  0  0  0  0  0  0  0
   -8.6476    1.0934   -4.0793 C   0  0  1  0  0  0  0  0  0  0  0  0
   -8.0866    2.3225   -4.1338 N   0  0  0  0  0  0  0  0  0  0  0  0
   -8.0115    0.0373   -4.6380 N   0  0  0  0  0  0  0  0  0  0  0  0
   -8.5783   -1.1916   -4.5796 C   0  0  1  0  0  0  0  0  0  0  0  0
   -9.7961   -1.3776   -3.9554 C   0  0  2  0  0  0  0  0  0  0  0  0
  -10.4292   -0.2768   -3.3903 C   0  0  0  0  0  0  0  0  0  0  0  0
  -11.5296   -0.4006   -2.8171 O   0  0  0  0  0  0  0  0  0  0  0  0
  -10.0977   -2.6887   -4.0508 N   0  0  0  0  0  0  0  0  0  0  0  0
   -9.0929   -3.2952   -4.7248 C   0  0  0  0  0  0  0  0  0  0  0  0
   -8.1800   -2.3705   -5.0392 N   0  0  1  0  0  0  0  0  0  0  0  0
  1  2  1  1  0  0  0
  1  3  1  0  0  0  0
  1  4  2  0  0  0  0
  1  6  1  0  0  0  0
  5  6  1  0  0  0  0
  7  5  1  6  0  0  0
  7  8  1  0  0  0  0
  7  9  1  0  0  0  0
  9 10  1  6  0  0  0
  9 11  1  0  0  0  0
 11 12  1  6  0  0  0
 11 13  1  0  0  0  0
 13  8  1  6  0  0  0
 13 24  1  0  0  0  0
 14 15  1  0  0  0  0
 14 20  1  0  0  0  0
 15 16  1  1  0  0  0
 15 17  1  0  0  0  0
 18 17  1  6  0  0  0
 18 19  1  0  0  0  0
 18 24  1  0  0  0  0
 19 20  1  1  0  0  0
 19 22  1  0  0  0  0
 20 21  2  0  0  0  0
 22 23  1  0  0  0  0
 24 23  1  6  0  0  0
M  CHG  1   3  -1
M  END
>  <CHROM.1>
-41.25627601,63.55717295,68.57686909,-58.61717366,-7.80629151,-1.33077215
-6.82466889,0.31055491,1.08502290,-0.44363162

>  <Name>
ligand

>  <RI>
0

>  <Rbt.Current_Directory>
/home/itssahil/PROJECTS/Mol_Feturizer/New_Systems/rnas/3SLQ

>  <Rbt.Executable>
rbdock ($Id: //depot/dev/client3/rdock/2013.1/src/exe/rbdock.cxx#4 $)

>  <Rbt.Library>
libRbt.so (2013.1, Build901 2013/11/27)

>  <Rbt.Parameter_File>
/export/apps/rDock/src/rDock_2013.1_src/data/scripts/dock_solv.prm

>  <Rbt.Receptor>
prm/blind_docking_60.prm

>  <SCORE>
-13.3433

>  <SCORE.INTER>
-8.03014

>  <SCORE.INTER.CONST>
1

>  <SCORE.INTER.POLAR>
0

>  <SCORE.INTER.ROT>
4

>  <SCORE.INTER.SOLV>
17.4666

>  <SCORE.INTER.VDW>
-17.4423

>  <SCORE.INTER.norm>
-0.334589

>  <SCORE.INTRA>
-5.31321

>  <SCORE.INTRA.DIHEDRAL>
-11.1117

>  <SCORE.INTRA.DIHEDRAL.0>
13.2525

>  <SCORE.INTRA.POLAR>
0

>  <SCORE.INTRA.POLAR.0>
0

>  <SCORE.INTRA.REPUL>
0

>  <SCORE.INTRA.REPUL.0>
0

>  <SCORE.INTRA.SOLV>
0.718975

>  <SCORE.INTRA.SOLV.lig_0>
-70.7221

>  <SCORE.INTRA.VDW>
-0.116841

>  <SCORE.INTRA.VDW.0>
-1.46337

>  <SCORE.INTRA.norm>
-0.221384

>  <SCORE.RESTR>
0

>  <SCORE.RESTR.CAVITY>
0

>  <SCORE.RESTR.norm>
0

>  <SCORE.SYSTEM>
0

>  <SCORE.SYSTEM.CONST>
0

>  <SCORE.SYSTEM.DIHEDRAL>
0

>  <SCORE.SYSTEM.SOLV>
0

>  <SCORE.SYSTEM.norm>
0

>  <SCORE.heavy>
24

>  <SCORE.norm>
-0.555973

>  <RMSD>
18.901

$$$$
ligand
 OpenBabel11021811483D
libRbt.so/2013.1/901 2013/11/27
 24 26  0  0  0  0  0  0  0  0999 V2000
   -6.7786    0.4927   -9.9367 P   0  0  1  0  0  0  0  0  0  0  0  0
   -7.9340   -0.4509   -9.6791 O   0  0  0  0  0  0  0  0  0  0  0  0
   -6.1988    0.4775  -11.3315 O   0  5  0  0  0  0  0  0  0  0  0  0
   -7.0005    1.9017   -9.4075 O   0  0  0  0  0  0  0  0  0  0  0  0
   -5.5938   -0.3888   -7.6711 C   0  0  0  0  0  0  0  0  0  0  0  0
   -5.5538   -0.1548   -9.0895 O   0  0  0  0  0  0  0  0  0  0  0  0
   -5.6376    0.9475   -6.9239 C   0  0  1  0  0  0  0  0  0  0  0  0
   -6.9592    1.5012   -6.8962 O   0  0  0  0  0  0  0  0  0  0  0  0
   -5.1896    0.8824   -5.4738 C   0  0  1  0  0  0  0  0  0  0  0  0
   -3.7828    1.1352   -5.4119 O   0  0  0  0  0  0  0  0  0  0  0  0
   -5.9854    1.9950   -4.8112 C   0  0  1  0  0  0  0  0  0  0  0  0
   -5.3433    3.2618   -5.0143 O   0  0  0  0  0  0  0  0  0  0  0  0
   -7.2729    2.0483   -5.6095 C   0  0  2  0  0  0  0  0  0  0  0  0
  -11.3043    1.9999   -2.4787 N   0  0  0  0  0  0  0  0  0  0  0  0
  -10.4646    3.0157   -2.7827 C   0  0  1  0  0  0  0  0  0  0  0  0
  -10.6637    4.2279   -2.2174 N   0  0  0  0  0  0  0  0  0  0  0  0
   -9.4336    2.8338   -3.6407 N   0  0  0  0  0  0  0  0  0  0  0  0
   -9.2390    1.6171   -4.2032 C   0  0  1  0  0  0  0  0  0  0  0  0
  -10.0798    0.5617   -3.9095 C   0  0  2  0  0  0  0  0  0  0  0  0
  -11.1316    0.7748   -3.0261 C   0  0  0  0  0  0  0  0  0  0  0  0
  -11.9141   -0.1508   -2.7334 O   0  0  0  0  0  0  0  0  0  0  0  0
   -9.6384   -0.5063   -4.6048 N   0  0  0  0  0  0  0  0  0  0  0  0
   -8.5553   -0.1161   -5.3165 C   0  0  0  0  0  0  0  0  0  0  0  0
   -8.3285    1.1764   -5.0613 N   0  0  1  0  0  0  0  0  0  0  0  0
  1  2  1  1  0  0  0
  1  3  1  0  0  0  0
  1  4  2  0  0  0  0
  1  6  1  0  0  0  0
  5  6  1  0  0  0  0
  7  5  1  1  0  0  0
  7  8  1  0  0  0  0
  7  9  1  0  0  0  0
  9 10  1  6  0  0  0
  9 11  1  0  0  0  0
 11 12  1  6  0  0  0
 11 13  1  0  0  0  0
 13  8  1  6  0  0  0
 13 24  1  0  0  0  0
 14 15  1  0  0  0  0
 14 20  1  0  0  0  0
 15 16  1  1  0  0  0
 15 17  1  0  0  0  0
 18 17  1  6  0  0  0
 18 19  1  0  0  0  0
 18 24  1  0  0  0  0
 19 20  1  1  0  0  0
 19 22  1  0  0  0  0
 20 21  2  0  0  0  0
 22 23  1  0  0  0  0
 24 23  1  6  0  0  0
M  CHG  1   3  -1
M  END
>  <CHROM.1>
-58.28195178,80.43810243,-67.00252247,-151.56744076,-7.77851296,1.16345514
-6.04983535,0.93018931,-0.28554552,-1.97810464

>  <Name>
ligand

>  <RI>
0

>  <Rbt.Current_Directory>
/home/itssahil/PROJECTS/Mol_Feturizer/New_Systems/rnas/3SLQ

>  <Rbt.Executable>
rbdock ($Id: //depot/dev/client3/rdock/2013.1/src/exe/rbdock.cxx#4 $)

>  <Rbt.Library>
libRbt.so (2013.1, Build901 2013/11/27)

>  <Rbt.Parameter_File>
/export/apps/rDock/src/rDock_2013.1_src/data/scripts/dock_solv.prm

>  <Rbt.Receptor>
prm/blind_docking_60.prm

>  <SCORE>
-15.5956

>  <SCORE.INTER>
-11.3845

>  <SCORE.INTER.CONST>
1

>  <SCORE.INTER.POLAR>
0

>  <SCORE.INTER.ROT>
4

>  <SCORE.INTER.SOLV>
17.0182

>  <SCORE.INTER.VDW>
-19.5291

>  <SCORE.INTER.norm>
-0.474354

>  <SCORE.INTRA>
-4.34605

>  <SCORE.INTRA.DIHEDRAL>
-10.4161

>  <SCORE.INTRA.DIHEDRAL.0>
13.2525

>  <SCORE.INTRA.POLAR>
0

>  <SCORE.INTRA.POLAR.0>
0

>  <SCORE.INTRA.REPUL>
0

>  <SCORE.INTRA.REPUL.0>
0

>  <SCORE.INTRA.SOLV>
2.95624

>  <SCORE.INTRA.SOLV.lig_0>
-70.7221

>  <SCORE.INTRA.VDW>
-0.616127

>  <SCORE.INTRA.VDW.0>
-1.46337

>  <SCORE.INTRA.norm>
-0.181086

>  <SCORE.RESTR>
0.134921

>  <SCORE.RESTR.CAVITY>
0.134921

>  <SCORE.RESTR.norm>
0.00562171

>  <SCORE.SYSTEM>
0

>  <SCORE.SYSTEM.CONST>
0

>  <SCORE.SYSTEM.DIHEDRAL>
0

>  <SCORE.SYSTEM.SOLV>
0

>  <SCORE.SYSTEM.norm>
0

>  <SCORE.heavy>
24

>  <SCORE.norm>
-0.649818

>  <RMSD>
18.920

$$$$
ligand
 OpenBabel11021811483D
libRbt.so/2013.1/901 2013/11/27
 24 26  0  0  0  0  0  0  0  0999 V2000
   -6.0418   -4.2414   -5.8087 P   0  0  1  0  0  0  0  0  0  0  0  0
   -6.3979   -5.4668   -6.6231 O   0  0  0  0  0  0  0  0  0  0  0  0
   -7.1970   -3.4833   -5.1982 O   0  5  0  0  0  0  0  0  0  0  0  0
   -4.8987   -4.4603   -4.8288 O   0  0  0  0  0  0  0  0  0  0  0  0
   -4.6153   -3.4972   -7.9824 C   0  0  0  0  0  0  0  0  0  0  0  0
   -5.5287   -3.1739   -6.9197 O   0  0  0  0  0  0  0  0  0  0  0  0
   -4.3258   -2.2472   -8.8187 C   0  0  1  0  0  0  0  0  0  0  0  0
   -5.5236   -1.6796   -9.3637 O   0  0  0  0  0  0  0  0  0  0  0  0
   -3.6436   -1.1189   -8.0641 C   0  0  1  0  0  0  0  0  0  0  0  0
   -2.2263   -1.2708   -8.1859 O   0  0  0  0  0  0  0  0  0  0  0  0
   -4.1340    0.1285   -8.7809 C   0  0  1  0  0  0  0  0  0  0  0  0
   -3.3554    0.3683   -9.9619 O   0  0  0  0  0  0  0  0  0  0  0  0
   -5.5195   -0.2500   -9.2657 C   0  0  2  0  0  0  0  0  0  0  0  0
   -6.3933    2.0988   -4.8186 N   0  0  0  0  0  0  0  0  0  0  0  0
   -5.2308    1.9361   -5.4906 C   0  0  1  0  0  0  0  0  0  0  0  0
   -4.0921    2.4496   -4.9727 N   0  0  0  0  0  0  0  0  0  0  0  0
   -5.1945    1.2691   -6.6678 N   0  0  0  0  0  0  0  0  0  0  0  0
   -6.3385    0.7566   -7.1811 C   0  0  1  0  0  0  0  0  0  0  0  0
   -7.5393    0.9063   -6.5156 C   0  0  2  0  0  0  0  0  0  0  0  0
   -7.5498    1.5961   -5.3089 C   0  0  0  0  0  0  0  0  0  0  0  0
   -8.6121    1.7539   -4.6755 O   0  0  0  0  0  0  0  0  0  0  0  0
   -8.4856    0.2946   -7.2566 N   0  0  0  0  0  0  0  0  0  0  0  0
   -7.8834   -0.2137   -8.3570 C   0  0  0  0  0  0  0  0  0  0  0  0
   -6.5802    0.0778   -8.2949 N   0  0  1  0  0  0  0  0  0  0  0  0
  1  2  1  6  0  0  0
  1  3  1  0  0  0  0
  1  4  2  0  0  0  0
  1  6  1  0  0  0  0
  5  6  1  0  0  0  0
  7  5  1  1  0  0  0
  7  8  1  0  0  0  0
  7  9  1  0  0  0  0
  9 10  1  6  0  0  0
  9 11  1  0  0  0  0
 11 12  1  6  0  0  0
 11 13  1  0  0  0  0
 13  8  1  1  0  0  0
 13 24  1  0  0  0  0
 14 15  1  0  0  0  0
 14 20  1  0  0  0  0
 15 16  1  1  0  0  0
 15 17  1  0  0  0  0
 18 17  1  6  0  0  0
 18 19  1  0  0  0  0
 18 24  1  0  0  0  0
 19 20  1  1  0  0  0
 19 22  1  0  0  0  0
 20 21  2  0  0  0  0
 22 23  1  0  0  0  0
 24 23  1  6  0  0  0
M  CHG  1   3  -1
M  END
>  <CHROM.1>
-45.64045143,-57.75122709,-178.65982461,121.60229126,-5.70628412,-1.00770122
-6.98745746,1.32482403,-0.80189310,3.04702437

>  <Name>
ligand

>  <RI>
0

>  <Rbt.Current_Directory>
/home/itssahil/PROJECTS/Mol_Feturizer/New_Systems/rnas/3SLQ

>  <Rbt.Executable>
rbdock ($Id: //depot/dev/client3/rdock/2013.1/src/exe/rbdock.cxx#4 $)

>  <Rbt.Library>
libRbt.so (2013.1, Build901 2013/11/27)

>  <Rbt.Parameter_File>
/export/apps/rDock/src/rDock_2013.1_src/data/scripts/dock_solv.prm

>  <Rbt.Receptor>
prm/blind_docking_80.prm

>  <SCORE>
-15.4124

>  <SCORE.INTER>
-10.1373

>  <SCORE.INTER.CONST>
1

>  <SCORE.INTER.POLAR>
0

>  <SCORE.INTER.ROT>
4

>  <SCORE.INTER.SOLV>
15.8036

>  <SCORE.INTER.VDW>
-18.2927

>  <SCORE.INTER.norm>
-0.422386

>  <SCORE.INTRA>
-5.2751

>  <SCORE.INTRA.DIHEDRAL>
-11.6994

>  <SCORE.INTRA.DIHEDRAL.0>
13.2525

>  <SCORE.INTRA.POLAR>
0

>  <SCORE.INTRA.POLAR.0>
0

>  <SCORE.INTRA.REPUL>
0

>  <SCORE.INTRA.REPUL.0>
0

>  <SCORE.INTRA.SOLV>
0.0730538

>  <SCORE.INTRA.SOLV.lig_0>
-70.7221

>  <SCORE.INTRA.VDW>
0.538088

>  <SCORE.INTRA.VDW.0>
-1.46337

>  <SCORE.INTRA.norm>
-0.219796

>  <SCORE.RESTR>
0

>  <SCORE.RESTR.CAVITY>
0

>  <SCORE.RESTR.norm>
0

>  <SCORE.SYSTEM>
0

>  <SCORE.SYSTEM.CONST>
0

>  <SCORE.SYSTEM.DIHEDRAL>
0

>  <SCORE.SYSTEM.SOLV>
0

>  <SCORE.SYSTEM.norm>
0

>  <SCORE.heavy>
24

>  <SCORE.norm>
-0.642182

>  <RMSD>
18.948

$$$$
ligand
 OpenBabel11021811483D
libRbt.so/2013.1/901 2013/11/27
 24 26  0  0  0  0  0  0  0  0999 V2000
   -6.2976   -0.1281  -10.5809 P   0  0  1  0  0  0  0  0  0  0  0  0
   -5.2601   -1.0631   -9.9972 O   0  0  0  0  0  0  0  0  0  0  0  0
   -5.9305    1.3365  -10.6256 O   0  5  0  0  0  0  0  0  0  0  0  0
   -6.9117   -0.6203  -11.8829 O   0  0  0  0  0  0  0  0  0  0  0  0
   -8.1528   -1.2930   -8.9951 C   0  0  0  0  0  0  0  0  0  0  0  0
   -7.4772   -0.1136   -9.4649 O   0  0  0  0  0  0  0  0  0  0  0  0
   -7.2074   -2.1205   -8.1192 C   0  0  1  0  0  0  0  0  0  0  0  0
   -7.0564   -1.5532   -6.8117 O   0  0  0  0  0  0  0  0  0  0  0  0
   -7.6413   -3.5590   -7.8945 C   0  0  1  0  0  0  0  0  0  0  0  0
   -7.0707   -4.3800   -8.9179 O   0  0  0  0  0  0  0  0  0  0  0  0
   -7.0635   -3.8897   -6.5281 C   0  0  1  0  0  0  0  0  0  0  0  0
   -5.6828   -4.2619   -6.6429 O   0  0  0  0  0  0  0  0  0  0  0  0
   -7.0773   -2.5629   -5.7951 C   0  0  2  0  0  0  0  0  0  0  0  0
   -9.7880    1.0388   -3.4001 N   0  0  0  0  0  0  0  0  0  0  0  0
   -8.5897    1.1351   -4.0199 C   0  0  1  0  0  0  0  0  0  0  0  0
   -7.9599    2.3312   -4.0563 N   0  0  0  0  0  0  0  0  0  0  0  0
   -8.0171    0.0545   -4.6001 N   0  0  0  0  0  0  0  0  0  0  0  0
   -8.6526   -1.1410   -4.5598 C   0  0  1  0  0  0  0  0  0  0  0  0
   -9.8762   -1.2685   -3.9324 C   0  0  2  0  0  0  0  0  0  0  0  0
  -10.4432   -0.1436   -3.3450 C   0  0  0  0  0  0  0  0  0  0  0  0
  -11.5464   -0.2147   -2.7682 O   0  0  0  0  0  0  0  0  0  0  0  0
  -10.2523   -2.5584   -4.0487 N   0  0  0  0  0  0  0  0  0  0  0  0
   -9.2865   -3.2092   -4.7385 C   0  0  0  0  0  0  0  0  0  0  0  0
   -8.3240   -2.3325   -5.0417 N   0  0  1  0  0  0  0  0  0  0  0  0
  1  2  1  1  0  0  0
  1  3  1  0  0  0  0
  1  4  2  0  0  0  0
  1  6  1  0  0  0  0
  5  6  1  0  0  0  0
  7  5  1  6  0  0  0
  7  8  1  0  0  0  0
  7  9  1  0  0  0  0
  9 10  1  6  0  0  0
  9 11  1  0  0  0  0
 11 12  1  6  0  0  0
 11 13  1  0  0  0  0
 13  8  1  6  0  0  0
 13 24  1  0  0  0  0
 14 15  1  0  0  0  0
 14 20  1  0  0  0  0
 15 16  1  1  0  0  0
 15 17  1  0  0  0  0
 18 17  1  6  0  0  0
 18 19  1  0  0  0  0
 18 24  1  0  0  0  0
 19 20  1  1  0  0  0
 19 22  1  0  0  0  0
 20 21  2  0  0  0  0
 22 23  1  0  0  0  0
 24 23  1  6  0  0  0
M  CHG  1   3  -1
M  END
>  <CHROM.1>
-56.57884297,76.55095612,71.30545363,-50.94533176,-7.83177280,-1.21095506
-6.87052811,0.15882271,1.09829331,-0.24606974

>  <Name>
ligand

>  <RI>
0

>  <Rbt.Current_Directory>
/home/itssahil/PROJECTS/Mol_Feturizer/New_Systems/rnas/3SLQ

>  <Rbt.Executable>
rbdock ($Id: //depot/dev/client3/rdock/2013.1/src/exe/rbdock.cxx#4 $)

>  <Rbt.Library>
libRbt.so (2013.1, Build901 2013/11/27)

>  <Rbt.Parameter_File>
/export/apps/rDock/src/rDock_2013.1_src/data/scripts/dock_solv.prm

>  <Rbt.Receptor>
prm/blind_docking_80.prm

>  <SCORE>
-13.339

>  <SCORE.INTER>
-8.12238

>  <SCORE.INTER.CONST>
1

>  <SCORE.INTER.POLAR>
0

>  <SCORE.INTER.ROT>
4

>  <SCORE.INTER.SOLV>
17.5557

>  <SCORE.INTER.VDW>
-17.5335

>  <SCORE.INTER.norm>
-0.338432

>  <SCORE.INTRA>
-5.21667

>  <SCORE.INTRA.DIHEDRAL>
-10.481

>  <SCORE.INTRA.DIHEDRAL.0>
13.2525

>  <SCORE.INTRA.POLAR>
0

>  <SCORE.INTRA.POLAR.0>
0

>  <SCORE.INTRA.REPUL>
0

>  <SCORE.INTRA.REPUL.0>
0

>  <SCORE.INTRA.SOLV>
0.723988

>  <SCORE.INTRA.SOLV.lig_0>
-70.7221

>  <SCORE.INTRA.VDW>
-0.338149

>  <SCORE.INTRA.VDW.0>
-1.46337

>  <SCORE.INTRA.norm>
-0.217361

>  <SCORE.RESTR>
0

>  <SCORE.RESTR.CAVITY>
0

>  <SCORE.RESTR.norm>
0

>  <SCORE.SYSTEM>
0

>  <SCORE.SYSTEM.CONST>
0

>  <SCORE.SYSTEM.DIHEDRAL>
0

>  <SCORE.SYSTEM.SOLV>
0

>  <SCORE.SYSTEM.norm>
0

>  <SCORE.heavy>
24

>  <SCORE.norm>
-0.555794

>  <RMSD>
18.975

$$$$
ligand
 OpenBabel11021811483D
libRbt.so/2013.1/901 2013/11/27
 24 26  0  0  0  0  0  0  0  0999 V2000
   -8.3145   -4.9262  -10.6545 P   0  0  1  0  0  0  0  0  0  0  0  0
   -9.0883   -5.7890   -9.6808 O   0  0  0  0  0  0  0  0  0  0  0  0
   -7.0003   -5.4848  -11.1472 O   0  5  0  0  0  0  0  0  0  0  0  0
   -9.1630   -4.3440  -11.7752 O   0  0  0  0  0  0  0  0  0  0  0  0
   -8.6715   -2.7464   -9.0943 C   0  0  0  0  0  0  0  0  0  0  0  0
   -7.7969   -3.6845   -9.7448 O   0  0  0  0  0  0  0  0  0  0  0  0
   -7.8451   -1.7089   -8.3283 C   0  0  1  0  0  0  0  0  0  0  0  0
   -8.6704   -0.6902   -7.7493 O   0  0  0  0  0  0  0  0  0  0  0  0
   -7.0210   -2.2699   -7.1821 C   0  0  1  0  0  0  0  0  0  0  0  0
   -5.7261   -2.6273   -7.6742 O   0  0  0  0  0  0  0  0  0  0  0  0
   -6.9447   -1.1086   -6.2044 C   0  0  1  0  0  0  0  0  0  0  0  0
   -5.9033   -0.1984   -6.5857 O   0  0  0  0  0  0  0  0  0  0  0  0
   -8.2474   -0.3642   -6.4195 C   0  0  2  0  0  0  0  0  0  0  0  0
  -11.5436    1.1704   -2.8366 N   0  0  0  0  0  0  0  0  0  0  0  0
  -10.5911    1.8769   -3.4871 C   0  0  1  0  0  0  0  0  0  0  0  0
  -10.4344    3.1898   -3.2037 N   0  0  0  0  0  0  0  0  0  0  0  0
   -9.7976    1.2882   -4.4123 N   0  0  0  0  0  0  0  0  0  0  0  0
   -9.9589   -0.0274   -4.6913 C   0  0  1  0  0  0  0  0  0  0  0  0
  -10.9224   -0.7733   -4.0412 C   0  0  2  0  0  0  0  0  0  0  0  0
  -11.7248   -0.1449   -3.0960 C   0  0  0  0  0  0  0  0  0  0  0  0
  -12.6066   -0.7813   -2.4859 O   0  0  0  0  0  0  0  0  0  0  0  0
  -10.8418   -2.0324   -4.5176 N   0  0  0  0  0  0  0  0  0  0  0  0
   -9.8566   -2.0602   -5.4453 C   0  0  0  0  0  0  0  0  0  0  0  0
   -9.3329   -0.8338   -5.5385 N   0  0  1  0  0  0  0  0  0  0  0  0
  1  2  1  1  0  0  0
  1  3  1  0  0  0  0
  1  4  2  0  0  0  0
  1  6  1  0  0  0  0
  5  6  1  0  0  0  0
  7  5  1  1  0  0  0
  7  8  1  0  0  0  0
  7  9  1  0  0  0  0
  9 10  1  6  0  0  0
  9 11  1  0  0  0  0
 11 12  1  6  0  0  0
 11 13  1  0  0  0  0
 13  8  1  6  0  0  0
 13 24  1  0  0  0  0
 14 15  1  0  0  0  0
 14 20  1  0  0  0  0
 15 16  1  1  0  0  0
 15 17  1  0  0  0  0
 18 17  1  6  0  0  0
 18 19  1  0  0  0  0
 18 24  1  0  0  0  0
 19 20  1  1  0  0  0
 19 22  1  0  0  0  0
 20 21  2  0  0  0  0
 22 23  1  0  0  0  0
 24 23  1  6  0  0  0
M  CHG  1   3  -1
M  END
>  <CHROM.1>
-63.20988102,175.42305386,-179.82077219,-123.53234730,-8.98358257,-1.72951083
-6.84178939,1.21111560,-0.42316434,-2.37519685

>  <Name>
ligand

>  <RI>
0

>  <Rbt.Current_Directory>
/home/itssahil/PROJECTS/Mol_Feturizer/New_Systems/rnas/3SLQ

>  <Rbt.Executable>
rbdock ($Id: //depot/dev/client3/rdock/2013.1/src/exe/rbdock.cxx#4 $)

>  <Rbt.Library>
libRbt.so (2013.1, Build901 2013/11/27)

>  <Rbt.Parameter_File>
/export/apps/rDock/src/rDock_2013.1_src/data/scripts/dock_solv.prm

>  <Rbt.Receptor>
prm/blind_docking_60.prm

>  <SCORE>
-14.603

>  <SCORE.INTER>
-8.13953

>  <SCORE.INTER.CONST>
1

>  <SCORE.INTER.POLAR>
0

>  <SCORE.INTER.ROT>
4

>  <SCORE.INTER.SOLV>
10.985

>  <SCORE.INTER.VDW>
-15.3547

>  <SCORE.INTER.norm>
-0.339147

>  <SCORE.INTRA>
-6.46351

>  <SCORE.INTRA.DIHEDRAL>
-11.9546

>  <SCORE.INTRA.DIHEDRAL.0>
13.2525

>  <SCORE.INTRA.POLAR>
0

>  <SCORE.INTRA.POLAR.0>
0

>  <SCORE.INTRA.REPUL>
0

>  <SCORE.INTRA.REPUL.0>
0

>  <SCORE.INTRA.SOLV>
0.0123165

>  <SCORE.INTRA.SOLV.lig_0>
-70.7221

>  <SCORE.INTRA.VDW>
-0.492389

>  <SCORE.INTRA.VDW.0>
-1.46337

>  <SCORE.INTRA.norm>
-0.269313

>  <SCORE.RESTR>
0

>  <SCORE.RESTR.CAVITY>
0

>  <SCORE.RESTR.norm>
0

>  <SCORE.SYSTEM>
0

>  <SCORE.SYSTEM.CONST>
0

>  <SCORE.SYSTEM.DIHEDRAL>
0

>  <SCORE.SYSTEM.SOLV>
0

>  <SCORE.SYSTEM.norm>
0

>  <SCORE.heavy>
24

>  <SCORE.norm>
-0.60846

>  <RMSD>
18.990

$$$$
ligand
 OpenBabel11021811483D
libRbt.so/2013.1/901 2013/11/27
 24 26  0  0  0  0  0  0  0  0999 V2000
   -2.3351    0.4602   -8.1579 P   0  0  1  0  0  0  0  0  0  0  0  0
   -3.0438    0.0511   -9.4314 O   0  0  0  0  0  0  0  0  0  0  0  0
   -1.9367   -0.6579   -7.2235 O   0  5  0  0  0  0  0  0  0  0  0  0
   -1.2217    1.4756   -8.3680 O   0  0  0  0  0  0  0  0  0  0  0  0
   -4.6166    0.4988   -6.7064 C   0  0  0  0  0  0  0  0  0  0  0  0
   -3.4954    1.1884   -7.2858 O   0  0  0  0  0  0  0  0  0  0  0  0
   -5.3983   -0.2352   -7.8000 C   0  0  1  0  0  0  0  0  0  0  0  0
   -5.2127   -1.6545   -7.7285 O   0  0  0  0  0  0  0  0  0  0  0  0
   -6.9012   -0.0157   -7.7664 C   0  0  1  0  0  0  0  0  0  0  0  0
   -7.2231    1.1110   -8.5871 O   0  0  0  0  0  0  0  0  0  0  0  0
   -7.4565   -1.3056   -8.3478 C   0  0  1  0  0  0  0  0  0  0  0  0
   -7.4233   -1.2658   -9.7816 O   0  0  0  0  0  0  0  0  0  0  0  0
   -6.4444   -2.3566   -7.9371 C   0  0  2  0  0  0  0  0  0  0  0  0
   -9.0499   -1.6778   -3.6005 N   0  0  0  0  0  0  0  0  0  0  0  0
   -8.9303   -0.8566   -4.6685 C   0  0  1  0  0  0  0  0  0  0  0  0
   -9.5720    0.3336   -4.6607 N   0  0  0  0  0  0  0  0  0  0  0  0
   -8.1799   -1.2102   -5.7381 N   0  0  0  0  0  0  0  0  0  0  0  0
   -7.5389   -2.4035   -5.7397 C   0  0  1  0  0  0  0  0  0  0  0  0
   -7.6421   -3.2610   -4.6620 C   0  0  2  0  0  0  0  0  0  0  0  0
   -8.4196   -2.8747   -3.5764 C   0  0  0  0  0  0  0  0  0  0  0  0
   -8.5395   -3.6186   -2.5830 O   0  0  0  0  0  0  0  0  0  0  0  0
   -6.9011   -4.3513   -4.9465 N   0  0  0  0  0  0  0  0  0  0  0  0
   -6.3599   -4.1733   -6.1743 C   0  0  0  0  0  0  0  0  0  0  0  0
   -6.7592   -2.9860   -6.6411 N   0  0  1  0  0  0  0  0  0  0  0  0
  1  2  1  6  0  0  0
  1  3  1  0  0  0  0
  1  4  2  0  0  0  0
  1  6  1  0  0  0  0
  5  6  1  0  0  0  0
  7  5  1  1  0  0  0
  7  8  1  0  0  0  0
  7  9  1  0  0  0  0
  9 10  1  6  0  0  0
  9 11  1  0  0  0  0
 11 12  1  6  0  0  0
 11 13  1  0  0  0  0
 13  8  1  1  0  0  0
 13 24  1  0  0  0  0
 14 15  1  0  0  0  0
 14 20  1  0  0  0  0
 15 16  1  1  0  0  0
 15 17  1  0  0  0  0
 18 17  1  6  0  0  0
 18 19  1  0  0  0  0
 18 24  1  0  0  0  0
 19 20  1  1  0  0  0
 19 22  1  0  0  0  0
 20 21  2  0  0  0  0
 22 23  1  0  0  0  0
 24 23  1  6  0  0  0
M  CHG  1   3  -1
M  END
>  <CHROM.1>
68.99606744,107.83244798,-57.12549669,93.47986323,-5.97351781,-1.08443320
-6.73983097,-0.71761806,-0.06983104,2.31550218

>  <Name>
ligand

>  <RI>
0

>  <Rbt.Current_Directory>
/home/itssahil/PROJECTS/Mol_Feturizer/New_Systems/rnas/3SLQ

>  <Rbt.Executable>
rbdock ($Id: //depot/dev/client3/rdock/2013.1/src/exe/rbdock.cxx#4 $)

>  <Rbt.Library>
libRbt.so (2013.1, Build901 2013/11/27)

>  <Rbt.Parameter_File>
/export/apps/rDock/src/rDock_2013.1_src/data/scripts/dock_solv.prm

>  <Rbt.Receptor>
prm/blind_docking_80.prm

>  <SCORE>
-11.4098

>  <SCORE.INTER>
-9.74381

>  <SCORE.INTER.CONST>
1

>  <SCORE.INTER.POLAR>
0

>  <SCORE.INTER.ROT>
4

>  <SCORE.INTER.SOLV>
11.9834

>  <SCORE.INTER.VDW>
-16.757

>  <SCORE.INTER.norm>
-0.405992

>  <SCORE.INTRA>
-1.66602

>  <SCORE.INTRA.DIHEDRAL>
-7.09806

>  <SCORE.INTRA.DIHEDRAL.0>
13.2525

>  <SCORE.INTRA.POLAR>
0

>  <SCORE.INTRA.POLAR.0>
0

>  <SCORE.INTRA.REPUL>
0

>  <SCORE.INTRA.REPUL.0>
0

>  <SCORE.INTRA.SOLV>
2.35843

>  <SCORE.INTRA.SOLV.lig_0>
-70.7221

>  <SCORE.INTRA.VDW>
0.703796

>  <SCORE.INTRA.VDW.0>
-1.46337

>  <SCORE.INTRA.norm>
-0.0694176

>  <SCORE.RESTR>
0

>  <SCORE.RESTR.CAVITY>
0

>  <SCORE.RESTR.norm>
0

>  <SCORE.SYSTEM>
0

>  <SCORE.SYSTEM.CONST>
0

>  <SCORE.SYSTEM.DIHEDRAL>
0

>  <SCORE.SYSTEM.SOLV>
0

>  <SCORE.SYSTEM.norm>
0

>  <SCORE.heavy>
24

>  <SCORE.norm>
-0.47541

>  <RMSD>
18.995

$$$$
ligand
 OpenBabel11021811483D
libRbt.so/2013.1/901 2013/11/27
 24 26  0  0  0  0  0  0  0  0999 V2000
   -5.4248   -0.2366  -10.4639 P   0  0  1  0  0  0  0  0  0  0  0  0
   -4.0150   -0.7865  -10.4251 O   0  0  0  0  0  0  0  0  0  0  0  0
   -5.7247    0.7630  -11.5560 O   0  5  0  0  0  0  0  0  0  0  0  0
   -6.5068   -1.2970  -10.3242 O   0  0  0  0  0  0  0  0  0  0  0  0
   -5.3032    0.2437   -7.8053 C   0  0  0  0  0  0  0  0  0  0  0  0
   -5.5062    0.7134   -9.1493 O   0  0  0  0  0  0  0  0  0  0  0  0
   -5.2961    1.4287   -6.8350 C   0  0  1  0  0  0  0  0  0  0  0  0
   -6.6035    1.9922   -6.6701 O   0  0  0  0  0  0  0  0  0  0  0  0
   -4.8102    1.1024   -5.4331 C   0  0  1  0  0  0  0  0  0  0  0  0
   -3.3969    1.3155   -5.3716 O   0  0  0  0  0  0  0  0  0  0  0  0
   -5.5620    2.0954   -4.5619 C   0  0  1  0  0  0  0  0  0  0  0  0
   -4.8970    3.3666   -4.5603 O   0  0  0  0  0  0  0  0  0  0  0  0
   -6.8693    2.3106   -5.2984 C   0  0  2  0  0  0  0  0  0  0  0  0
  -11.2085    1.9957   -2.6285 N   0  0  0  0  0  0  0  0  0  0  0  0
  -10.3975    3.0597   -2.8277 C   0  0  1  0  0  0  0  0  0  0  0  0
  -10.7227    4.2499   -2.2743 N   0  0  0  0  0  0  0  0  0  0  0  0
   -9.2709    2.9472   -3.5695 N   0  0  0  0  0  0  0  0  0  0  0  0
   -8.9502    1.7521   -4.1207 C   0  0  1  0  0  0  0  0  0  0  0  0
   -9.7592    0.6488   -3.9324 C   0  0  2  0  0  0  0  0  0  0  0  0
  -10.9108    0.7909   -3.1672 C   0  0  0  0  0  0  0  0  0  0  0  0
  -11.6689   -0.1797   -2.9722 O   0  0  0  0  0  0  0  0  0  0  0  0
   -9.1872   -0.3824   -4.5869 N   0  0  0  0  0  0  0  0  0  0  0  0
   -8.0560    0.0766   -5.1714 C   0  0  0  0  0  0  0  0  0  0  0  0
   -7.9291    1.3748   -4.8788 N   0  0  1  0  0  0  0  0  0  0  0  0
  1  2  1  6  0  0  0
  1  3  1  0  0  0  0
  1  4  2  0  0  0  0
  1  6  1  0  0  0  0
  5  6  1  0  0  0  0
  7  5  1  6  0  0  0
  7  8  1  0  0  0  0
  7  9  1  0  0  0  0
  9 10  1  6  0  0  0
  9 11  1  0  0  0  0
 11 12  1  6  0  0  0
 11 13  1  0  0  0  0
 13  8  1  6  0  0  0
 13 24  1  0  0  0  0
 14 15  1  0  0  0  0
 14 20  1  0  0  0  0
 15 16  1  1  0  0  0
 15 17  1  0  0  0  0
 18 17  1  6  0  0  0
 18 19  1  0  0  0  0
 18 24  1  0  0  0  0
 19 20  1  1  0  0  0
 19 22  1  0  0  0  0
 20 21  2  0  0  0  0
 22 23  1  0  0  0  0
 24 23  1  6  0  0  0
M  CHG  1   3  -1
M  END
>  <CHROM.1>
-59.64462706,71.53293824,173.63925145,-138.63030268,-7.21673777,1.12420278
-6.13864532,0.89782240,-0.32736650,-2.09447048

>  <Name>
ligand

>  <RI>
0

>  <Rbt.Current_Directory>
/home/itssahil/PROJECTS/Mol_Feturizer/New_Systems/rnas/3SLQ

>  <Rbt.Executable>
rbdock ($Id: //depot/dev/client3/rdock/2013.1/src/exe/rbdock.cxx#4 $)

>  <Rbt.Library>
libRbt.so (2013.1, Build901 2013/11/27)

>  <Rbt.Parameter_File>
/export/apps/rDock/src/rDock_2013.1_src/data/scripts/dock_solv.prm

>  <Rbt.Receptor>
prm/blind_docking_40.prm

>  <SCORE>
-20.404

>  <SCORE.INTER>
-14.1631

>  <SCORE.INTER.CONST>
1

>  <SCORE.INTER.POLAR>
0

>  <SCORE.INTER.ROT>
4

>  <SCORE.INTER.SOLV>
13.5724

>  <SCORE.INTER.VDW>
-20.2329

>  <SCORE.INTER.norm>
-0.590129

>  <SCORE.INTRA>
-6.24402

>  <SCORE.INTRA.DIHEDRAL>
-11.3706

>  <SCORE.INTRA.DIHEDRAL.0>
13.2525

>  <SCORE.INTRA.POLAR>
0

>  <SCORE.INTRA.POLAR.0>
0

>  <SCORE.INTRA.REPUL>
0

>  <SCORE.INTRA.REPUL.0>
0

>  <SCORE.INTRA.SOLV>
-0.209424

>  <SCORE.INTRA.SOLV.lig_0>
-70.7221

>  <SCORE.INTRA.VDW>
-0.454

>  <SCORE.INTRA.VDW.0>
-1.46337

>  <SCORE.INTRA.norm>
-0.260167

>  <SCORE.RESTR>
0.00311584

>  <SCORE.RESTR.CAVITY>
0.00311584

>  <SCORE.RESTR.norm>
0.000129826

>  <SCORE.SYSTEM>
0

>  <SCORE.SYSTEM.CONST>
0

>  <SCORE.SYSTEM.DIHEDRAL>
0

>  <SCORE.SYSTEM.SOLV>
0

>  <SCORE.SYSTEM.norm>
0

>  <SCORE.heavy>
24

>  <SCORE.norm>
-0.850166

>  <RMSD>
19.000

$$$$
ligand
 OpenBabel11021811483D
libRbt.so/2013.1/901 2013/11/27
 24 26  0  0  0  0  0  0  0  0999 V2000
   -7.8229   -2.0090  -11.6019 P   0  0  1  0  0  0  0  0  0  0  0  0
   -9.3096   -1.9129  -11.3338 O   0  0  0  0  0  0  0  0  0  0  0  0
   -7.3810   -3.1041  -12.5439 O   0  5  0  0  0  0  0  0  0  0  0  0
   -7.1604   -0.6727  -11.9018 O   0  0  0  0  0  0  0  0  0  0  0  0
   -7.4355   -1.9135   -8.9271 C   0  0  0  0  0  0  0  0  0  0  0  0
   -7.2103   -2.5482  -10.1978 O   0  0  0  0  0  0  0  0  0  0  0  0
   -6.6688   -2.6581   -7.8300 C   0  0  1  0  0  0  0  0  0  0  0  0
   -6.6856   -1.9438   -6.5876 O   0  0  0  0  0  0  0  0  0  0  0  0
   -7.1974   -4.0464   -7.5123 C   0  0  1  0  0  0  0  0  0  0  0  0
   -6.5213   -4.9994   -8.3377 O   0  0  0  0  0  0  0  0  0  0  0  0
   -6.8430   -4.2288   -6.0455 C   0  0  1  0  0  0  0  0  0  0  0  0
   -5.4792   -4.6520   -5.9069 O   0  0  0  0  0  0  0  0  0  0  0  0
   -6.9028   -2.8245   -5.4781 C   0  0  2  0  0  0  0  0  0  0  0  0
   -9.6952    1.0805   -3.7431 N   0  0  0  0  0  0  0  0  0  0  0  0
   -8.4086    1.0626   -4.1601 C   0  0  1  0  0  0  0  0  0  0  0  0
   -7.6959    2.2116   -4.1502 N   0  0  0  0  0  0  0  0  0  0  0  0
   -7.8301   -0.0853   -4.5842 N   0  0  0  0  0  0  0  0  0  0  0  0
   -8.5491   -1.2332   -4.5912 C   0  0  1  0  0  0  0  0  0  0  0  0
   -9.8641   -1.2444   -4.1692 C   0  0  2  0  0  0  0  0  0  0  0  0
  -10.4350   -0.0522   -3.7394 C   0  0  0  0  0  0  0  0  0  0  0  0
  -11.6191   -0.0179   -3.3501 O   0  0  0  0  0  0  0  0  0  0  0  0
  -10.3094   -2.5123   -4.2830 N   0  0  0  0  0  0  0  0  0  0  0  0
   -9.2949   -3.2636   -4.7710 C   0  0  0  0  0  0  0  0  0  0  0  0
   -8.2347   -2.4700   -4.9534 N   0  0  1  0  0  0  0  0  0  0  0  0
  1  2  1  1  0  0  0
  1  3  1  0  0  0  0
  1  4  2  0  0  0  0
  1  6  1  0  0  0  0
  5  6  1  0  0  0  0
  7  5  1  6  0  0  0
  7  8  1  0  0  0  0
  7  9  1  0  0  0  0
  9 10  1  6  0  0  0
  9 11  1  0  0  0  0
 11 12  1  6  0  0  0
 11 13  1  0  0  0  0
 13  8  1  6  0  0  0
 13 24  1  0  0  0  0
 14 15  1  0  0  0  0
 14 20  1  0  0  0  0
 15 16  1  1  0  0  0
 15 17  1  0  0  0  0
 18 17  1  6  0  0  0
 18 19  1  0  0  0  0
 18 24  1  0  0  0  0
 19 20  1  1  0  0  0
 19 22  1  0  0  0  0
 20 21  2  0  0  0  0
 22 23  1  0  0  0  0
 24 23  1  6  0  0  0
M  CHG  1   3  -1
M  END
>  <CHROM.1>
-54.18765947,170.62967376,-177.94425409,-54.98761486,-8.05283213,-1.87937261
-7.09088766,1.04279576,1.04317967,-1.40343493

>  <Name>
ligand

>  <RI>
0

>  <Rbt.Current_Directory>
/home/itssahil/PROJECTS/Mol_Feturizer/New_Systems/rnas/3SLQ

>  <Rbt.Executable>
rbdock ($Id: //depot/dev/client3/rdock/2013.1/src/exe/rbdock.cxx#4 $)

>  <Rbt.Library>
libRbt.so (2013.1, Build901 2013/11/27)

>  <Rbt.Parameter_File>
/export/apps/rDock/src/rDock_2013.1_src/data/scripts/dock_solv.prm

>  <Rbt.Receptor>
prm/blind_docking_40.prm

>  <SCORE>
-12.1259

>  <SCORE.INTER>
-6.08789

>  <SCORE.INTER.CONST>
1

>  <SCORE.INTER.POLAR>
0

>  <SCORE.INTER.ROT>
4

>  <SCORE.INTER.SOLV>
14.9228

>  <SCORE.INTER.VDW>
-15.2995

>  <SCORE.INTER.norm>
-0.253662

>  <SCORE.INTRA>
-6.03797

>  <SCORE.INTRA.DIHEDRAL>
-11.6562

>  <SCORE.INTRA.DIHEDRAL.0>
13.2525

>  <SCORE.INTRA.POLAR>
0

>  <SCORE.INTRA.POLAR.0>
0

>  <SCORE.INTRA.REPUL>
0

>  <SCORE.INTRA.REPUL.0>
0

>  <SCORE.INTRA.SOLV>
-0.0291566

>  <SCORE.INTRA.SOLV.lig_0>
-70.7221

>  <SCORE.INTRA.VDW>
-0.195277

>  <SCORE.INTRA.VDW.0>
-1.46337

>  <SCORE.INTRA.norm>
-0.251582

>  <SCORE.RESTR>
0

>  <SCORE.RESTR.CAVITY>
0

>  <SCORE.RESTR.norm>
0

>  <SCORE.SYSTEM>
0

>  <SCORE.SYSTEM.CONST>
0

>  <SCORE.SYSTEM.DIHEDRAL>
0

>  <SCORE.SYSTEM.SOLV>
0

>  <SCORE.SYSTEM.norm>
0

>  <SCORE.heavy>
24

>  <SCORE.norm>
-0.505244

>  <RMSD>
19.045

$$$$
ligand
 OpenBabel11021811483D
libRbt.so/2013.1/901 2013/11/27
 24 26  0  0  0  0  0  0  0  0999 V2000
   -7.8932   -2.0782  -11.6182 P   0  0  1  0  0  0  0  0  0  0  0  0
   -9.3832   -1.9420  -11.3880 O   0  0  0  0  0  0  0  0  0  0  0  0
   -7.4572   -3.1856  -12.5484 O   0  5  0  0  0  0  0  0  0  0  0  0
   -7.1876   -0.7605  -11.9014 O   0  0  0  0  0  0  0  0  0  0  0  0
   -7.5075   -1.9515   -8.9444 C   0  0  0  0  0  0  0  0  0  0  0  0
   -7.3313   -2.6324  -10.1989 O   0  0  0  0  0  0  0  0  0  0  0  0
   -6.7150   -2.6682   -7.8471 C   0  0  1  0  0  0  0  0  0  0  0  0
   -6.7271   -1.9366   -6.6147 O   0  0  0  0  0  0  0  0  0  0  0  0
   -7.2172   -4.0600   -7.5030 C   0  0  1  0  0  0  0  0  0  0  0  0
   -6.5367   -5.0139   -8.3238 O   0  0  0  0  0  0  0  0  0  0  0  0
   -6.8411   -4.2159   -6.0386 C   0  0  1  0  0  0  0  0  0  0  0  0
   -5.4690   -4.6155   -5.9119 O   0  0  0  0  0  0  0  0  0  0  0  0
   -6.9159   -2.8047   -5.4903 C   0  0  2  0  0  0  0  0  0  0  0  0
   -9.7296    1.0703   -3.7228 N   0  0  0  0  0  0  0  0  0  0  0  0
   -8.4467    1.0654   -4.1512 C   0  0  1  0  0  0  0  0  0  0  0  0
   -7.7447    2.2211   -4.1451 N   0  0  0  0  0  0  0  0  0  0  0  0
   -7.8611   -0.0761   -4.5826 N   0  0  0  0  0  0  0  0  0  0  0  0
   -8.5693   -1.2308   -4.5857 C   0  0  1  0  0  0  0  0  0  0  0  0
   -9.8804   -1.2551   -4.1523 C   0  0  2  0  0  0  0  0  0  0  0  0
  -10.4588   -0.0693   -3.7150 C   0  0  0  0  0  0  0  0  0  0  0  0
  -11.6396   -0.0469   -3.3153 O   0  0  0  0  0  0  0  0  0  0  0  0
  -10.3148   -2.5270   -4.2648 N   0  0  0  0  0  0  0  0  0  0  0  0
   -9.2975   -3.2678   -4.7631 C   0  0  0  0  0  0  0  0  0  0  0  0
   -8.2465   -2.4638   -4.9531 N   0  0  1  0  0  0  0  0  0  0  0  0
  1  2  1  1  0  0  0
  1  3  1  0  0  0  0
  1  4  2  0  0  0  0
  1  6  1  0  0  0  0
  5  6  1  0  0  0  0
  7  5  1  6  0  0  0
  7  8  1  0  0  0  0
  7  9  1  0  0  0  0
  9 10  1  6  0  0  0
  9 11  1  0  0  0  0
 11 12  1  6  0  0  0
 11 13  1  0  0  0  0
 13  8  1  6  0  0  0
 13 24  1  0  0  0  0
 14 15  1  0  0  0  0
 14 20  1  0  0  0  0
 15 16  1  1  0  0  0
 15 17  1  0  0  0  0
 18 17  1  6  0  0  0
 18 19  1  0  0  0  0
 18 24  1  0  0  0  0
 19 20  1  1  0  0  0
 19 22  1  0  0  0  0
 20 21  2  0  0  0  0
 22 23  1  0  0  0  0
 24 23  1  6  0  0  0
M  CHG  1   3  -1
M  END
>  <CHROM.1>
-57.82598268,172.92298981,-173.42328047,-56.01464719,-8.08969097,-1.90019960
-7.09146422,1.06876710,1.03270606,-1.43652798

>  <Name>
ligand

>  <RI>
0

>  <Rbt.Current_Directory>
/home/itssahil/PROJECTS/Mol_Feturizer/New_Systems/rnas/3SLQ

>  <Rbt.Executable>
rbdock ($Id: //depot/dev/client3/rdock/2013.1/src/exe/rbdock.cxx#4 $)

>  <Rbt.Library>
libRbt.so (2013.1, Build901 2013/11/27)

>  <Rbt.Parameter_File>
/export/apps/rDock/src/rDock_2013.1_src/data/scripts/dock_solv.prm

>  <Rbt.Receptor>
prm/blind_docking_40.prm

>  <SCORE>
-12.2343

>  <SCORE.INTER>
-6.21086

>  <SCORE.INTER.CONST>
1

>  <SCORE.INTER.POLAR>
0

>  <SCORE.INTER.ROT>
4

>  <SCORE.INTER.SOLV>
14.6973

>  <SCORE.INTER.VDW>
-15.3063

>  <SCORE.INTER.norm>
-0.258786

>  <SCORE.INTRA>
-6.02346

>  <SCORE.INTRA.DIHEDRAL>
-11.6475

>  <SCORE.INTRA.DIHEDRAL.0>
13.2525

>  <SCORE.INTRA.POLAR>
0

>  <SCORE.INTRA.POLAR.0>
0

>  <SCORE.INTRA.REPUL>
0

>  <SCORE.INTRA.REPUL.0>
0

>  <SCORE.INTRA.SOLV>
0.0116575

>  <SCORE.INTRA.SOLV.lig_0>
-70.7221

>  <SCORE.INTRA.VDW>
-0.205564

>  <SCORE.INTRA.VDW.0>
-1.46337

>  <SCORE.INTRA.norm>
-0.250978

>  <SCORE.RESTR>
0

>  <SCORE.RESTR.CAVITY>
0

>  <SCORE.RESTR.norm>
0

>  <SCORE.SYSTEM>
0

>  <SCORE.SYSTEM.CONST>
0

>  <SCORE.SYSTEM.DIHEDRAL>
0

>  <SCORE.SYSTEM.SOLV>
0

>  <SCORE.SYSTEM.norm>
0

>  <SCORE.heavy>
24

>  <SCORE.norm>
-0.509764

>  <RMSD>
19.045

$$$$
ligand
 OpenBabel11021811483D
libRbt.so/2013.1/901 2013/11/27
 24 26  0  0  0  0  0  0  0  0999 V2000
   -5.6439   -0.3524  -10.6018 P   0  0  1  0  0  0  0  0  0  0  0  0
   -4.2303   -0.8935  -10.5746 O   0  0  0  0  0  0  0  0  0  0  0  0
   -5.9550    0.6558  -11.6827 O   0  5  0  0  0  0  0  0  0  0  0  0
   -6.7183   -1.4211  -10.4677 O   0  0  0  0  0  0  0  0  0  0  0  0
   -5.5044    0.1046   -7.9399 C   0  0  0  0  0  0  0  0  0  0  0  0
   -5.7254    0.5842   -9.2776 O   0  0  0  0  0  0  0  0  0  0  0  0
   -5.4321    1.2863   -6.9683 C   0  0  1  0  0  0  0  0  0  0  0  0
   -6.7159    1.8903   -6.7651 O   0  0  0  0  0  0  0  0  0  0  0  0
   -4.9169    0.9412   -5.5815 C   0  0  1  0  0  0  0  0  0  0  0  0
   -3.4964    1.1095   -5.5601 O   0  0  0  0  0  0  0  0  0  0  0  0
   -5.6117    1.9552   -4.6875 C   0  0  1  0  0  0  0  0  0  0  0  0
   -4.9071    3.2049   -4.7028 O   0  0  0  0  0  0  0  0  0  0  0  0
   -6.9321    2.2134   -5.3859 C   0  0  2  0  0  0  0  0  0  0  0  0
  -11.2163    2.0354   -2.6162 N   0  0  0  0  0  0  0  0  0  0  0  0
  -10.3797    3.0746   -2.8390 C   0  0  1  0  0  0  0  0  0  0  0  0
  -10.6577    4.2760   -2.2842 N   0  0  0  0  0  0  0  0  0  0  0  0
   -9.2741    2.9264   -3.6058 N   0  0  0  0  0  0  0  0  0  0  0  0
   -9.0007    1.7203   -4.1582 C   0  0  1  0  0  0  0  0  0  0  0  0
   -9.8366    0.6416   -3.9461 C   0  0  2  0  0  0  0  0  0  0  0  0
  -10.9658    0.8202   -3.1555 C   0  0  0  0  0  0  0  0  0  0  0  0
  -11.7468   -0.1273   -2.9385 O   0  0  0  0  0  0  0  0  0  0  0  0
   -9.3096   -0.4084   -4.6085 N   0  0  0  0  0  0  0  0  0  0  0  0
   -8.1794    0.0152   -5.2208 C   0  0  0  0  0  0  0  0  0  0  0  0
   -8.0085    1.3104   -4.9375 N   0  0  1  0  0  0  0  0  0  0  0  0
  1  2  1  6  0  0  0
  1  3  1  0  0  0  0
  1  4  2  0  0  0  0
  1  6  1  0  0  0  0
  5  6  1  0  0  0  0
  7  5  1  6  0  0  0
  7  8  1  0  0  0  0
  7  9  1  0  0  0  0
  9 10  1  6  0  0  0
  9 11  1  0  0  0  0
 11 12  1  6  0  0  0
 11 13  1  0  0  0  0
 13  8  1  6  0  0  0
 13 24  1  0  0  0  0
 14 15  1  0  0  0  0
 14 20  1  0  0  0  0
 15 16  1  1  0  0  0
 15 17  1  0  0  0  0
 18 17  1  6  0  0  0
 18 19  1  0  0  0  0
 18 24  1  0  0  0  0
 19 20  1  1  0  0  0
 19 22  1  0  0  0  0
 20 21  2  0  0  0  0
 22 23  1  0  0  0  0
 24 23  1  6  0  0  0
M  CHG  1   3  -1
M  END
>  <CHROM.1>
-59.20401133,71.76332359,170.76172734,-138.10182592,-7.32538611,1.04521340
-6.22437983,0.93204708,-0.31422172,-2.08210186

>  <Name>
ligand

>  <RI>
0

>  <Rbt.Current_Directory>
/home/itssahil/PROJECTS/Mol_Feturizer/New_Systems/rnas/3SLQ

>  <Rbt.Executable>
rbdock ($Id: //depot/dev/client3/rdock/2013.1/src/exe/rbdock.cxx#4 $)

>  <Rbt.Library>
libRbt.so (2013.1, Build901 2013/11/27)

>  <Rbt.Parameter_File>
/export/apps/rDock/src/rDock_2013.1_src/data/scripts/dock_solv.prm

>  <Rbt.Receptor>
prm/blind_docking_20.prm

>  <SCORE>
-19.8076

>  <SCORE.INTER>
-13.6748

>  <SCORE.INTER.CONST>
1

>  <SCORE.INTER.POLAR>
0

>  <SCORE.INTER.ROT>
4

>  <SCORE.INTER.SOLV>
13.9744

>  <SCORE.INTER.VDW>
-20.0413

>  <SCORE.INTER.norm>
-0.569784

>  <SCORE.INTRA>
-6.13274

>  <SCORE.INTRA.DIHEDRAL>
-11.1366

>  <SCORE.INTRA.DIHEDRAL.0>
13.2525

>  <SCORE.INTRA.POLAR>
0

>  <SCORE.INTRA.POLAR.0>
0

>  <SCORE.INTRA.REPUL>
0

>  <SCORE.INTRA.REPUL.0>
0

>  <SCORE.INTRA.SOLV>
-0.219567

>  <SCORE.INTRA.SOLV.lig_0>
-70.7221

>  <SCORE.INTRA.VDW>
-0.45467

>  <SCORE.INTRA.VDW.0>
-1.46337

>  <SCORE.INTRA.norm>
-0.255531

>  <SCORE.RESTR>
0

>  <SCORE.RESTR.CAVITY>
0

>  <SCORE.RESTR.norm>
0

>  <SCORE.SYSTEM>
0

>  <SCORE.SYSTEM.CONST>
0

>  <SCORE.SYSTEM.DIHEDRAL>
0

>  <SCORE.SYSTEM.SOLV>
0

>  <SCORE.SYSTEM.norm>
0

>  <SCORE.heavy>
24

>  <SCORE.norm>
-0.825315

>  <RMSD>
19.051

$$$$
ligand
 OpenBabel11021811483D
libRbt.so/2013.1/901 2013/11/27
 24 26  0  0  0  0  0  0  0  0999 V2000
  -10.4513    2.0486   -4.4604 P   0  0  1  0  0  0  0  0  0  0  0  0
  -11.4012    2.3961   -5.5867 O   0  0  0  0  0  0  0  0  0  0  0  0
   -9.1269    2.7750   -4.4523 O   0  5  0  0  0  0  0  0  0  0  0  0
  -11.1072    2.0065   -3.0883 O   0  0  0  0  0  0  0  0  0  0  0  0
  -10.7454   -0.6389   -4.5296 C   0  0  0  0  0  0  0  0  0  0  0  0
   -9.9693    0.5383   -4.8126 O   0  0  0  0  0  0  0  0  0  0  0  0
   -9.9558   -1.8905   -4.9242 C   0  0  1  0  0  0  0  0  0  0  0  0
   -9.7510   -1.9687   -6.3405 O   0  0  0  0  0  0  0  0  0  0  0  0
   -8.5732   -1.9945   -4.3033 C   0  0  1  0  0  0  0  0  0  0  0  0
   -8.6736   -2.7054   -3.0659 O   0  0  0  0  0  0  0  0  0  0  0  0
   -7.7840   -2.7823   -5.3361 C   0  0  1  0  0  0  0  0  0  0  0  0
   -8.0223   -4.1890   -5.1850 O   0  0  0  0  0  0  0  0  0  0  0  0
   -8.4189   -2.3921   -6.6561 C   0  0  2  0  0  0  0  0  0  0  0  0
   -6.8757   -0.5008  -11.1392 N   0  0  0  0  0  0  0  0  0  0  0  0
   -7.4529   -1.6922  -10.8622 C   0  0  1  0  0  0  0  0  0  0  0  0
   -7.6932   -2.5594  -11.8715 N   0  0  0  0  0  0  0  0  0  0  0  0
   -7.7901   -2.0245   -9.5941 N   0  0  0  0  0  0  0  0  0  0  0  0
   -7.5462   -1.1518   -8.5873 C   0  0  1  0  0  0  0  0  0  0  0  0
   -6.9565    0.0710   -8.8411 C   0  0  2  0  0  0  0  0  0  0  0  0
   -6.6207    0.3884  -10.1520 C   0  0  0  0  0  0  0  0  0  0  0  0
   -6.0866    1.4815  -10.4250 O   0  0  0  0  0  0  0  0  0  0  0  0
   -6.8374    0.7101   -7.6595 N   0  0  0  0  0  0  0  0  0  0  0  0
   -7.3488   -0.0969   -6.7007 C   0  0  0  0  0  0  0  0  0  0  0  0
   -7.7756   -1.2221   -7.2826 N   0  0  1  0  0  0  0  0  0  0  0  0
  1  2  1  6  0  0  0
  1  3  1  0  0  0  0
  1  4  2  0  0  0  0
  1  6  1  0  0  0  0
  5  6  1  0  0  0  0
  7  5  1  6  0  0  0
  7  8  1  0  0  0  0
  7  9  1  0  0  0  0
  9 10  1  1  0  0  0
  9 11  1  0  0  0  0
 11 12  1  1  0  0  0
 11 13  1  0  0  0  0
 13  8  1  1  0  0  0
 13 24  1  0  0  0  0
 14 15  1  0  0  0  0
 14 20  1  0  0  0  0
 15 16  1  1  0  0  0
 15 17  1  0  0  0  0
 18 17  1  6  0  0  0
 18 19  1  0  0  0  0
 18 24  1  0  0  0  0
 19 20  1  1  0  0  0
 19 22  1  0  0  0  0
 20 21  2  0  0  0  0
 22 23  1  0  0  0  0
 24 23  1  6  0  0  0
M  CHG  1   3  -1
M  END
>  <CHROM.1>
-80.17382574,-66.09017389,-176.92305451,-105.67514797,-8.62183938,-0.46824195
-6.68265423,2.98267040,-1.10064658,2.69930375

>  <Name>
ligand

>  <RI>
0

>  <Rbt.Current_Directory>
/home/itssahil/PROJECTS/Mol_Feturizer/New_Systems/rnas/3SLQ

>  <Rbt.Executable>
rbdock ($Id: //depot/dev/client3/rdock/2013.1/src/exe/rbdock.cxx#4 $)

>  <Rbt.Library>
libRbt.so (2013.1, Build901 2013/11/27)

>  <Rbt.Parameter_File>
/export/apps/rDock/src/rDock_2013.1_src/data/scripts/dock_solv.prm

>  <Rbt.Receptor>
prm/blind_docking_40.prm

>  <SCORE>
-15.3523

>  <SCORE.INTER>
-8.94499

>  <SCORE.INTER.CONST>
1

>  <SCORE.INTER.POLAR>
0

>  <SCORE.INTER.ROT>
4

>  <SCORE.INTER.SOLV>
15.186

>  <SCORE.INTER.VDW>
-17.292

>  <SCORE.INTER.norm>
-0.372708

>  <SCORE.INTRA>
-6.40729

>  <SCORE.INTRA.DIHEDRAL>
-11.279

>  <SCORE.INTRA.DIHEDRAL.0>
13.2525

>  <SCORE.INTRA.POLAR>
0

>  <SCORE.INTRA.POLAR.0>
0

>  <SCORE.INTRA.REPUL>
0

>  <SCORE.INTRA.REPUL.0>
0

>  <SCORE.INTRA.SOLV>
0.117191

>  <SCORE.INTRA.SOLV.lig_0>
-70.7221

>  <SCORE.INTRA.VDW>
-0.826405

>  <SCORE.INTRA.VDW.0>
-1.46337

>  <SCORE.INTRA.norm>
-0.26697

>  <SCORE.RESTR>
0

>  <SCORE.RESTR.CAVITY>
0

>  <SCORE.RESTR.norm>
0

>  <SCORE.SYSTEM>
0

>  <SCORE.SYSTEM.CONST>
0

>  <SCORE.SYSTEM.DIHEDRAL>
0

>  <SCORE.SYSTEM.SOLV>
0

>  <SCORE.SYSTEM.norm>
0

>  <SCORE.heavy>
24

>  <SCORE.norm>
-0.639678

>  <RMSD>
19.070

$$$$
ligand
 OpenBabel11021811483D
libRbt.so/2013.1/901 2013/11/27
 24 26  0  0  0  0  0  0  0  0999 V2000
  -11.4172    0.9577   -3.6095 P   0  0  1  0  0  0  0  0  0  0  0  0
  -11.6838   -0.5165   -3.8267 O   0  0  0  0  0  0  0  0  0  0  0  0
  -11.6135    1.8580   -4.8065 O   0  5  0  0  0  0  0  0  0  0  0  0
  -12.0438    1.5198   -2.3421 O   0  0  0  0  0  0  0  0  0  0  0  0
   -8.8656    0.4057   -4.3151 C   0  0  0  0  0  0  0  0  0  0  0  0
   -9.8054    1.0372   -3.4284 O   0  0  0  0  0  0  0  0  0  0  0  0
   -7.5191    1.1328   -4.2505 C   0  0  1  0  0  0  0  0  0  0  0  0
   -6.5888    0.6213   -5.2133 O   0  0  0  0  0  0  0  0  0  0  0  0
   -7.5895    2.6292   -4.5028 C   0  0  1  0  0  0  0  0  0  0  0  0
   -7.7730    3.3013   -3.2533 O   0  0  0  0  0  0  0  0  0  0  0  0
   -6.2334    2.9457   -5.1119 C   0  0  1  0  0  0  0  0  0  0  0  0
   -5.2456    3.1058   -4.0838 O   0  0  0  0  0  0  0  0  0  0  0  0
   -5.8609    1.6769   -5.8530 C   0  0  2  0  0  0  0  0  0  0  0  0
   -5.6196   -0.9695  -10.2113 N   0  0  0  0  0  0  0  0  0  0  0  0
   -5.0381   -1.2255   -9.0173 C   0  0  1  0  0  0  0  0  0  0  0  0
   -4.2706   -2.3304   -8.8806 N   0  0  0  0  0  0  0  0  0  0  0  0
   -5.2142   -0.3934   -7.9643 N   0  0  0  0  0  0  0  0  0  0  0  0
   -5.9836    0.7122   -8.1076 C   0  0  1  0  0  0  0  0  0  0  0  0
   -6.5880    0.9991   -9.3158 C   0  0  2  0  0  0  0  0  0  0  0  0
   -6.3921    0.1281  -10.3812 C   0  0  0  0  0  0  0  0  0  0  0  0
   -6.9192    0.3497  -11.4893 O   0  0  0  0  0  0  0  0  0  0  0  0
   -7.2742    2.1491   -9.1561 N   0  0  0  0  0  0  0  0  0  0  0  0
   -7.1029    2.5575   -7.8771 C   0  0  0  0  0  0  0  0  0  0  0  0
   -6.3178    1.6721   -7.2552 N   0  0  1  0  0  0  0  0  0  0  0  0
  1  2  1  6  0  0  0
  1  3  1  0  0  0  0
  1  4  2  0  0  0  0
  1  6  1  0  0  0  0
  5  6  1  0  0  0  0
  7  5  1  6  0  0  0
  7  8  1  0  0  0  0
  7  9  1  0  0  0  0
  9 10  1  1  0  0  0
  9 11  1  0  0  0  0
 11 12  1  1  0  0  0
 11 13  1  0  0  0  0
 13  8  1  1  0  0  0
 13 24  1  0  0  0  0
 14 15  1  0  0  0  0
 14 20  1  0  0  0  0
 15 16  1  6  0  0  0
 15 17  1  0  0  0  0
 18 17  1  1  0  0  0
 18 19  1  0  0  0  0
 18 24  1  0  0  0  0
 19 20  1  6  0  0  0
 19 22  1  0  0  0  0
 20 21  2  0  0  0  0
 22 23  1  0  0  0  0
 24 23  1  1  0  0  0
M  CHG  1   3  -1
M  END
>  <CHROM.1>
48.46973348,-174.31472759,155.63250823,-71.39032400,-7.75542008,1.02718678
-6.16573855,2.28772160,0.32212440,1.07499989

>  <Name>
ligand

>  <RI>
0

>  <Rbt.Current_Directory>
/home/itssahil/PROJECTS/Mol_Feturizer/New_Systems/rnas/3SLQ

>  <Rbt.Executable>
rbdock ($Id: //depot/dev/client3/rdock/2013.1/src/exe/rbdock.cxx#4 $)

>  <Rbt.Library>
libRbt.so (2013.1, Build901 2013/11/27)

>  <Rbt.Parameter_File>
/export/apps/rDock/src/rDock_2013.1_src/data/scripts/dock_solv.prm

>  <Rbt.Receptor>
prm/blind_docking_20.prm

>  <SCORE>
-16.8826

>  <SCORE.INTER>
-12.4348

>  <SCORE.INTER.CONST>
1

>  <SCORE.INTER.POLAR>
0

>  <SCORE.INTER.ROT>
4

>  <SCORE.INTER.SOLV>
16.5507

>  <SCORE.INTER.VDW>
-20.0734

>  <SCORE.INTER.norm>
-0.518115

>  <SCORE.INTRA>
-4.44782

>  <SCORE.INTRA.DIHEDRAL>
-9.18444

>  <SCORE.INTRA.DIHEDRAL.0>
13.2525

>  <SCORE.INTRA.POLAR>
0

>  <SCORE.INTRA.POLAR.0>
0

>  <SCORE.INTRA.REPUL>
0

>  <SCORE.INTRA.REPUL.0>
0

>  <SCORE.INTRA.SOLV>
0.687572

>  <SCORE.INTRA.SOLV.lig_0>
-70.7221

>  <SCORE.INTRA.VDW>
-0.199387

>  <SCORE.INTRA.VDW.0>
-1.46337

>  <SCORE.INTRA.norm>
-0.185326

>  <SCORE.RESTR>
0

>  <SCORE.RESTR.CAVITY>
0

>  <SCORE.RESTR.norm>
0

>  <SCORE.SYSTEM>
0

>  <SCORE.SYSTEM.CONST>
0

>  <SCORE.SYSTEM.DIHEDRAL>
0

>  <SCORE.SYSTEM.SOLV>
0

>  <SCORE.SYSTEM.norm>
0

>  <SCORE.heavy>
24

>  <SCORE.norm>
-0.703441

>  <RMSD>
19.081

$$$$
ligand
 OpenBabel11021811483D
libRbt.so/2013.1/901 2013/11/27
 24 26  0  0  0  0  0  0  0  0999 V2000
   -4.2624    0.2708  -10.4186 P   0  0  1  0  0  0  0  0  0  0  0  0
   -4.8437    1.0262  -11.5946 O   0  0  0  0  0  0  0  0  0  0  0  0
   -3.9566   -1.1909  -10.6458 O   0  5  0  0  0  0  0  0  0  0  0  0
   -3.1342    1.0040   -9.7085 O   0  0  0  0  0  0  0  0  0  0  0  0
   -5.3600   -0.2085   -7.9938 C   0  0  0  0  0  0  0  0  0  0  0  0
   -5.5024    0.1650   -9.3753 O   0  0  0  0  0  0  0  0  0  0  0  0
   -5.2533    1.0470   -7.1232 C   0  0  1  0  0  0  0  0  0  0  0  0
   -6.5240    1.6872   -6.9507 O   0  0  0  0  0  0  0  0  0  0  0  0
   -4.7209    0.8074   -5.7208 C   0  0  1  0  0  0  0  0  0  0  0  0
   -3.2977    0.9529   -5.7346 O   0  0  0  0  0  0  0  0  0  0  0  0
   -5.3850    1.9025   -4.9022 C   0  0  1  0  0  0  0  0  0  0  0  0
   -4.6614    3.1346   -5.0302 O   0  0  0  0  0  0  0  0  0  0  0  0
   -6.7125    2.1251   -5.5994 C   0  0  2  0  0  0  0  0  0  0  0  0
  -10.8808    2.2205   -2.6545 N   0  0  0  0  0  0  0  0  0  0  0  0
  -10.0241    3.2204   -2.9636 C   0  0  1  0  0  0  0  0  0  0  0  0
  -10.2433    4.4562   -2.4603 N   0  0  0  0  0  0  0  0  0  0  0  0
   -8.9563    2.9995   -3.7655 N   0  0  0  0  0  0  0  0  0  0  0  0
   -8.7417    1.7592   -4.2661 C   0  0  1  0  0  0  0  0  0  0  0  0
   -9.5994    0.7193   -3.9657 C   0  0  2  0  0  0  0  0  0  0  0  0
  -10.6889    0.9726   -3.1406 C   0  0  0  0  0  0  0  0  0  0  0  0
  -11.4877    0.0622   -2.8442 O   0  0  0  0  0  0  0  0  0  0  0  0
   -9.1316   -0.3785   -4.5940 N   0  0  0  0  0  0  0  0  0  0  0  0
   -8.0159   -0.0218   -5.2722 C   0  0  0  0  0  0  0  0  0  0  0  0
   -7.7954    1.2800   -5.0626 N   0  0  1  0  0  0  0  0  0  0  0  0
  1  2  1  6  0  0  0
  1  3  1  0  0  0  0
  1  4  2  0  0  0  0
  1  6  1  0  0  0  0
  5  6  1  0  0  0  0
  7  5  1  1  0  0  0
  7  8  1  0  0  0  0
  7  9  1  0  0  0  0
  9 10  1  6  0  0  0
  9 11  1  0  0  0  0
 11 12  1  6  0  0  0
 11 13  1  0  0  0  0
 13  8  1  6  0  0  0
 13 24  1  0  0  0  0
 14 15  1  0  0  0  0
 14 20  1  0  0  0  0
 15 16  1  1  0  0  0
 15 17  1  0  0  0  0
 18 17  1  6  0  0  0
 18 19  1  0  0  0  0
 18 24  1  0  0  0  0
 19 20  1  1  0  0  0
 19 22  1  0  0  0  0
 20 21  2  0  0  0  0
 22 23  1  0  0  0  0
 24 23  1  6  0  0  0
M  CHG  1   3  -1
M  END
>  <CHROM.1>
-165.72298484,75.73658452,95.05469459,-140.53387072,-6.79363004,1.18122705
-6.26204229,0.78156678,-0.40108305,-2.18021852

>  <Name>
ligand

>  <RI>
0

>  <Rbt.Current_Directory>
/home/itssahil/PROJECTS/Mol_Feturizer/New_Systems/rnas/3SLQ

>  <Rbt.Executable>
rbdock ($Id: //depot/dev/client3/rdock/2013.1/src/exe/rbdock.cxx#4 $)

>  <Rbt.Library>
libRbt.so (2013.1, Build901 2013/11/27)

>  <Rbt.Parameter_File>
/export/apps/rDock/src/rDock_2013.1_src/data/scripts/dock_solv.prm

>  <Rbt.Receptor>
prm/blind_docking_40.prm

>  <SCORE>
-18.2601

>  <SCORE.INTER>
-15.2535

>  <SCORE.INTER.CONST>
1

>  <SCORE.INTER.POLAR>
0

>  <SCORE.INTER.ROT>
4

>  <SCORE.INTER.SOLV>
18.0985

>  <SCORE.INTER.VDW>
-22.4685

>  <SCORE.INTER.norm>
-0.635561

>  <SCORE.INTRA>
-3.00669

>  <SCORE.INTRA.DIHEDRAL>
-6.32415

>  <SCORE.INTRA.DIHEDRAL.0>
13.2525

>  <SCORE.INTRA.POLAR>
0

>  <SCORE.INTRA.POLAR.0>
0

>  <SCORE.INTRA.REPUL>
0

>  <SCORE.INTRA.REPUL.0>
0

>  <SCORE.INTRA.SOLV>
1.68112

>  <SCORE.INTRA.SOLV.lig_0>
-70.7221

>  <SCORE.INTRA.VDW>
-0.685172

>  <SCORE.INTRA.VDW.0>
-1.46337

>  <SCORE.INTRA.norm>
-0.125279

>  <SCORE.RESTR>
0

>  <SCORE.RESTR.CAVITY>
0

>  <SCORE.RESTR.norm>
0

>  <SCORE.SYSTEM>
0

>  <SCORE.SYSTEM.CONST>
0

>  <SCORE.SYSTEM.DIHEDRAL>
0

>  <SCORE.SYSTEM.SOLV>
0

>  <SCORE.SYSTEM.norm>
0

>  <SCORE.heavy>
24

>  <SCORE.norm>
-0.760839

>  <RMSD>
19.118

$$$$
ligand
 OpenBabel11021811483D
libRbt.so/2013.1/901 2013/11/27
 24 26  0  0  0  0  0  0  0  0999 V2000
   -7.2139   -1.1094  -10.3573 P   0  0  1  0  0  0  0  0  0  0  0  0
   -7.4901   -0.0508  -11.4035 O   0  0  0  0  0  0  0  0  0  0  0  0
   -8.4224   -1.7393   -9.7056 O   0  5  0  0  0  0  0  0  0  0  0  0
   -6.1697   -2.1343  -10.7745 O   0  0  0  0  0  0  0  0  0  0  0  0
   -7.3311    0.7165   -8.3659 C   0  0  0  0  0  0  0  0  0  0  0  0
   -6.5971   -0.2705   -9.1110 O   0  0  0  0  0  0  0  0  0  0  0  0
   -6.3961    1.4296   -7.3845 C   0  0  1  0  0  0  0  0  0  0  0  0
   -7.0823    2.4340   -6.6265 O   0  0  0  0  0  0  0  0  0  0  0  0
   -5.7347    0.5232   -6.3604 C   0  0  1  0  0  0  0  0  0  0  0  0
   -4.4865    0.0631   -6.8868 O   0  0  0  0  0  0  0  0  0  0  0  0
   -5.5315    1.4372   -5.1631 C   0  0  1  0  0  0  0  0  0  0  0  0
   -4.3409    2.2210   -5.3255 O   0  0  0  0  0  0  0  0  0  0  0  0
   -6.6877    2.4138   -5.2491 C   0  0  2  0  0  0  0  0  0  0  0  0
   -9.5444   -1.6917   -4.2289 N   0  0  0  0  0  0  0  0  0  0  0  0
   -8.4487   -1.5809   -5.0142 C   0  0  1  0  0  0  0  0  0  0  0  0
   -7.9789   -2.6780   -5.6498 N   0  0  0  0  0  0  0  0  0  0  0  0
   -7.8214   -0.3917   -5.1704 N   0  0  0  0  0  0  0  0  0  0  0  0
   -8.2973    0.7039   -4.5316 C   0  0  1  0  0  0  0  0  0  0  0  0
   -9.4151    0.6201   -3.7250 C   0  0  2  0  0  0  0  0  0  0  0  0
  -10.0404   -0.6129   -3.5805 C   0  0  0  0  0  0  0  0  0  0  0  0
  -11.0523   -0.7327   -2.8618 O   0  0  0  0  0  0  0  0  0  0  0  0
   -9.6490    1.8553   -3.2367 N   0  0  0  0  0  0  0  0  0  0  0  0
   -8.6930    2.6797   -3.7250 C   0  0  0  0  0  0  0  0  0  0  0  0
   -7.8804    1.9630   -4.5079 N   0  0  1  0  0  0  0  0  0  0  0  0
  1  2  1  6  0  0  0
  1  3  1  0  0  0  0
  1  4  2  0  0  0  0
  1  6  1  0  0  0  0
  5  6  1  0  0  0  0
  7  5  1  1  0  0  0
  7  8  1  0  0  0  0
  7  9  1  0  0  0  0
  9 10  1  6  0  0  0
  9 11  1  0  0  0  0
 11 12  1  6  0  0  0
 11 13  1  0  0  0  0
 13  8  1  6  0  0  0
 13 24  1  0  0  0  0
 14 15  1  0  0  0  0
 14 20  1  0  0  0  0
 15 16  1  6  0  0  0
 15 17  1  0  0  0  0
 18 17  1  1  0  0  0
 18 19  1  0  0  0  0
 18 24  1  0  0  0  0
 19 20  1  6  0  0  0
 19 22  1  0  0  0  0
 20 21  2  0  0  0  0
 22 23  1  0  0  0  0
 24 23  1  1  0  0  0
M  CHG  1   3  -1
M  END
>  <CHROM.1>
64.39887596,179.44246412,-172.91906755,73.45303232,-7.52692762,0.15886439
-6.53832024,1.15241462,-0.68988883,-2.08064709

>  <Name>
ligand

>  <RI>
0

>  <Rbt.Current_Directory>
/home/itssahil/PROJECTS/Mol_Feturizer/New_Systems/rnas/3SLQ

>  <Rbt.Executable>
rbdock ($Id: //depot/dev/client3/rdock/2013.1/src/exe/rbdock.cxx#4 $)

>  <Rbt.Library>
libRbt.so (2013.1, Build901 2013/11/27)

>  <Rbt.Parameter_File>
/export/apps/rDock/src/rDock_2013.1_src/data/scripts/dock_solv.prm

>  <Rbt.Receptor>
prm/blind_docking_40.prm

>  <SCORE>
-16.2799

>  <SCORE.INTER>
-11.7544

>  <SCORE.INTER.CONST>
1

>  <SCORE.INTER.POLAR>
0

>  <SCORE.INTER.ROT>
4

>  <SCORE.INTER.SOLV>
9.13414

>  <SCORE.INTER.VDW>
-17.1477

>  <SCORE.INTER.norm>
-0.489768

>  <SCORE.INTRA>
-4.52673

>  <SCORE.INTRA.DIHEDRAL>
-11.7597

>  <SCORE.INTRA.DIHEDRAL.0>
13.2525

>  <SCORE.INTRA.POLAR>
0

>  <SCORE.INTRA.POLAR.0>
0

>  <SCORE.INTRA.REPUL>
0

>  <SCORE.INTRA.REPUL.0>
0

>  <SCORE.INTRA.SOLV>
1.71862

>  <SCORE.INTRA.SOLV.lig_0>
-70.7221

>  <SCORE.INTRA.VDW>
0.493785

>  <SCORE.INTRA.VDW.0>
-1.46337

>  <SCORE.INTRA.norm>
-0.188614

>  <SCORE.RESTR>
0.00127771

>  <SCORE.RESTR.CAVITY>
0.00127771

>  <SCORE.RESTR.norm>
5.3238e-05

>  <SCORE.SYSTEM>
0

>  <SCORE.SYSTEM.CONST>
0

>  <SCORE.SYSTEM.DIHEDRAL>
0

>  <SCORE.SYSTEM.SOLV>
0

>  <SCORE.SYSTEM.norm>
0

>  <SCORE.heavy>
24

>  <SCORE.norm>
-0.678328

>  <RMSD>
19.136

$$$$
ligand
 OpenBabel11021811483D
libRbt.so/2013.1/901 2013/11/27
 24 26  0  0  0  0  0  0  0  0999 V2000
   -5.8458    3.1838   -4.0200 P   0  0  1  0  0  0  0  0  0  0  0  0
   -7.3053    2.9628   -3.6844 O   0  0  0  0  0  0  0  0  0  0  0  0
   -5.3928    4.6209   -4.1272 O   0  5  0  0  0  0  0  0  0  0  0  0
   -4.8873    2.3241   -3.2096 O   0  0  0  0  0  0  0  0  0  0  0  0
   -6.4712    1.6148   -6.1320 C   0  0  0  0  0  0  0  0  0  0  0  0
   -5.7287    2.7102   -5.5689 O   0  0  0  0  0  0  0  0  0  0  0  0
   -6.0975    1.4357   -7.6065 C   0  0  1  0  0  0  0  0  0  0  0  0
   -4.8465    0.7537   -7.7617 O   0  0  0  0  0  0  0  0  0  0  0  0
   -7.1010    0.6440   -8.4273 C   0  0  1  0  0  0  0  0  0  0  0  0
   -8.0509    1.5497   -8.9966 O   0  0  0  0  0  0  0  0  0  0  0  0
   -6.2413   -0.0077   -9.4980 C   0  0  1  0  0  0  0  0  0  0  0  0
   -5.9966    0.9099  -10.5734 O   0  0  0  0  0  0  0  0  0  0  0  0
   -4.9037   -0.2154   -8.8158 C   0  0  2  0  0  0  0  0  0  0  0  0
   -7.1944   -3.2704   -5.4281 N   0  0  0  0  0  0  0  0  0  0  0  0
   -7.5485   -2.0342   -5.8474 C   0  0  1  0  0  0  0  0  0  0  0  0
   -8.6652   -1.4614   -5.3439 N   0  0  0  0  0  0  0  0  0  0  0  0
   -6.8022   -1.3679   -6.7591 N   0  0  0  0  0  0  0  0  0  0  0  0
   -5.6843   -1.9467   -7.2593 C   0  0  1  0  0  0  0  0  0  0  0  0
   -5.2983   -3.2072   -6.8478 C   0  0  2  0  0  0  0  0  0  0  0  0
   -6.0823   -3.8706   -5.9112 C   0  0  0  0  0  0  0  0  0  0  0  0
   -5.7698   -5.0099   -5.5125 O   0  0  0  0  0  0  0  0  0  0  0  0
   -4.1608   -3.5112   -7.5055 N   0  0  0  0  0  0  0  0  0  0  0  0
   -3.8570   -2.4655   -8.3093 C   0  0  0  0  0  0  0  0  0  0  0  0
   -4.7938   -1.5256   -8.1477 N   0  0  1  0  0  0  0  0  0  0  0  0
  1  2  1  1  0  0  0
  1  3  1  0  0  0  0
  1  4  2  0  0  0  0
  1  6  1  0  0  0  0
  5  6  1  0  0  0  0
  7  5  1  1  0  0  0
  7  8  1  0  0  0  0
  7  9  1  0  0  0  0
  9 10  1  6  0  0  0
  9 11  1  0  0  0  0
 11 12  1  6  0  0  0
 11 13  1  0  0  0  0
 13  8  1  1  0  0  0
 13 24  1  0  0  0  0
 14 15  1  0  0  0  0
 14 20  1  0  0  0  0
 15 16  1  1  0  0  0
 15 17  1  0  0  0  0
 18 17  1  6  0  0  0
 18 19  1  0  0  0  0
 18 24  1  0  0  0  0
 19 20  1  1  0  0  0
 19 22  1  0  0  0  0
 20 21  2  0  0  0  0
 22 23  1  0  0  0  0
 24 23  1  6  0  0  0
M  CHG  1   3  -1
M  END
>  <CHROM.1>
-35.57509427,78.59509684,-179.09002996,61.16391645,-6.02877306,0.00042546
-6.54322520,2.28266433,1.50104882,-0.30300546

>  <Name>
ligand

>  <RI>
0

>  <Rbt.Current_Directory>
/home/itssahil/PROJECTS/Mol_Feturizer/New_Systems/rnas/3SLQ

>  <Rbt.Executable>
rbdock ($Id: //depot/dev/client3/rdock/2013.1/src/exe/rbdock.cxx#4 $)

>  <Rbt.Library>
libRbt.so (2013.1, Build901 2013/11/27)

>  <Rbt.Parameter_File>
/export/apps/rDock/src/rDock_2013.1_src/data/scripts/dock_solv.prm

>  <Rbt.Receptor>
prm/blind_docking_60.prm

>  <SCORE>
-13.1755

>  <SCORE.INTER>
-9.09174

>  <SCORE.INTER.CONST>
1

>  <SCORE.INTER.POLAR>
0

>  <SCORE.INTER.ROT>
4

>  <SCORE.INTER.SOLV>
11.3697

>  <SCORE.INTER.VDW>
-16.1177

>  <SCORE.INTER.norm>
-0.378822

>  <SCORE.INTRA>
-4.08374

>  <SCORE.INTRA.DIHEDRAL>
-10.0349

>  <SCORE.INTRA.DIHEDRAL.0>
13.2525

>  <SCORE.INTRA.POLAR>
0

>  <SCORE.INTRA.POLAR.0>
0

>  <SCORE.INTRA.REPUL>
0

>  <SCORE.INTRA.REPUL.0>
0

>  <SCORE.INTRA.SOLV>
1.49656

>  <SCORE.INTRA.SOLV.lig_0>
-70.7221

>  <SCORE.INTRA.VDW>
0.185446

>  <SCORE.INTRA.VDW.0>
-1.46337

>  <SCORE.INTRA.norm>
-0.170156

>  <SCORE.RESTR>
0

>  <SCORE.RESTR.CAVITY>
0

>  <SCORE.RESTR.norm>
0

>  <SCORE.SYSTEM>
0

>  <SCORE.SYSTEM.CONST>
0

>  <SCORE.SYSTEM.DIHEDRAL>
0

>  <SCORE.SYSTEM.SOLV>
0

>  <SCORE.SYSTEM.norm>
0

>  <SCORE.heavy>
24

>  <SCORE.norm>
-0.548978

>  <RMSD>
19.139

$$$$
ligand
 OpenBabel11021811483D
libRbt.so/2013.1/901 2013/11/27
 24 26  0  0  0  0  0  0  0  0999 V2000
   -6.2468    0.1954  -10.4787 P   0  0  1  0  0  0  0  0  0  0  0  0
   -7.5462   -0.0428  -11.2179 O   0  0  0  0  0  0  0  0  0  0  0  0
   -5.9756   -0.7011   -9.2936 O   0  5  0  0  0  0  0  0  0  0  0  0
   -5.0369    0.3500  -11.3880 O   0  0  0  0  0  0  0  0  0  0  0  0
   -7.2823    1.7900   -8.5555 C   0  0  0  0  0  0  0  0  0  0  0  0
   -6.4793    1.6210   -9.7366 O   0  0  0  0  0  0  0  0  0  0  0  0
   -6.3782    1.9679   -7.3321 C   0  0  1  0  0  0  0  0  0  0  0  0
   -7.1123    2.4167   -6.1859 O   0  0  0  0  0  0  0  0  0  0  0  0
   -5.6519    0.7100   -6.8874 C   0  0  1  0  0  0  0  0  0  0  0  0
   -4.3857    0.6474   -7.5505 O   0  0  0  0  0  0  0  0  0  0  0  0
   -5.4873    0.9115   -5.3899 C   0  0  1  0  0  0  0  0  0  0  0  0
   -4.3469    1.7378   -5.1163 O   0  0  0  0  0  0  0  0  0  0  0  0
   -6.6997    1.7320   -4.9966 C   0  0  2  0  0  0  0  0  0  0  0  0
  -11.2419    1.9084   -2.6742 N   0  0  0  0  0  0  0  0  0  0  0  0
  -10.3420    2.8974   -2.8778 C   0  0  1  0  0  0  0  0  0  0  0  0
  -10.6202    4.1442   -2.4343 N   0  0  0  0  0  0  0  0  0  0  0  0
   -9.1733    2.6548   -3.5161 N   0  0  0  0  0  0  0  0  0  0  0  0
   -8.9001    1.4037   -3.9574 C   0  0  1  0  0  0  0  0  0  0  0  0
   -9.7999    0.3745   -3.7617 C   0  0  2  0  0  0  0  0  0  0  0  0
  -10.9932    0.6501   -3.1043 C   0  0  0  0  0  0  0  0  0  0  0  0
  -11.8332   -0.2500   -2.9066 O   0  0  0  0  0  0  0  0  0  0  0  0
   -9.2568   -0.7381   -4.2964 N   0  0  0  0  0  0  0  0  0  0  0  0
   -8.0536   -0.4010   -4.8164 C   0  0  0  0  0  0  0  0  0  0  0  0
   -7.8544    0.9035   -4.6026 N   0  0  1  0  0  0  0  0  0  0  0  0
  1  2  1  6  0  0  0
  1  3  1  0  0  0  0
  1  4  2  0  0  0  0
  1  6  1  0  0  0  0
  5  6  1  0  0  0  0
  7  5  1  6  0  0  0
  7  8  1  0  0  0  0
  7  9  1  0  0  0  0
  9 10  1  6  0  0  0
  9 11  1  0  0  0  0
 11 12  1  6  0  0  0
 11 13  1  0  0  0  0
 13  8  1  6  0  0  0
 13 24  1  0  0  0  0
 14 15  1  0  0  0  0
 14 20  1  0  0  0  0
 15 16  1  1  0  0  0
 15 17  1  0  0  0  0
 18 17  1  6  0  0  0
 18 19  1  0  0  0  0
 18 24  1  0  0  0  0
 19 20  1  1  0  0  0
 19 22  1  0  0  0  0
 20 21  2  0  0  0  0
 22 23  1  0  0  0  0
 24 23  1  6  0  0  0
M  CHG  1   3  -1
M  END
>  <CHROM.1>
76.14247434,167.76723448,104.29622944,-79.73477545,-7.61997543,1.05959933
-6.32692811,0.97533419,-0.27992423,-1.91493144

>  <Name>
ligand

>  <RI>
0

>  <Rbt.Current_Directory>
/home/itssahil/PROJECTS/Mol_Feturizer/New_Systems/rnas/3SLQ

>  <Rbt.Executable>
rbdock ($Id: //depot/dev/client3/rdock/2013.1/src/exe/rbdock.cxx#4 $)

>  <Rbt.Library>
libRbt.so (2013.1, Build901 2013/11/27)

>  <Rbt.Parameter_File>
/export/apps/rDock/src/rDock_2013.1_src/data/scripts/dock_solv.prm

>  <Rbt.Receptor>
prm/blind_docking_80.prm

>  <SCORE>
-16.7519

>  <SCORE.INTER>
-15.76

>  <SCORE.INTER.CONST>
1

>  <SCORE.INTER.POLAR>
0

>  <SCORE.INTER.ROT>
4

>  <SCORE.INTER.SOLV>
13.5778

>  <SCORE.INTER.VDW>
-21.2993

>  <SCORE.INTER.norm>
-0.656666

>  <SCORE.INTRA>
-0.991938

>  <SCORE.INTRA.DIHEDRAL>
-5.08731

>  <SCORE.INTRA.DIHEDRAL.0>
13.2525

>  <SCORE.INTRA.POLAR>
0

>  <SCORE.INTRA.POLAR.0>
0

>  <SCORE.INTRA.REPUL>
0

>  <SCORE.INTRA.REPUL.0>
0

>  <SCORE.INTRA.SOLV>
4.01145

>  <SCORE.INTRA.SOLV.lig_0>
-70.7221

>  <SCORE.INTRA.VDW>
-0.454009

>  <SCORE.INTRA.VDW.0>
-1.46337

>  <SCORE.INTRA.norm>
-0.0413308

>  <SCORE.RESTR>
0

>  <SCORE.RESTR.CAVITY>
0

>  <SCORE.RESTR.norm>
0

>  <SCORE.SYSTEM>
0

>  <SCORE.SYSTEM.CONST>
0

>  <SCORE.SYSTEM.DIHEDRAL>
0

>  <SCORE.SYSTEM.SOLV>
0

>  <SCORE.SYSTEM.norm>
0

>  <SCORE.heavy>
24

>  <SCORE.norm>
-0.697996

>  <RMSD>
19.150

$$$$
ligand
 OpenBabel11021811483D
libRbt.so/2013.1/901 2013/11/27
 24 26  0  0  0  0  0  0  0  0999 V2000
  -11.1895    1.3106   -3.3001 P   0  0  1  0  0  0  0  0  0  0  0  0
  -11.6594    1.7782   -4.6610 O   0  0  0  0  0  0  0  0  0  0  0  0
  -11.4451    2.2485   -2.1439 O   0  5  0  0  0  0  0  0  0  0  0  0
  -11.5566   -0.1308   -2.9802 O   0  0  0  0  0  0  0  0  0  0  0  0
   -8.7901    0.6365   -4.3499 C   0  0  0  0  0  0  0  0  0  0  0  0
   -9.5706    1.3860   -3.4026 O   0  0  0  0  0  0  0  0  0  0  0  0
   -7.3509    1.1600   -4.3689 C   0  0  1  0  0  0  0  0  0  0  0  0
   -6.5556    0.5008   -5.3624 O   0  0  0  0  0  0  0  0  0  0  0  0
   -7.2163    2.6458   -4.6553 C   0  0  1  0  0  0  0  0  0  0  0  0
   -7.2357    3.3599   -3.4158 O   0  0  0  0  0  0  0  0  0  0  0  0
   -5.8619    2.7498   -5.3372 C   0  0  1  0  0  0  0  0  0  0  0  0
   -4.8096    2.7822   -4.3625 O   0  0  0  0  0  0  0  0  0  0  0  0
   -5.7162    1.4270   -6.0631 C   0  0  2  0  0  0  0  0  0  0  0  0
   -5.8029   -1.1582  -10.4637 N   0  0  0  0  0  0  0  0  0  0  0  0
   -5.1755   -1.4577   -9.3034 C   0  0  1  0  0  0  0  0  0  0  0  0
   -4.4511   -2.5964   -9.2200 N   0  0  0  0  0  0  0  0  0  0  0  0
   -5.2638   -0.6355   -8.2318 N   0  0  0  0  0  0  0  0  0  0  0  0
   -5.9905    0.5041   -8.3219 C   0  0  1  0  0  0  0  0  0  0  0  0
   -6.6400    0.8356   -9.4947 C   0  0  2  0  0  0  0  0  0  0  0  0
   -6.5343   -0.0260  -10.5803 C   0  0  0  0  0  0  0  0  0  0  0  0
   -7.1047    0.2353  -11.6578 O   0  0  0  0  0  0  0  0  0  0  0  0
   -7.2669    2.0112   -9.2856 N   0  0  0  0  0  0  0  0  0  0  0  0
   -7.0159    2.3917   -8.0112 C   0  0  0  0  0  0  0  0  0  0  0  0
   -6.2407    1.4639   -7.4410 N   0  0  1  0  0  0  0  0  0  0  0  0
  1  2  1  6  0  0  0
  1  3  1  0  0  0  0
  1  4  2  0  0  0  0
  1  6  1  0  0  0  0
  5  6  1  0  0  0  0
  7  5  1  6  0  0  0
  7  8  1  0  0  0  0
  7  9  1  0  0  0  0
  9 10  1  1  0  0  0
  9 11  1  0  0  0  0
 11 12  1  1  0  0  0
 11 13  1  0  0  0  0
 13  8  1  1  0  0  0
 13 24  1  0  0  0  0
 14 15  1  0  0  0  0
 14 20  1  0  0  0  0
 15 16  1  6  0  0  0
 15 17  1  0  0  0  0
 18 17  1  1  0  0  0
 18 19  1  0  0  0  0
 18 24  1  0  0  0  0
 19 20  1  6  0  0  0
 19 22  1  0  0  0  0
 20 21  2  0  0  0  0
 22 23  1  0  0  0  0
 24 23  1  1  0  0  0
M  CHG  1   3  -1
M  END
>  <CHROM.1>
-60.57539167,-176.19314094,168.17484954,-77.65337414,-7.63708661,1.01977046
-6.22596689,2.19339037,0.26052356,1.10693938

>  <Name>
ligand

>  <RI>
0

>  <Rbt.Current_Directory>
/home/itssahil/PROJECTS/Mol_Feturizer/New_Systems/rnas/3SLQ

>  <Rbt.Executable>
rbdock ($Id: //depot/dev/client3/rdock/2013.1/src/exe/rbdock.cxx#4 $)

>  <Rbt.Library>
libRbt.so (2013.1, Build901 2013/11/27)

>  <Rbt.Parameter_File>
/export/apps/rDock/src/rDock_2013.1_src/data/scripts/dock_solv.prm

>  <Rbt.Receptor>
prm/blind_docking_60.prm

>  <SCORE>
-17.6881

>  <SCORE.INTER>
-11.7616

>  <SCORE.INTER.CONST>
1

>  <SCORE.INTER.POLAR>
0

>  <SCORE.INTER.ROT>
4

>  <SCORE.INTER.SOLV>
15.7859

>  <SCORE.INTER.VDW>
-19.3697

>  <SCORE.INTER.norm>
-0.490065

>  <SCORE.INTRA>
-5.92653

>  <SCORE.INTRA.DIHEDRAL>
-11.3472

>  <SCORE.INTRA.DIHEDRAL.0>
13.2525

>  <SCORE.INTRA.POLAR>
0

>  <SCORE.INTRA.POLAR.0>
0

>  <SCORE.INTRA.REPUL>
0

>  <SCORE.INTRA.REPUL.0>
0

>  <SCORE.INTRA.SOLV>
0.108218

>  <SCORE.INTRA.SOLV.lig_0>
-70.7221

>  <SCORE.INTRA.VDW>
-0.307047

>  <SCORE.INTRA.VDW.0>
-1.46337

>  <SCORE.INTRA.norm>
-0.246939

>  <SCORE.RESTR>
0

>  <SCORE.RESTR.CAVITY>
0

>  <SCORE.RESTR.norm>
0

>  <SCORE.SYSTEM>
0

>  <SCORE.SYSTEM.CONST>
0

>  <SCORE.SYSTEM.DIHEDRAL>
0

>  <SCORE.SYSTEM.SOLV>
0

>  <SCORE.SYSTEM.norm>
0

>  <SCORE.heavy>
24

>  <SCORE.norm>
-0.737004

>  <RMSD>
19.172

$$$$
ligand
 OpenBabel11021811483D
libRbt.so/2013.1/901 2013/11/27
 24 26  0  0  0  0  0  0  0  0999 V2000
  -10.4044   -0.0909   -3.6006 P   0  0  1  0  0  0  0  0  0  0  0  0
  -11.0704    0.9726   -2.7540 O   0  0  0  0  0  0  0  0  0  0  0  0
  -10.2550   -1.4547   -2.9685 O   0  5  0  0  0  0  0  0  0  0  0  0
  -10.9225   -0.1588   -5.0295 O   0  0  0  0  0  0  0  0  0  0  0  0
   -8.4273    1.6620   -4.1764 C   0  0  0  0  0  0  0  0  0  0  0  0
   -8.8534    0.3850   -3.6707 O   0  0  0  0  0  0  0  0  0  0  0  0
   -6.9100    1.6595   -4.3855 C   0  0  1  0  0  0  0  0  0  0  0  0
   -6.5049    0.6781   -5.3482 O   0  0  0  0  0  0  0  0  0  0  0  0
   -6.3311    2.9764   -4.8736 C   0  0  1  0  0  0  0  0  0  0  0  0
   -5.9613    3.7680   -3.7407 O   0  0  0  0  0  0  0  0  0  0  0  0
   -5.1132    2.5478   -5.6755 C   0  0  1  0  0  0  0  0  0  0  0  0
   -3.9967    2.3115   -4.8060 O   0  0  0  0  0  0  0  0  0  0  0  0
   -5.5012    1.1924   -6.2323 C   0  0  2  0  0  0  0  0  0  0  0  0
   -6.0070   -1.2463  -10.6880 N   0  0  0  0  0  0  0  0  0  0  0  0
   -5.2766   -1.5850   -9.6012 C   0  0  1  0  0  0  0  0  0  0  0  0
   -4.5531   -2.7272   -9.6224 N   0  0  0  0  0  0  0  0  0  0  0  0
   -5.2613   -0.7984   -8.4998 N   0  0  0  0  0  0  0  0  0  0  0  0
   -5.9877    0.3449   -8.4849 C   0  0  1  0  0  0  0  0  0  0  0  0
   -6.7412    0.7160   -9.5811 C   0  0  2  0  0  0  0  0  0  0  0  0
   -6.7405   -0.1095  -10.6994 C   0  0  0  0  0  0  0  0  0  0  0  0
   -7.4068    0.1882  -11.7104 O   0  0  0  0  0  0  0  0  0  0  0  0
   -7.3403    1.8853   -9.2767 N   0  0  0  0  0  0  0  0  0  0  0  0
   -6.9707    2.2231   -8.0192 C   0  0  0  0  0  0  0  0  0  0  0  0
   -6.1506    1.2756   -7.5538 N   0  0  1  0  0  0  0  0  0  0  0  0
  1  2  1  1  0  0  0
  1  3  1  0  0  0  0
  1  4  2  0  0  0  0
  1  6  1  0  0  0  0
  5  6  1  0  0  0  0
  7  5  1  6  0  0  0
  7  8  1  0  0  0  0
  7  9  1  0  0  0  0
  9 10  1  1  0  0  0
  9 11  1  0  0  0  0
 11 12  1  1  0  0  0
 11 13  1  0  0  0  0
 13  8  1  1  0  0  0
 13 24  1  0  0  0  0
 14 15  1  0  0  0  0
 14 20  1  0  0  0  0
 15 16  1  6  0  0  0
 15 17  1  0  0  0  0
 18 17  1  1  0  0  0
 18 19  1  0  0  0  0
 18 24  1  0  0  0  0
 19 20  1  6  0  0  0
 19 22  1  0  0  0  0
 20 21  2  0  0  0  0
 22 23  1  0  0  0  0
 24 23  1  1  0  0  0
M  CHG  1   3  -1
M  END
>  <CHROM.1>
-57.74410415,61.61271651,-167.51817300,-98.87357490,-7.27013529,0.65634205
-6.42671279,2.16840634,0.53473885,1.08698126

>  <Name>
ligand

>  <RI>
0

>  <Rbt.Current_Directory>
/home/itssahil/PROJECTS/Mol_Feturizer/New_Systems/rnas/3SLQ

>  <Rbt.Executable>
rbdock ($Id: //depot/dev/client3/rdock/2013.1/src/exe/rbdock.cxx#4 $)

>  <Rbt.Library>
libRbt.so (2013.1, Build901 2013/11/27)

>  <Rbt.Parameter_File>
/export/apps/rDock/src/rDock_2013.1_src/data/scripts/dock_solv.prm

>  <Rbt.Receptor>
prm/blind_docking_100.prm

>  <SCORE>
-17.9382

>  <SCORE.INTER>
-11.9744

>  <SCORE.INTER.CONST>
1

>  <SCORE.INTER.POLAR>
0

>  <SCORE.INTER.ROT>
4

>  <SCORE.INTER.SOLV>
16.3726

>  <SCORE.INTER.VDW>
-19.7071

>  <SCORE.INTER.norm>
-0.498935

>  <SCORE.INTRA>
-5.9874

>  <SCORE.INTRA.DIHEDRAL>
-11.3093

>  <SCORE.INTRA.DIHEDRAL.0>
13.2525

>  <SCORE.INTRA.POLAR>
0

>  <SCORE.INTRA.POLAR.0>
0

>  <SCORE.INTRA.REPUL>
0

>  <SCORE.INTRA.REPUL.0>
0

>  <SCORE.INTRA.SOLV>
-0.0424382

>  <SCORE.INTRA.SOLV.lig_0>
-70.7221

>  <SCORE.INTRA.VDW>
-0.311518

>  <SCORE.INTRA.VDW.0>
-1.46337

>  <SCORE.INTRA.norm>
-0.249475

>  <SCORE.RESTR>
0.0236666

>  <SCORE.RESTR.CAVITY>
0.0236666

>  <SCORE.RESTR.norm>
0.000986107

>  <SCORE.SYSTEM>
0

>  <SCORE.SYSTEM.CONST>
0

>  <SCORE.SYSTEM.DIHEDRAL>
0

>  <SCORE.SYSTEM.SOLV>
0

>  <SCORE.SYSTEM.norm>
0

>  <SCORE.heavy>
24

>  <SCORE.norm>
-0.747423

>  <RMSD>
19.217

$$$$
ligand
 OpenBabel11021811483D
libRbt.so/2013.1/901 2013/11/27
 24 26  0  0  0  0  0  0  0  0999 V2000
  -10.0270   -0.0041   -4.3216 P   0  0  1  0  0  0  0  0  0  0  0  0
  -10.2600    0.4129   -5.7580 O   0  0  0  0  0  0  0  0  0  0  0  0
  -11.2510   -0.4082   -3.5339 O   0  5  0  0  0  0  0  0  0  0  0  0
   -8.8648   -0.9685   -4.1378 O   0  0  0  0  0  0  0  0  0  0  0  0
   -8.8439    2.4238   -4.1833 C   0  0  0  0  0  0  0  0  0  0  0  0
   -9.6276    1.3821   -3.5759 O   0  0  0  0  0  0  0  0  0  0  0  0
   -7.3743    1.9977   -4.2509 C   0  0  1  0  0  0  0  0  0  0  0  0
   -7.1856    0.8635   -5.1064 O   0  0  0  0  0  0  0  0  0  0  0  0
   -6.4241    3.0642   -4.7680 C   0  0  1  0  0  0  0  0  0  0  0  0
   -5.9335    3.8241   -3.6595 O   0  0  0  0  0  0  0  0  0  0  0  0
   -5.3159    2.2574   -5.4246 C   0  0  1  0  0  0  0  0  0  0  0  0
   -4.3715    1.8084   -4.4423 O   0  0  0  0  0  0  0  0  0  0  0  0
   -6.0192    1.0116   -5.9257 C   0  0  2  0  0  0  0  0  0  0  0  0
   -6.0722   -1.2606  -10.4963 N   0  0  0  0  0  0  0  0  0  0  0  0
   -5.4629   -1.6463   -9.3521 C   0  0  1  0  0  0  0  0  0  0  0  0
   -4.7500   -2.7953   -9.3391 N   0  0  0  0  0  0  0  0  0  0  0  0
   -5.5575   -0.8997   -8.2270 N   0  0  0  0  0  0  0  0  0  0  0  0
   -6.2725    0.2507   -8.2465 C   0  0  1  0  0  0  0  0  0  0  0  0
   -6.9036    0.6693   -9.4013 C   0  0  2  0  0  0  0  0  0  0  0  0
   -6.7916   -0.1158  -10.5429 C   0  0  0  0  0  0  0  0  0  0  0  0
   -7.3455    0.2255  -11.6066 O   0  0  0  0  0  0  0  0  0  0  0  0
   -7.5224    1.8339   -9.1187 N   0  0  0  0  0  0  0  0  0  0  0  0
   -7.2845    2.1223   -7.8179 C   0  0  0  0  0  0  0  0  0  0  0  0
   -6.5253    1.1494   -7.3041 N   0  0  1  0  0  0  0  0  0  0  0  0
  1  2  1  6  0  0  0
  1  3  1  0  0  0  0
  1  4  2  0  0  0  0
  1  6  1  0  0  0  0
  5  6  1  0  0  0  0
  7  5  1  6  0  0  0
  7  8  1  0  0  0  0
  7  9  1  0  0  0  0
  9 10  1  1  0  0  0
  9 11  1  0  0  0  0
 11 12  1  1  0  0  0
 11 13  1  0  0  0  0
 13  8  1  1  0  0  0
 13 24  1  0  0  0  0
 14 15  1  0  0  0  0
 14 20  1  0  0  0  0
 15 16  1  6  0  0  0
 15 17  1  0  0  0  0
 18 17  1  1  0  0  0
 18 19  1  0  0  0  0
 18 24  1  0  0  0  0
 19 20  1  6  0  0  0
 19 22  1  0  0  0  0
 20 21  2  0  0  0  0
 22 23  1  0  0  0  0
 24 23  1  1  0  0  0
M  CHG  1   3  -1
M  END
>  <CHROM.1>
-36.27229203,64.46730824,-74.25951692,-115.41525248,-7.37234671,0.68790411
-6.46112518,2.04283046,0.47266582,1.05975538

>  <Name>
ligand

>  <RI>
0

>  <Rbt.Current_Directory>
/home/itssahil/PROJECTS/Mol_Feturizer/New_Systems/rnas/3SLQ

>  <Rbt.Executable>
rbdock ($Id: //depot/dev/client3/rdock/2013.1/src/exe/rbdock.cxx#4 $)

>  <Rbt.Library>
libRbt.so (2013.1, Build901 2013/11/27)

>  <Rbt.Parameter_File>
/export/apps/rDock/src/rDock_2013.1_src/data/scripts/dock_solv.prm

>  <Rbt.Receptor>
prm/blind_docking_40.prm

>  <SCORE>
-17.5898

>  <SCORE.INTER>
-12.7196

>  <SCORE.INTER.CONST>
1

>  <SCORE.INTER.POLAR>
0

>  <SCORE.INTER.ROT>
4

>  <SCORE.INTER.SOLV>
12.0473

>  <SCORE.INTER.VDW>
-18.7621

>  <SCORE.INTER.norm>
-0.529981

>  <SCORE.INTRA>
-4.87025

>  <SCORE.INTRA.DIHEDRAL>
-10.2103

>  <SCORE.INTRA.DIHEDRAL.0>
13.2525

>  <SCORE.INTRA.POLAR>
0

>  <SCORE.INTRA.POLAR.0>
0

>  <SCORE.INTRA.REPUL>
0

>  <SCORE.INTRA.REPUL.0>
0

>  <SCORE.INTRA.SOLV>
2.55915

>  <SCORE.INTRA.SOLV.lig_0>
-70.7221

>  <SCORE.INTRA.VDW>
-1.04467

>  <SCORE.INTRA.VDW.0>
-1.46337

>  <SCORE.INTRA.norm>
-0.202927

>  <SCORE.RESTR>
0

>  <SCORE.RESTR.CAVITY>
0

>  <SCORE.RESTR.norm>
0

>  <SCORE.SYSTEM>
0

>  <SCORE.SYSTEM.CONST>
0

>  <SCORE.SYSTEM.DIHEDRAL>
0

>  <SCORE.SYSTEM.SOLV>
0

>  <SCORE.SYSTEM.norm>
0

>  <SCORE.heavy>
24

>  <SCORE.norm>
-0.732908

>  <RMSD>
19.232

$$$$
ligand
 OpenBabel11021811483D
libRbt.so/2013.1/901 2013/11/27
 24 26  0  0  0  0  0  0  0  0999 V2000
   -5.7901   -0.3315  -10.4339 P   0  0  1  0  0  0  0  0  0  0  0  0
   -6.5321    0.5932  -11.3752 O   0  0  0  0  0  0  0  0  0  0  0  0
   -6.4975   -1.6114  -10.0555 O   0  5  0  0  0  0  0  0  0  0  0  0
   -4.3318   -0.5537  -10.8064 O   0  0  0  0  0  0  0  0  0  0  0  0
   -7.0046    0.7025   -8.2500 C   0  0  0  0  0  0  0  0  0  0  0  0
   -5.8119    0.4603   -9.0163 O   0  0  0  0  0  0  0  0  0  0  0  0
   -6.6940    1.6526   -7.0895 C   0  0  1  0  0  0  0  0  0  0  0  0
   -7.8780    2.0272   -6.3741 O   0  0  0  0  0  0  0  0  0  0  0  0
   -5.7430    1.0941   -6.0449 C   0  0  1  0  0  0  0  0  0  0  0  0
   -4.4026    1.4384   -6.4077 O   0  0  0  0  0  0  0  0  0  0  0  0
   -6.1729    1.7977   -4.7680 C   0  0  1  0  0  0  0  0  0  0  0  0
   -5.5842    3.1038   -4.6913 O   0  0  0  0  0  0  0  0  0  0  0  0
   -7.6599    2.0220   -4.9578 C   0  0  2  0  0  0  0  0  0  0  0  0
   -8.3205   -3.0325   -5.2264 N   0  0  0  0  0  0  0  0  0  0  0  0
   -7.4361   -2.2456   -5.8806 C   0  0  1  0  0  0  0  0  0  0  0  0
   -6.5628   -2.8112   -6.7443 N   0  0  0  0  0  0  0  0  0  0  0  0
   -7.4157   -0.9068   -5.6821 N   0  0  0  0  0  0  0  0  0  0  0  0
   -8.2934   -0.3461   -4.8161 C   0  0  1  0  0  0  0  0  0  0  0  0
   -9.2084   -1.1254   -4.1358 C   0  0  2  0  0  0  0  0  0  0  0  0
   -9.2083   -2.4977   -4.3568 C   0  0  0  0  0  0  0  0  0  0  0  0
  -10.0177   -3.2377   -3.7635 O   0  0  0  0  0  0  0  0  0  0  0  0
   -9.9410   -0.2981   -3.3626 N   0  0  0  0  0  0  0  0  0  0  0  0
   -9.4830    0.9608   -3.5559 C   0  0  0  0  0  0  0  0  0  0  0  0
   -8.4818    0.9121   -4.4404 N   0  0  1  0  0  0  0  0  0  0  0  0
  1  2  1  6  0  0  0
  1  3  1  0  0  0  0
  1  4  2  0  0  0  0
  1  6  1  0  0  0  0
  5  6  1  0  0  0  0
  7  5  1  6  0  0  0
  7  8  1  0  0  0  0
  7  9  1  0  0  0  0
  9 10  1  6  0  0  0
  9 11  1  0  0  0  0
 11 12  1  6  0  0  0
 11 13  1  0  0  0  0
 13  8  1  6  0  0  0
 13 24  1  0  0  0  0
 14 15  1  0  0  0  0
 14 20  1  0  0  0  0
 15 16  1  6  0  0  0
 15 17  1  0  0  0  0
 18 17  1  1  0  0  0
 18 19  1  0  0  0  0
 18 24  1  0  0  0  0
 19 20  1  6  0  0  0
 19 22  1  0  0  0  0
 20 21  2  0  0  0  0
 22 23  1  0  0  0  0
 24 23  1  1  0  0  0
M  CHG  1   3  -1
M  END
>  <CHROM.1>
67.28411573,174.32262100,-171.36541452,60.87167863,-7.12598932,-0.08014602
-6.66196270,0.54205585,-0.98070898,-2.38921121

>  <Name>
ligand

>  <RI>
0

>  <Rbt.Current_Directory>
/home/itssahil/PROJECTS/Mol_Feturizer/New_Systems/rnas/3SLQ

>  <Rbt.Executable>
rbdock ($Id: //depot/dev/client3/rdock/2013.1/src/exe/rbdock.cxx#4 $)

>  <Rbt.Library>
libRbt.so (2013.1, Build901 2013/11/27)

>  <Rbt.Parameter_File>
/export/apps/rDock/src/rDock_2013.1_src/data/scripts/dock_solv.prm

>  <Rbt.Receptor>
prm/blind_docking_20.prm

>  <SCORE>
-15.5999

>  <SCORE.INTER>
-11.4768

>  <SCORE.INTER.CONST>
1

>  <SCORE.INTER.POLAR>
0

>  <SCORE.INTER.ROT>
4

>  <SCORE.INTER.SOLV>
9.7944

>  <SCORE.INTER.VDW>
-17.1827

>  <SCORE.INTER.norm>
-0.478201

>  <SCORE.INTRA>
-4.12309

>  <SCORE.INTRA.DIHEDRAL>
-11.4845

>  <SCORE.INTRA.DIHEDRAL.0>
13.2525

>  <SCORE.INTRA.POLAR>
0

>  <SCORE.INTRA.POLAR.0>
0

>  <SCORE.INTRA.REPUL>
0

>  <SCORE.INTRA.REPUL.0>
0

>  <SCORE.INTRA.SOLV>
3.6827

>  <SCORE.INTRA.SOLV.lig_0>
-70.7221

>  <SCORE.INTRA.VDW>
-0.222206

>  <SCORE.INTRA.VDW.0>
-1.46337

>  <SCORE.INTRA.norm>
-0.171796

>  <SCORE.RESTR>
0

>  <SCORE.RESTR.CAVITY>
0

>  <SCORE.RESTR.norm>
0

>  <SCORE.SYSTEM>
0

>  <SCORE.SYSTEM.CONST>
0

>  <SCORE.SYSTEM.DIHEDRAL>
0

>  <SCORE.SYSTEM.SOLV>
0

>  <SCORE.SYSTEM.norm>
0

>  <SCORE.heavy>
24

>  <SCORE.norm>
-0.649997

>  <RMSD>
19.260

$$$$
ligand
 OpenBabel11021811483D
libRbt.so/2013.1/901 2013/11/27
 24 26  0  0  0  0  0  0  0  0999 V2000
   -6.5855    3.0435   -4.2012 P   0  0  1  0  0  0  0  0  0  0  0  0
   -6.5516    4.5565   -4.2349 O   0  0  0  0  0  0  0  0  0  0  0  0
   -5.4488    2.3635   -3.4750 O   0  5  0  0  0  0  0  0  0  0  0  0
   -7.9446    2.4627   -3.8406 O   0  0  0  0  0  0  0  0  0  0  0  0
   -6.9206    1.5300   -6.4172 C   0  0  0  0  0  0  0  0  0  0  0  0
   -6.2680    2.6149   -5.7351 O   0  0  0  0  0  0  0  0  0  0  0  0
   -6.3576    1.3923   -7.8349 C   0  0  1  0  0  0  0  0  0  0  0  0
   -5.0587    0.7865   -7.8375 O   0  0  0  0  0  0  0  0  0  0  0  0
   -7.2031    0.5541   -8.7784 C   0  0  1  0  0  0  0  0  0  0  0  0
   -8.1276    1.4103   -9.4561 O   0  0  0  0  0  0  0  0  0  0  0  0
   -6.1805   -0.0322   -9.7379 C   0  0  1  0  0  0  0  0  0  0  0  0
   -5.8598    0.9121  -10.7693 O   0  0  0  0  0  0  0  0  0  0  0  0
   -4.9275   -0.1704   -8.8961 C   0  0  2  0  0  0  0  0  0  0  0  0
   -7.3803   -3.3435   -5.7383 N   0  0  0  0  0  0  0  0  0  0  0  0
   -7.7465   -2.1192   -6.1815 C   0  0  1  0  0  0  0  0  0  0  0  0
   -8.9257   -1.5963   -5.7759 N   0  0  0  0  0  0  0  0  0  0  0  0
   -6.9508   -1.4157   -7.0206 N   0  0  0  0  0  0  0  0  0  0  0  0
   -5.7704   -1.9447   -7.4228 C   0  0  1  0  0  0  0  0  0  0  0  0
   -5.3707   -3.1919   -6.9847 C   0  0  2  0  0  0  0  0  0  0  0  0
   -6.2063   -3.8942   -6.1242 C   0  0  0  0  0  0  0  0  0  0  0  0
   -5.8837   -5.0233   -5.7047 O   0  0  0  0  0  0  0  0  0  0  0  0
   -4.1682   -3.4442   -7.5408 N   0  0  0  0  0  0  0  0  0  0  0  0
   -3.8380   -2.3805   -8.3098 C   0  0  0  0  0  0  0  0  0  0  0  0
   -4.8231   -1.4806   -8.2271 N   0  0  1  0  0  0  0  0  0  0  0  0
  1  2  1  1  0  0  0
  1  3  1  0  0  0  0
  1  4  2  0  0  0  0
  1  6  1  0  0  0  0
  5  6  1  0  0  0  0
  7  5  1  1  0  0  0
  7  8  1  0  0  0  0
  7  9  1  0  0  0  0
  9 10  1  6  0  0  0
  9 11  1  0  0  0  0
 11 12  1  6  0  0  0
 11 13  1  0  0  0  0
 13  8  1  1  0  0  0
 13 24  1  0  0  0  0
 14 15  1  0  0  0  0
 14 20  1  0  0  0  0
 15 16  1  1  0  0  0
 15 17  1  0  0  0  0
 18 17  1  6  0  0  0
 18 19  1  0  0  0  0
 18 24  1  0  0  0  0
 19 20  1  1  0  0  0
 19 22  1  0  0  0  0
 20 21  2  0  0  0  0
 22 23  1  0  0  0  0
 24 23  1  6  0  0  0
M  CHG  1   3  -1
M  END
>  <CHROM.1>
-140.37289657,75.51602181,-178.86716481,58.84806833,-6.30605394,-0.05843629
-6.74898335,2.44269617,1.37323341,-0.44198910

>  <Name>
ligand

>  <RI>
0

>  <Rbt.Current_Directory>
/home/itssahil/PROJECTS/Mol_Feturizer/New_Systems/rnas/3SLQ

>  <Rbt.Executable>
rbdock ($Id: //depot/dev/client3/rdock/2013.1/src/exe/rbdock.cxx#4 $)

>  <Rbt.Library>
libRbt.so (2013.1, Build901 2013/11/27)

>  <Rbt.Parameter_File>
/export/apps/rDock/src/rDock_2013.1_src/data/scripts/dock_solv.prm

>  <Rbt.Receptor>
prm/blind_docking_60.prm

>  <SCORE>
-12.2334

>  <SCORE.INTER>
-8.72869

>  <SCORE.INTER.CONST>
1

>  <SCORE.INTER.POLAR>
0

>  <SCORE.INTER.ROT>
4

>  <SCORE.INTER.SOLV>
13.7873

>  <SCORE.INTER.VDW>
-16.6816

>  <SCORE.INTER.norm>
-0.363695

>  <SCORE.INTRA>
-3.50475

>  <SCORE.INTRA.DIHEDRAL>
-9.44215

>  <SCORE.INTRA.DIHEDRAL.0>
13.2525

>  <SCORE.INTRA.POLAR>
0

>  <SCORE.INTRA.POLAR.0>
0

>  <SCORE.INTRA.REPUL>
0

>  <SCORE.INTRA.REPUL.0>
0

>  <SCORE.INTRA.SOLV>
2.27023

>  <SCORE.INTRA.SOLV.lig_0>
-70.7221

>  <SCORE.INTRA.VDW>
0.0812144

>  <SCORE.INTRA.VDW.0>
-1.46337

>  <SCORE.INTRA.norm>
-0.146031

>  <SCORE.RESTR>
0

>  <SCORE.RESTR.CAVITY>
0

>  <SCORE.RESTR.norm>
0

>  <SCORE.SYSTEM>
0

>  <SCORE.SYSTEM.CONST>
0

>  <SCORE.SYSTEM.DIHEDRAL>
0

>  <SCORE.SYSTEM.SOLV>
0

>  <SCORE.SYSTEM.norm>
0

>  <SCORE.heavy>
24

>  <SCORE.norm>
-0.509726

>  <RMSD>
19.293

$$$$
ligand
 OpenBabel11021811483D
libRbt.so/2013.1/901 2013/11/27
 24 26  0  0  0  0  0  0  0  0999 V2000
  -10.8644   -0.9638   -3.5511 P   0  0  1  0  0  0  0  0  0  0  0  0
   -9.4427   -1.2221   -3.0998 O   0  0  0  0  0  0  0  0  0  0  0  0
  -11.7638   -2.1727   -3.6580 O   0  5  0  0  0  0  0  0  0  0  0  0
  -11.5342    0.2070   -2.8474 O   0  0  0  0  0  0  0  0  0  0  0  0
  -10.1279    0.6736   -5.5735 C   0  0  0  0  0  0  0  0  0  0  0  0
  -10.7065   -0.5611   -5.1164 O   0  0  0  0  0  0  0  0  0  0  0  0
   -8.6360    0.7086   -5.2289 C   0  0  1  0  0  0  0  0  0  0  0  0
   -7.8800   -0.2047   -6.0342 O   0  0  0  0  0  0  0  0  0  0  0  0
   -7.9710    2.0624   -5.4101 C   0  0  1  0  0  0  0  0  0  0  0  0
   -8.0560    2.7884   -4.1803 O   0  0  0  0  0  0  0  0  0  0  0  0
   -6.5330    1.7039   -5.7474 C   0  0  1  0  0  0  0  0  0  0  0  0
   -5.7889    1.4325   -4.5511 O   0  0  0  0  0  0  0  0  0  0  0  0
   -6.6481    0.3794   -6.4754 C   0  0  2  0  0  0  0  0  0  0  0  0
   -3.9841    0.8502  -10.8041 N   0  0  0  0  0  0  0  0  0  0  0  0
   -3.5418    0.7403   -9.5307 C   0  0  1  0  0  0  0  0  0  0  0  0
   -2.2108    0.7416   -9.2921 N   0  0  0  0  0  0  0  0  0  0  0  0
   -4.4109    0.6302   -8.4988 N   0  0  0  0  0  0  0  0  0  0  0  0
   -5.7431    0.6302   -8.7441 C   0  0  1  0  0  0  0  0  0  0  0  0
   -6.2226    0.7427  -10.0343 C   0  0  2  0  0  0  0  0  0  0  0  0
   -5.3094    0.8536  -11.0763 C   0  0  0  0  0  0  0  0  0  0  0  0
   -5.6997    0.9573  -12.2560 O   0  0  0  0  0  0  0  0  0  0  0  0
   -7.5692    0.7189   -9.9635 N   0  0  0  0  0  0  0  0  0  0  0  0
   -7.9115    0.5872   -8.6607 C   0  0  0  0  0  0  0  0  0  0  0  0
   -6.7900    0.5335   -7.9352 N   0  0  1  0  0  0  0  0  0  0  0  0
  1  2  1  1  0  0  0
  1  3  1  0  0  0  0
  1  4  2  0  0  0  0
  1  6  1  0  0  0  0
  5  6  1  0  0  0  0
  7  5  1  6  0  0  0
  7  8  1  0  0  0  0
  7  9  1  0  0  0  0
  9 10  1  1  0  0  0
  9 11  1  0  0  0  0
 11 12  1  1  0  0  0
 11 13  1  0  0  0  0
 13  8  1  1  0  0  0
 13 24  1  0  0  0  0
 14 15  1  0  0  0  0
 14 20  1  0  0  0  0
 15 16  1  1  0  0  0
 15 17  1  0  0  0  0
 18 17  1  6  0  0  0
 18 19  1  0  0  0  0
 18 24  1  0  0  0  0
 19 20  1  1  0  0  0
 19 22  1  0  0  0  0
 20 21  2  0  0  0  0
 22 23  1  0  0  0  0
 24 23  1  6  0  0  0
M  CHG  1   3  -1
M  END
>  <CHROM.1>
-70.43823472,71.06631084,66.87887429,-157.82109806,-7.58819988,0.43286715
-6.70676557,2.37584721,0.39523148,1.39204010

>  <Name>
ligand

>  <RI>
0

>  <Rbt.Current_Directory>
/home/itssahil/PROJECTS/Mol_Feturizer/New_Systems/rnas/3SLQ

>  <Rbt.Executable>
rbdock ($Id: //depot/dev/client3/rdock/2013.1/src/exe/rbdock.cxx#4 $)

>  <Rbt.Library>
libRbt.so (2013.1, Build901 2013/11/27)

>  <Rbt.Parameter_File>
/export/apps/rDock/src/rDock_2013.1_src/data/scripts/dock_solv.prm

>  <Rbt.Receptor>
prm/blind_docking_100.prm

>  <SCORE>
-16.6156

>  <SCORE.INTER>
-10.7703

>  <SCORE.INTER.CONST>
1

>  <SCORE.INTER.POLAR>
0

>  <SCORE.INTER.ROT>
4

>  <SCORE.INTER.SOLV>
21.9759

>  <SCORE.INTER.VDW>
-20.7722

>  <SCORE.INTER.norm>
-0.448762

>  <SCORE.INTRA>
-5.84532

>  <SCORE.INTRA.DIHEDRAL>
-11.1997

>  <SCORE.INTRA.DIHEDRAL.0>
13.2525

>  <SCORE.INTRA.POLAR>
0

>  <SCORE.INTRA.POLAR.0>
0

>  <SCORE.INTRA.REPUL>
0

>  <SCORE.INTRA.REPUL.0>
0

>  <SCORE.INTRA.SOLV>
0.937085

>  <SCORE.INTRA.SOLV.lig_0>
-70.7221

>  <SCORE.INTRA.VDW>
-0.714001

>  <SCORE.INTRA.VDW.0>
-1.46337

>  <SCORE.INTRA.norm>
-0.243555

>  <SCORE.RESTR>
0

>  <SCORE.RESTR.CAVITY>
0

>  <SCORE.RESTR.norm>
0

>  <SCORE.SYSTEM>
0

>  <SCORE.SYSTEM.CONST>
0

>  <SCORE.SYSTEM.DIHEDRAL>
0

>  <SCORE.SYSTEM.SOLV>
0

>  <SCORE.SYSTEM.norm>
0

>  <SCORE.heavy>
24

>  <SCORE.norm>
-0.692317

>  <RMSD>
19.294

$$$$
ligand
 OpenBabel11021811483D
libRbt.so/2013.1/901 2013/11/27
 24 26  0  0  0  0  0  0  0  0999 V2000
  -10.1158    4.3897   -2.8216 P   0  0  1  0  0  0  0  0  0  0  0  0
   -8.6847    4.8730   -2.9198 O   0  0  0  0  0  0  0  0  0  0  0  0
  -10.5395    3.8155   -1.4902 O   0  5  0  0  0  0  0  0  0  0  0  0
  -11.1375    5.3602   -3.3952 O   0  0  0  0  0  0  0  0  0  0  0  0
   -9.0578    2.1131   -3.8270 C   0  0  0  0  0  0  0  0  0  0  0  0
  -10.1393    3.0578   -3.7503 O   0  0  0  0  0  0  0  0  0  0  0  0
   -9.5200    0.8507   -4.5608 C   0  0  1  0  0  0  0  0  0  0  0  0
   -9.9240    1.1325   -5.9066 O   0  0  0  0  0  0  0  0  0  0  0  0
   -8.4727   -0.2445   -4.6676 C   0  0  1  0  0  0  0  0  0  0  0  0
   -8.5935   -1.1128   -3.5370 O   0  0  0  0  0  0  0  0  0  0  0  0
   -8.8411   -0.9566   -5.9589 C   0  0  1  0  0  0  0  0  0  0  0  0
   -9.8935   -1.9039   -5.7279 O   0  0  0  0  0  0  0  0  0  0  0  0
   -9.4458    0.1358   -6.8184 C   0  0  2  0  0  0  0  0  0  0  0  0
   -6.4588   -0.4651  -10.9139 N   0  0  0  0  0  0  0  0  0  0  0  0
   -7.3044   -1.3449  -10.3306 C   0  0  1  0  0  0  0  0  0  0  0  0
   -7.4349   -2.5833  -10.8579 N   0  0  0  0  0  0  0  0  0  0  0  0
   -8.0166   -1.0023   -9.2318 N   0  0  0  0  0  0  0  0  0  0  0  0
   -7.8811    0.2395   -8.7079 C   0  0  1  0  0  0  0  0  0  0  0  0
   -7.0237    1.1574   -9.2820 C   0  0  2  0  0  0  0  0  0  0  0  0
   -6.3044    0.7810  -10.4103 C   0  0  0  0  0  0  0  0  0  0  0  0
   -5.5193    1.5789  -10.9597 O   0  0  0  0  0  0  0  0  0  0  0  0
   -7.0963    2.2859   -8.5470 N   0  0  0  0  0  0  0  0  0  0  0  0
   -7.9835    2.0710   -7.5477 C   0  0  0  0  0  0  0  0  0  0  0  0
   -8.4509    0.8238   -7.6621 N   0  0  1  0  0  0  0  0  0  0  0  0
  1  2  1  1  0  0  0
  1  3  1  0  0  0  0
  1  4  2  0  0  0  0
  1  6  1  0  0  0  0
  5  6  1  0  0  0  0
  7  5  1  6  0  0  0
  7  8  1  0  0  0  0
  7  9  1  0  0  0  0
  9 10  1  1  0  0  0
  9 11  1  0  0  0  0
 11 12  1  1  0  0  0
 11 13  1  0  0  0  0
 13  8  1  1  0  0  0
 13 24  1  0  0  0  0
 14 15  1  0  0  0  0
 14 20  1  0  0  0  0
 15 16  1  1  0  0  0
 15 17  1  0  0  0  0
 18 17  1  6  0  0  0
 18 19  1  0  0  0  0
 18 24  1  0  0  0  0
 19 20  1  1  0  0  0
 19 22  1  0  0  0  0
 20 21  2  0  0  0  0
 22 23  1  0  0  0  0
 24 23  1  6  0  0  0
M  CHG  1   3  -1
M  END
>  <CHROM.1>
37.64640188,61.38358499,168.51991755,-173.71055774,-8.63436504,1.27638727
-6.32862702,-2.44889659,-1.10781182,-2.91709047

>  <Name>
ligand

>  <RI>
0

>  <Rbt.Current_Directory>
/home/itssahil/PROJECTS/Mol_Feturizer/New_Systems/rnas/3SLQ

>  <Rbt.Executable>
rbdock ($Id: //depot/dev/client3/rdock/2013.1/src/exe/rbdock.cxx#4 $)

>  <Rbt.Library>
libRbt.so (2013.1, Build901 2013/11/27)

>  <Rbt.Parameter_File>
/export/apps/rDock/src/rDock_2013.1_src/data/scripts/dock_solv.prm

>  <Rbt.Receptor>
prm/blind_docking_100.prm

>  <SCORE>
-21.3532

>  <SCORE.INTER>
-15.8397

>  <SCORE.INTER.CONST>
1

>  <SCORE.INTER.POLAR>
0

>  <SCORE.INTER.ROT>
4

>  <SCORE.INTER.SOLV>
20.1345

>  <SCORE.INTER.VDW>
-23.5379

>  <SCORE.INTER.norm>
-0.659986

>  <SCORE.INTRA>
-5.51357

>  <SCORE.INTRA.DIHEDRAL>
-10.6793

>  <SCORE.INTRA.DIHEDRAL.0>
13.2525

>  <SCORE.INTRA.POLAR>
0

>  <SCORE.INTRA.POLAR.0>
0

>  <SCORE.INTRA.REPUL>
0

>  <SCORE.INTRA.REPUL.0>
0

>  <SCORE.INTRA.SOLV>
-0.178185

>  <SCORE.INTRA.SOLV.lig_0>
-70.7221

>  <SCORE.INTRA.VDW>
-0.0848186

>  <SCORE.INTRA.VDW.0>
-1.46337

>  <SCORE.INTRA.norm>
-0.229732

>  <SCORE.RESTR>
0

>  <SCORE.RESTR.CAVITY>
0

>  <SCORE.RESTR.norm>
0

>  <SCORE.SYSTEM>
0

>  <SCORE.SYSTEM.CONST>
0

>  <SCORE.SYSTEM.DIHEDRAL>
0

>  <SCORE.SYSTEM.SOLV>
0

>  <SCORE.SYSTEM.norm>
0

>  <SCORE.heavy>
24

>  <SCORE.norm>
-0.889718

>  <RMSD>
19.337

$$$$
ligand
 OpenBabel11021811483D
libRbt.so/2013.1/901 2013/11/27
 24 26  0  0  0  0  0  0  0  0999 V2000
   -5.8020    0.6344  -10.7589 P   0  0  1  0  0  0  0  0  0  0  0  0
   -4.9300    1.6806  -11.4196 O   0  0  0  0  0  0  0  0  0  0  0  0
   -6.9013    0.0434  -11.6098 O   0  5  0  0  0  0  0  0  0  0  0  0
   -5.0248   -0.4209   -9.9862 O   0  0  0  0  0  0  0  0  0  0  0  0
   -7.8334    0.9670   -9.0049 C   0  0  0  0  0  0  0  0  0  0  0  0
   -6.6721    1.4807   -9.6801 O   0  0  0  0  0  0  0  0  0  0  0  0
   -7.4357   -0.2059   -8.1039 C   0  0  1  0  0  0  0  0  0  0  0  0
   -6.7735    0.2363   -6.9122 O   0  0  0  0  0  0  0  0  0  0  0  0
   -8.5932   -1.0699   -7.6334 C   0  0  1  0  0  0  0  0  0  0  0  0
   -8.7895   -2.1320   -8.5715 O   0  0  0  0  0  0  0  0  0  0  0  0
   -8.1149   -1.5947   -6.2895 C   0  0  1  0  0  0  0  0  0  0  0  0
   -7.2609   -2.7334   -6.4697 O   0  0  0  0  0  0  0  0  0  0  0  0
   -7.2254   -0.4871   -5.7607 C   0  0  2  0  0  0  0  0  0  0  0  0
   -6.9535    4.2480   -3.8734 N   0  0  0  0  0  0  0  0  0  0  0  0
   -6.0555    3.5688   -4.6228 C   0  0  1  0  0  0  0  0  0  0  0  0
   -4.8944    4.1704   -4.9672 N   0  0  0  0  0  0  0  0  0  0  0  0
   -6.3039    2.3018   -5.0289 N   0  0  0  0  0  0  0  0  0  0  0  0
   -7.4685    1.7044   -4.6801 C   0  0  1  0  0  0  0  0  0  0  0  0
   -8.4027    2.3737   -3.9143 C   0  0  2  0  0  0  0  0  0  0  0  0
   -8.1239    3.6742   -3.5108 C   0  0  0  0  0  0  0  0  0  0  0  0
   -8.9397    4.3143   -2.8183 O   0  0  0  0  0  0  0  0  0  0  0  0
   -9.4410    1.5336   -3.7262 N   0  0  0  0  0  0  0  0  0  0  0  0
   -9.1565    0.3762   -4.3677 C   0  0  0  0  0  0  0  0  0  0  0  0
   -7.9558    0.4988   -4.9423 N   0  0  1  0  0  0  0  0  0  0  0  0
  1  2  1  6  0  0  0
  1  3  1  0  0  0  0
  1  4  2  0  0  0  0
  1  6  1  0  0  0  0
  5  6  1  0  0  0  0
  7  5  1  1  0  0  0
  7  8  1  0  0  0  0
  7  9  1  0  0  0  0
  9 10  1  6  0  0  0
  9 11  1  0  0  0  0
 11 12  1  6  0  0  0
 11 13  1  0  0  0  0
 13  8  1  6  0  0  0
 13 24  1  0  0  0  0
 14 15  1  0  0  0  0
 14 20  1  0  0  0  0
 15 16  1  1  0  0  0
 15 17  1  0  0  0  0
 18 17  1  6  0  0  0
 18 19  1  0  0  0  0
 18 24  1  0  0  0  0
 19 20  1  1  0  0  0
 19 22  1  0  0  0  0
 20 21  2  0  0  0  0
 22 23  1  0  0  0  0
 24 23  1  6  0  0  0
M  CHG  1   3  -1
M  END
>  <CHROM.1>
166.61369857,75.41183105,64.38913876,-46.81230515,-7.18393719,0.98017448
-6.95411980,-1.18746993,0.98748928,0.82849171

>  <Name>
ligand

>  <RI>
0

>  <Rbt.Current_Directory>
/home/itssahil/PROJECTS/Mol_Feturizer/New_Systems/rnas/3SLQ

>  <Rbt.Executable>
rbdock ($Id: //depot/dev/client3/rdock/2013.1/src/exe/rbdock.cxx#4 $)

>  <Rbt.Library>
libRbt.so (2013.1, Build901 2013/11/27)

>  <Rbt.Parameter_File>
/export/apps/rDock/src/rDock_2013.1_src/data/scripts/dock_solv.prm

>  <Rbt.Receptor>
prm/blind_docking_60.prm

>  <SCORE>
-18.2999

>  <SCORE.INTER>
-14.0713

>  <SCORE.INTER.CONST>
1

>  <SCORE.INTER.POLAR>
0

>  <SCORE.INTER.ROT>
4

>  <SCORE.INTER.SOLV>
13.1538

>  <SCORE.INTER.VDW>
-20.0321

>  <SCORE.INTER.norm>
-0.586303

>  <SCORE.INTRA>
-4.2286

>  <SCORE.INTRA.DIHEDRAL>
-10.852

>  <SCORE.INTRA.DIHEDRAL.0>
13.2525

>  <SCORE.INTRA.POLAR>
0

>  <SCORE.INTRA.POLAR.0>
0

>  <SCORE.INTRA.REPUL>
0

>  <SCORE.INTRA.REPUL.0>
0

>  <SCORE.INTRA.SOLV>
3.0537

>  <SCORE.INTRA.SOLV.lig_0>
-70.7221

>  <SCORE.INTRA.VDW>
-0.329447

>  <SCORE.INTRA.VDW.0>
-1.46337

>  <SCORE.INTRA.norm>
-0.176192

>  <SCORE.RESTR>
0

>  <SCORE.RESTR.CAVITY>
0

>  <SCORE.RESTR.norm>
0

>  <SCORE.SYSTEM>
0

>  <SCORE.SYSTEM.CONST>
0

>  <SCORE.SYSTEM.DIHEDRAL>
0

>  <SCORE.SYSTEM.SOLV>
0

>  <SCORE.SYSTEM.norm>
0

>  <SCORE.heavy>
24

>  <SCORE.norm>
-0.762495

>  <RMSD>
19.401

$$$$
ligand
 OpenBabel11021811483D
libRbt.so/2013.1/901 2013/11/27
 24 26  0  0  0  0  0  0  0  0999 V2000
   -2.4257    0.1828   -7.7185 P   0  0  1  0  0  0  0  0  0  0  0  0
   -1.9829   -1.2589   -7.8483 O   0  0  0  0  0  0  0  0  0  0  0  0
   -3.1188    0.5579   -6.4297 O   0  5  0  0  0  0  0  0  0  0  0  0
   -1.3682    1.1949   -8.1334 O   0  0  0  0  0  0  0  0  0  0  0  0
   -4.8832   -0.4319   -8.6653 C   0  0  0  0  0  0  0  0  0  0  0  0
   -3.6542    0.3070   -8.7734 O   0  0  0  0  0  0  0  0  0  0  0  0
   -4.6417   -1.9003   -9.0278 C   0  0  1  0  0  0  0  0  0  0  0  0
   -4.1285   -2.6473   -7.9175 O   0  0  0  0  0  0  0  0  0  0  0  0
   -5.8759   -2.6536   -9.4937 C   0  0  1  0  0  0  0  0  0  0  0  0
   -5.9789   -2.5389  -10.9160 O   0  0  0  0  0  0  0  0  0  0  0  0
   -5.5934   -4.0854   -9.0691 C   0  0  1  0  0  0  0  0  0  0  0  0
   -4.7572   -4.7400  -10.0337 O   0  0  0  0  0  0  0  0  0  0  0  0
   -4.7485   -3.9355   -7.8195 C   0  0  2  0  0  0  0  0  0  0  0  0
   -8.7023   -1.5834   -5.6078 N   0  0  0  0  0  0  0  0  0  0  0  0
   -8.1528   -1.3785   -6.8266 C   0  0  1  0  0  0  0  0  0  0  0  0
   -8.6787   -0.4320   -7.6367 N   0  0  0  0  0  0  0  0  0  0  0  0
   -7.0890   -2.1050   -7.2419 N   0  0  0  0  0  0  0  0  0  0  0  0
   -6.5663   -3.0512   -6.4256 C   0  0  1  0  0  0  0  0  0  0  0  0
   -7.1062   -3.2806   -5.1753 C   0  0  2  0  0  0  0  0  0  0  0  0
   -8.1989   -2.5216   -4.7730 C   0  0  0  0  0  0  0  0  0  0  0  0
   -8.7168   -2.6962   -3.6523 O   0  0  0  0  0  0  0  0  0  0  0  0
   -6.3813   -4.2623   -4.6011 N   0  0  0  0  0  0  0  0  0  0  0  0
   -5.4218   -4.6346   -5.4800 C   0  0  0  0  0  0  0  0  0  0  0  0
   -5.5503   -3.8897   -6.5825 N   0  0  1  0  0  0  0  0  0  0  0  0
  1  2  1  1  0  0  0
  1  3  1  0  0  0  0
  1  4  2  0  0  0  0
  1  6  1  0  0  0  0
  5  6  1  0  0  0  0
  7  5  1  1  0  0  0
  7  8  1  0  0  0  0
  7  9  1  0  0  0  0
  9 10  1  6  0  0  0
  9 11  1  0  0  0  0
 11 12  1  6  0  0  0
 11 13  1  0  0  0  0
 13  8  1  6  0  0  0
 13 24  1  0  0  0  0
 14 15  1  0  0  0  0
 14 20  1  0  0  0  0
 15 16  1  1  0  0  0
 15 17  1  0  0  0  0
 18 17  1  6  0  0  0
 18 19  1  0  0  0  0
 18 24  1  0  0  0  0
 19 20  1  1  0  0  0
 19 22  1  0  0  0  0
 20 21  2  0  0  0  0
 22 23  1  0  0  0  0
 24 23  1  6  0  0  0
M  CHG  1   3  -1
M  END
>  <CHROM.1>
62.98066693,82.96992552,-72.95309598,62.94946064,-5.32174947,-1.98134906
-7.40208458,-0.03954276,0.65923245,0.83074028

>  <Name>
ligand

>  <RI>
0

>  <Rbt.Current_Directory>
/home/itssahil/PROJECTS/Mol_Feturizer/New_Systems/rnas/3SLQ

>  <Rbt.Executable>
rbdock ($Id: //depot/dev/client3/rdock/2013.1/src/exe/rbdock.cxx#4 $)

>  <Rbt.Library>
libRbt.so (2013.1, Build901 2013/11/27)

>  <Rbt.Parameter_File>
/export/apps/rDock/src/rDock_2013.1_src/data/scripts/dock_solv.prm

>  <Rbt.Receptor>
prm/blind_docking_80.prm

>  <SCORE>
-12.0725

>  <SCORE.INTER>
-8.86214

>  <SCORE.INTER.CONST>
1

>  <SCORE.INTER.POLAR>
0

>  <SCORE.INTER.ROT>
4

>  <SCORE.INTER.SOLV>
12.0216

>  <SCORE.INTER.VDW>
-16.1819

>  <SCORE.INTER.norm>
-0.369256

>  <SCORE.INTRA>
-3.21035

>  <SCORE.INTRA.DIHEDRAL>
-9.54917

>  <SCORE.INTRA.DIHEDRAL.0>
13.2525

>  <SCORE.INTRA.POLAR>
0

>  <SCORE.INTRA.POLAR.0>
0

>  <SCORE.INTRA.REPUL>
0

>  <SCORE.INTRA.REPUL.0>
0

>  <SCORE.INTRA.SOLV>
3.06104

>  <SCORE.INTRA.SOLV.lig_0>
-70.7221

>  <SCORE.INTRA.VDW>
0.0337112

>  <SCORE.INTRA.VDW.0>
-1.46337

>  <SCORE.INTRA.norm>
-0.133765

>  <SCORE.RESTR>
0

>  <SCORE.RESTR.CAVITY>
0

>  <SCORE.RESTR.norm>
0

>  <SCORE.SYSTEM>
0

>  <SCORE.SYSTEM.CONST>
0

>  <SCORE.SYSTEM.DIHEDRAL>
0

>  <SCORE.SYSTEM.SOLV>
0

>  <SCORE.SYSTEM.norm>
0

>  <SCORE.heavy>
24

>  <SCORE.norm>
-0.50302

>  <RMSD>
19.412

$$$$
ligand
 OpenBabel11021811483D
libRbt.so/2013.1/901 2013/11/27
 24 26  0  0  0  0  0  0  0  0999 V2000
  -10.2003    4.3640   -2.6800 P   0  0  1  0  0  0  0  0  0  0  0  0
   -8.7493    4.7733   -2.8158 O   0  0  0  0  0  0  0  0  0  0  0  0
  -10.6823    4.0576   -1.2815 O   0  5  0  0  0  0  0  0  0  0  0  0
  -11.1675    5.2462   -3.4551 O   0  0  0  0  0  0  0  0  0  0  0  0
  -10.3252    2.6493   -4.7675 C   0  0  0  0  0  0  0  0  0  0  0  0
  -10.2501    2.8860   -3.3510 O   0  0  0  0  0  0  0  0  0  0  0  0
  -10.1460    1.1558   -5.0562 C   0  0  1  0  0  0  0  0  0  0  0  0
  -10.2407    0.8671   -6.4568 O   0  0  0  0  0  0  0  0  0  0  0  0
   -8.8167    0.5742   -4.6064 C   0  0  1  0  0  0  0  0  0  0  0  0
   -8.9545    0.0834   -3.2696 O   0  0  0  0  0  0  0  0  0  0  0  0
   -8.5774   -0.5568   -5.5933 C   0  0  1  0  0  0  0  0  0  0  0  0
   -9.2947   -1.7331   -5.1932 O   0  0  0  0  0  0  0  0  0  0  0  0
   -9.2434   -0.0764   -6.8674 C   0  0  2  0  0  0  0  0  0  0  0  0
   -6.4229   -0.4559  -11.1050 N   0  0  0  0  0  0  0  0  0  0  0  0
   -7.1877   -1.3902  -10.4953 C   0  0  1  0  0  0  0  0  0  0  0  0
   -7.2709   -2.6281  -11.0331 N   0  0  0  0  0  0  0  0  0  0  0  0
   -7.8660   -1.1020   -9.3600 N   0  0  0  0  0  0  0  0  0  0  0  0
   -7.7781    0.1397   -8.8259 C   0  0  1  0  0  0  0  0  0  0  0  0
   -7.0034    1.1125   -9.4264 C   0  0  2  0  0  0  0  0  0  0  0  0
   -6.3175    0.7915  -10.5919 C   0  0  0  0  0  0  0  0  0  0  0  0
   -5.6068    1.6400  -11.1661 O   0  0  0  0  0  0  0  0  0  0  0  0
   -7.1066    2.2266   -8.6733 N   0  0  0  0  0  0  0  0  0  0  0  0
   -7.9318    1.9491   -7.6370 C   0  0  0  0  0  0  0  0  0  0  0  0
   -8.3309    0.6780   -7.7468 N   0  0  1  0  0  0  0  0  0  0  0  0
  1  2  1  1  0  0  0
  1  3  1  0  0  0  0
  1  4  2  0  0  0  0
  1  6  1  0  0  0  0
  5  6  1  0  0  0  0
  7  5  1  6  0  0  0
  7  8  1  0  0  0  0
  7  9  1  0  0  0  0
  9 10  1  1  0  0  0
  9 11  1  0  0  0  0
 11 12  1  1  0  0  0
 11 13  1  0  0  0  0
 13  8  1  1  0  0  0
 13 24  1  0  0  0  0
 14 15  1  0  0  0  0
 14 20  1  0  0  0  0
 15 16  1  1  0  0  0
 15 17  1  0  0  0  0
 18 17  1  6  0  0  0
 18 19  1  0  0  0  0
 18 24  1  0  0  0  0
 19 20  1  1  0  0  0
 19 22  1  0  0  0  0
 20 21  2  0  0  0  0
 22 23  1  0  0  0  0
 24 23  1  6  0  0  0
M  CHG  1   3  -1
M  END
>  <CHROM.1>
-80.93229315,178.81469242,171.64840565,-142.77702658,-8.70587663,1.36569942
-6.37773190,-2.47806815,-1.09512016,-2.92136499

>  <Name>
ligand

>  <RI>
0

>  <Rbt.Current_Directory>
/home/itssahil/PROJECTS/Mol_Feturizer/New_Systems/rnas/3SLQ

>  <Rbt.Executable>
rbdock ($Id: //depot/dev/client3/rdock/2013.1/src/exe/rbdock.cxx#4 $)

>  <Rbt.Library>
libRbt.so (2013.1, Build901 2013/11/27)

>  <Rbt.Parameter_File>
/export/apps/rDock/src/rDock_2013.1_src/data/scripts/dock_solv.prm

>  <Rbt.Receptor>
prm/blind_docking_80.prm

>  <SCORE>
-22.1307

>  <SCORE.INTER>
-16.2762

>  <SCORE.INTER.CONST>
1

>  <SCORE.INTER.POLAR>
0

>  <SCORE.INTER.ROT>
4

>  <SCORE.INTER.SOLV>
20.055

>  <SCORE.INTER.VDW>
-23.8025

>  <SCORE.INTER.norm>
-0.678175

>  <SCORE.INTRA>
-5.85454

>  <SCORE.INTRA.DIHEDRAL>
-11.0409

>  <SCORE.INTRA.DIHEDRAL.0>
13.2525

>  <SCORE.INTRA.POLAR>
0

>  <SCORE.INTRA.POLAR.0>
0

>  <SCORE.INTRA.REPUL>
0

>  <SCORE.INTRA.REPUL.0>
0

>  <SCORE.INTRA.SOLV>
0.187272

>  <SCORE.INTRA.SOLV.lig_0>
-70.7221

>  <SCORE.INTRA.VDW>
-0.427737

>  <SCORE.INTRA.VDW.0>
-1.46337

>  <SCORE.INTRA.norm>
-0.243939

>  <SCORE.RESTR>
0

>  <SCORE.RESTR.CAVITY>
0

>  <SCORE.RESTR.norm>
0

>  <SCORE.SYSTEM>
0

>  <SCORE.SYSTEM.CONST>
0

>  <SCORE.SYSTEM.DIHEDRAL>
0

>  <SCORE.SYSTEM.SOLV>
0

>  <SCORE.SYSTEM.norm>
0

>  <SCORE.heavy>
24

>  <SCORE.norm>
-0.922114

>  <RMSD>
19.469

$$$$
ligand
 OpenBabel11021811483D
libRbt.so/2013.1/901 2013/11/27
 24 26  0  0  0  0  0  0  0  0999 V2000
   -5.6322    0.5070  -10.7902 P   0  0  1  0  0  0  0  0  0  0  0  0
   -5.6152    1.3498  -12.0475 O   0  0  0  0  0  0  0  0  0  0  0  0
   -6.0917   -0.9233  -10.9482 O   0  5  0  0  0  0  0  0  0  0  0  0
   -4.3729    0.6300   -9.9455 O   0  0  0  0  0  0  0  0  0  0  0  0
   -7.1729    0.7300   -8.5788 C   0  0  0  0  0  0  0  0  0  0  0  0
   -6.8579    1.1278   -9.9245 O   0  0  0  0  0  0  0  0  0  0  0  0
   -6.1541    1.3313   -7.6060 C   0  0  1  0  0  0  0  0  0  0  0  0
   -6.7275    2.3762   -6.8101 O   0  0  0  0  0  0  0  0  0  0  0  0
   -5.5560    0.3443   -6.6181 C   0  0  1  0  0  0  0  0  0  0  0  0
   -4.3678   -0.2157   -7.1849 O   0  0  0  0  0  0  0  0  0  0  0  0
   -5.2423    1.2076   -5.4071 C   0  0  1  0  0  0  0  0  0  0  0  0
   -3.9886    1.8827   -5.5823 O   0  0  0  0  0  0  0  0  0  0  0  0
   -6.3052    2.2877   -5.4436 C   0  0  2  0  0  0  0  0  0  0  0  0
   -9.4599   -1.5817   -4.3794 N   0  0  0  0  0  0  0  0  0  0  0  0
   -8.3722   -1.5559   -5.1830 C   0  0  1  0  0  0  0  0  0  0  0  0
   -8.0012   -2.6853   -5.8275 N   0  0  0  0  0  0  0  0  0  0  0  0
   -7.6557   -0.4196   -5.3486 N   0  0  0  0  0  0  0  0  0  0  0  0
   -8.0327    0.7086   -4.7008 C   0  0  1  0  0  0  0  0  0  0  0  0
   -9.1400    0.7115   -3.8755 C   0  0  2  0  0  0  0  0  0  0  0  0
   -9.8582   -0.4686   -3.7216 C   0  0  0  0  0  0  0  0  0  0  0  0
  -10.8642   -0.5097   -2.9861 O   0  0  0  0  0  0  0  0  0  0  0  0
   -9.2673    1.9602   -3.3821 N   0  0  0  0  0  0  0  0  0  0  0  0
   -8.2575    2.7077   -3.8856 C   0  0  0  0  0  0  0  0  0  0  0  0
   -7.5173    1.9308   -4.6829 N   0  0  1  0  0  0  0  0  0  0  0  0
  1  2  1  6  0  0  0
  1  3  1  0  0  0  0
  1  4  2  0  0  0  0
  1  6  1  0  0  0  0
  5  6  1  0  0  0  0
  7  5  1  1  0  0  0
  7  8  1  0  0  0  0
  7  9  1  0  0  0  0
  9 10  1  6  0  0  0
  9 11  1  0  0  0  0
 11 12  1  6  0  0  0
 11 13  1  0  0  0  0
 13  8  1  6  0  0  0
 13 24  1  0  0  0  0
 14 15  1  0  0  0  0
 14 20  1  0  0  0  0
 15 16  1  6  0  0  0
 15 17  1  0  0  0  0
 18 17  1  1  0  0  0
 18 19  1  0  0  0  0
 18 24  1  0  0  0  0
 19 20  1  6  0  0  0
 19 22  1  0  0  0  0
 20 21  2  0  0  0  0
 22 23  1  0  0  0  0
 24 23  1  1  0  0  0
M  CHG  1   3  -1
M  END
>  <CHROM.1>
-173.52058451,108.63054701,74.90432689,74.90708826,-6.95827916,0.55991600
-6.80061728,0.85360470,-0.74311891,-2.04473089

>  <Name>
ligand

>  <RI>
0

>  <Rbt.Current_Directory>
/home/itssahil/PROJECTS/Mol_Feturizer/New_Systems/rnas/3SLQ

>  <Rbt.Executable>
rbdock ($Id: //depot/dev/client3/rdock/2013.1/src/exe/rbdock.cxx#4 $)

>  <Rbt.Library>
libRbt.so (2013.1, Build901 2013/11/27)

>  <Rbt.Parameter_File>
/export/apps/rDock/src/rDock_2013.1_src/data/scripts/dock_solv.prm

>  <Rbt.Receptor>
prm/blind_docking_40.prm

>  <SCORE>
-16.724

>  <SCORE.INTER>
-16.1957

>  <SCORE.INTER.CONST>
1

>  <SCORE.INTER.POLAR>
0

>  <SCORE.INTER.ROT>
4

>  <SCORE.INTER.SOLV>
11.0557

>  <SCORE.INTER.VDW>
-20.749

>  <SCORE.INTER.norm>
-0.674819

>  <SCORE.INTRA>
-0.528292

>  <SCORE.INTRA.DIHEDRAL>
-6.10202

>  <SCORE.INTRA.DIHEDRAL.0>
13.2525

>  <SCORE.INTRA.POLAR>
0

>  <SCORE.INTRA.POLAR.0>
0

>  <SCORE.INTRA.REPUL>
0

>  <SCORE.INTRA.REPUL.0>
0

>  <SCORE.INTRA.SOLV>
4.84203

>  <SCORE.INTRA.SOLV.lig_0>
-70.7221

>  <SCORE.INTRA.VDW>
0.101701

>  <SCORE.INTRA.VDW.0>
-1.46337

>  <SCORE.INTRA.norm>
-0.0220122

>  <SCORE.RESTR>
0

>  <SCORE.RESTR.CAVITY>
0

>  <SCORE.RESTR.norm>
0

>  <SCORE.SYSTEM>
0

>  <SCORE.SYSTEM.CONST>
0

>  <SCORE.SYSTEM.DIHEDRAL>
0

>  <SCORE.SYSTEM.SOLV>
0

>  <SCORE.SYSTEM.norm>
0

>  <SCORE.heavy>
24

>  <SCORE.norm>
-0.696832

>  <RMSD>
19.486

$$$$
ligand
 OpenBabel11021811483D
libRbt.so/2013.1/901 2013/11/27
 24 26  0  0  0  0  0  0  0  0999 V2000
  -10.1338    4.1090   -2.6679 P   0  0  1  0  0  0  0  0  0  0  0  0
  -10.5845    3.8491   -1.2463 O   0  0  0  0  0  0  0  0  0  0  0  0
  -11.0610    4.9392   -3.5239 O   0  5  0  0  0  0  0  0  0  0  0  0
   -8.6797    4.5403   -2.7871 O   0  0  0  0  0  0  0  0  0  0  0  0
  -10.3028    2.4711   -4.8132 C   0  0  0  0  0  0  0  0  0  0  0  0
  -10.2688    2.6596   -3.3878 O   0  0  0  0  0  0  0  0  0  0  0  0
  -10.0973    0.9906   -5.1477 C   0  0  1  0  0  0  0  0  0  0  0  0
  -10.1801    0.7448   -6.5572 O   0  0  0  0  0  0  0  0  0  0  0  0
   -8.7608    0.4171   -4.7090 C   0  0  1  0  0  0  0  0  0  0  0  0
   -8.8972   -0.1178   -3.3891 O   0  0  0  0  0  0  0  0  0  0  0  0
   -8.4977   -0.6780   -5.7296 C   0  0  1  0  0  0  0  0  0  0  0  0
   -9.1973   -1.8780   -5.3708 O   0  0  0  0  0  0  0  0  0  0  0  0
   -9.1651   -0.1687   -6.9917 C   0  0  2  0  0  0  0  0  0  0  0  0
   -6.2851   -0.3801  -11.2009 N   0  0  0  0  0  0  0  0  0  0  0  0
   -7.0340   -1.3467  -10.6227 C   0  0  1  0  0  0  0  0  0  0  0  0
   -7.0802   -2.5734  -11.1900 N   0  0  0  0  0  0  0  0  0  0  0  0
   -7.7328   -1.1019   -9.4897 N   0  0  0  0  0  0  0  0  0  0  0  0
   -7.6820    0.1287   -8.9259 C   0  0  1  0  0  0  0  0  0  0  0  0
   -6.9242    1.1340   -9.4939 C   0  0  2  0  0  0  0  0  0  0  0  0
   -6.2166    0.8571  -10.6577 C   0  0  0  0  0  0  0  0  0  0  0  0
   -5.5200    1.7358  -11.2031 O   0  0  0  0  0  0  0  0  0  0  0  0
   -7.0638    2.2272   -8.7166 N   0  0  0  0  0  0  0  0  0  0  0  0
   -7.8944    1.9055   -7.6975 C   0  0  0  0  0  0  0  0  0  0  0  0
   -8.2608    0.6280   -7.8418 N   0  0  1  0  0  0  0  0  0  0  0  0
  1  2  1  1  0  0  0
  1  3  1  0  0  0  0
  1  4  2  0  0  0  0
  1  6  1  0  0  0  0
  5  6  1  0  0  0  0
  7  5  1  6  0  0  0
  7  8  1  0  0  0  0
  7  9  1  0  0  0  0
  9 10  1  1  0  0  0
  9 11  1  0  0  0  0
 11 12  1  1  0  0  0
 11 13  1  0  0  0  0
 13  8  1  1  0  0  0
 13 24  1  0  0  0  0
 14 15  1  0  0  0  0
 14 20  1  0  0  0  0
 15 16  1  1  0  0  0
 15 17  1  0  0  0  0
 18 17  1  6  0  0  0
 18 19  1  0  0  0  0
 18 24  1  0  0  0  0
 19 20  1  1  0  0  0
 19 22  1  0  0  0  0
 20 21  2  0  0  0  0
 22 23  1  0  0  0  0
 24 23  1  6  0  0  0
M  CHG  1   3  -1
M  END
>  <CHROM.1>
162.42529445,177.53200911,166.45877814,-143.54277479,-8.62598513,1.26184970
-6.45137620,-2.49246262,-1.09058718,-2.89946540

>  <Name>
ligand

>  <RI>
0

>  <Rbt.Current_Directory>
/home/itssahil/PROJECTS/Mol_Feturizer/New_Systems/rnas/3SLQ

>  <Rbt.Executable>
rbdock ($Id: //depot/dev/client3/rdock/2013.1/src/exe/rbdock.cxx#4 $)

>  <Rbt.Library>
libRbt.so (2013.1, Build901 2013/11/27)

>  <Rbt.Parameter_File>
/export/apps/rDock/src/rDock_2013.1_src/data/scripts/dock_solv.prm

>  <Rbt.Receptor>
prm/blind_docking_60.prm

>  <SCORE>
-21.1799

>  <SCORE.INTER>
-16.0169

>  <SCORE.INTER.CONST>
1

>  <SCORE.INTER.POLAR>
0

>  <SCORE.INTER.ROT>
4

>  <SCORE.INTER.SOLV>
20.9752

>  <SCORE.INTER.VDW>
-23.9363

>  <SCORE.INTER.norm>
-0.667369

>  <SCORE.INTRA>
-5.16306

>  <SCORE.INTRA.DIHEDRAL>
-10.6723

>  <SCORE.INTRA.DIHEDRAL.0>
13.2525

>  <SCORE.INTRA.POLAR>
0

>  <SCORE.INTRA.POLAR.0>
0

>  <SCORE.INTRA.REPUL>
0

>  <SCORE.INTRA.REPUL.0>
0

>  <SCORE.INTRA.SOLV>
0.786865

>  <SCORE.INTRA.SOLV.lig_0>
-70.7221

>  <SCORE.INTRA.VDW>
-0.220331

>  <SCORE.INTRA.VDW.0>
-1.46337

>  <SCORE.INTRA.norm>
-0.215127

>  <SCORE.RESTR>
0

>  <SCORE.RESTR.CAVITY>
0

>  <SCORE.RESTR.norm>
0

>  <SCORE.SYSTEM>
0

>  <SCORE.SYSTEM.CONST>
0

>  <SCORE.SYSTEM.DIHEDRAL>
0

>  <SCORE.SYSTEM.SOLV>
0

>  <SCORE.SYSTEM.norm>
0

>  <SCORE.heavy>
24

>  <SCORE.norm>
-0.882496

>  <RMSD>
19.492

$$$$
ligand
 OpenBabel11021811483D
libRbt.so/2013.1/901 2013/11/27
 24 26  0  0  0  0  0  0  0  0999 V2000
   -5.9165    3.6166   -4.1895 P   0  0  1  0  0  0  0  0  0  0  0  0
   -5.3193    2.9066   -2.9933 O   0  0  0  0  0  0  0  0  0  0  0  0
   -6.6997    4.8753   -3.8997 O   0  5  0  0  0  0  0  0  0  0  0  0
   -4.9544    3.7784   -5.3569 O   0  0  0  0  0  0  0  0  0  0  0  0
   -8.2740    2.3251   -3.8936 C   0  0  0  0  0  0  0  0  0  0  0  0
   -7.1047    2.6225   -4.6763 O   0  0  0  0  0  0  0  0  0  0  0  0
   -9.0524    1.1737   -4.5372 C   0  0  1  0  0  0  0  0  0  0  0  0
   -9.5452    1.5225   -5.8370 O   0  0  0  0  0  0  0  0  0  0  0  0
   -8.2560   -0.1055   -4.7300 C   0  0  1  0  0  0  0  0  0  0  0  0
   -8.4128   -0.9279   -3.5699 O   0  0  0  0  0  0  0  0  0  0  0  0
   -8.9002   -0.7381   -5.9527 C   0  0  1  0  0  0  0  0  0  0  0  0
  -10.0826   -1.4605   -5.5808 O   0  0  0  0  0  0  0  0  0  0  0  0
   -9.3761    0.4472   -6.7690 C   0  0  2  0  0  0  0  0  0  0  0  0
   -6.6984   -0.9445  -10.8860 N   0  0  0  0  0  0  0  0  0  0  0  0
   -7.5895   -1.6568  -10.1594 C   0  0  1  0  0  0  0  0  0  0  0  0
   -7.8675   -2.9300  -10.5205 N   0  0  0  0  0  0  0  0  0  0  0  0
   -8.2020   -1.1134   -9.0816 N   0  0  0  0  0  0  0  0  0  0  0  0
   -7.9189    0.1622   -8.7247 C   0  0  1  0  0  0  0  0  0  0  0  0
   -7.0120    0.9121   -9.4474 C   0  0  2  0  0  0  0  0  0  0  0  0
   -6.3974    0.3311  -10.5504 C   0  0  0  0  0  0  0  0  0  0  0  0
   -5.5723    0.9728  -11.2304 O   0  0  0  0  0  0  0  0  0  0  0  0
   -6.9345    2.1225   -8.8576 N   0  0  0  0  0  0  0  0  0  0  0  0
   -7.7797    2.1212   -7.8005 C   0  0  0  0  0  0  0  0  0  0  0  0
   -8.3698    0.9234   -7.7362 N   0  0  1  0  0  0  0  0  0  0  0  0
  1  2  1  1  0  0  0
  1  3  1  0  0  0  0
  1  4  2  0  0  0  0
  1  6  1  0  0  0  0
  5  6  1  0  0  0  0
  7  5  1  6  0  0  0
  7  8  1  0  0  0  0
  7  9  1  0  0  0  0
  9 10  1  1  0  0  0
  9 11  1  0  0  0  0
 11 12  1  1  0  0  0
 11 13  1  0  0  0  0
 13  8  1  1  0  0  0
 13 24  1  0  0  0  0
 14 15  1  0  0  0  0
 14 20  1  0  0  0  0
 15 16  1  1  0  0  0
 15 17  1  0  0  0  0
 18 17  1  6  0  0  0
 18 19  1  0  0  0  0
 18 24  1  0  0  0  0
 19 20  1  1  0  0  0
 19 22  1  0  0  0  0
 20 21  2  0  0  0  0
 22 23  1  0  0  0  0
 24 23  1  6  0  0  0
M  CHG  1   3  -1
M  END
>  <CHROM.1>
65.08285828,-63.36682012,-169.94386163,177.25754421,-7.48859970,1.06610421
-6.70428680,-1.42723335,-0.84331227,-2.02011624

>  <Name>
ligand

>  <RI>
0

>  <Rbt.Current_Directory>
/home/itssahil/PROJECTS/Mol_Feturizer/New_Systems/rnas/3SLQ

>  <Rbt.Executable>
rbdock ($Id: //depot/dev/client3/rdock/2013.1/src/exe/rbdock.cxx#4 $)

>  <Rbt.Library>
libRbt.so (2013.1, Build901 2013/11/27)

>  <Rbt.Parameter_File>
/export/apps/rDock/src/rDock_2013.1_src/data/scripts/dock_solv.prm

>  <Rbt.Receptor>
prm/blind_docking_20.prm

>  <SCORE>
-19.8921

>  <SCORE.INTER>
-13.5802

>  <SCORE.INTER.CONST>
1

>  <SCORE.INTER.POLAR>
0

>  <SCORE.INTER.ROT>
4

>  <SCORE.INTER.SOLV>
11.4007

>  <SCORE.INTER.VDW>
-19.1204

>  <SCORE.INTER.norm>
-0.565841

>  <SCORE.INTRA>
-6.31192

>  <SCORE.INTRA.DIHEDRAL>
-11.482

>  <SCORE.INTRA.DIHEDRAL.0>
13.2525

>  <SCORE.INTRA.POLAR>
0

>  <SCORE.INTRA.POLAR.0>
0

>  <SCORE.INTRA.REPUL>
0

>  <SCORE.INTRA.REPUL.0>
0

>  <SCORE.INTRA.SOLV>
0.0642581

>  <SCORE.INTRA.SOLV.lig_0>
-70.7221

>  <SCORE.INTRA.VDW>
-0.603041

>  <SCORE.INTRA.VDW.0>
-1.46337

>  <SCORE.INTRA.norm>
-0.262997

>  <SCORE.RESTR>
0

>  <SCORE.RESTR.CAVITY>
0

>  <SCORE.RESTR.norm>
0

>  <SCORE.SYSTEM>
0

>  <SCORE.SYSTEM.CONST>
0

>  <SCORE.SYSTEM.DIHEDRAL>
0

>  <SCORE.SYSTEM.SOLV>
0

>  <SCORE.SYSTEM.norm>
0

>  <SCORE.heavy>
24

>  <SCORE.norm>
-0.828838

>  <RMSD>
19.497

$$$$
ligand
 OpenBabel11021811483D
libRbt.so/2013.1/901 2013/11/27
 24 26  0  0  0  0  0  0  0  0999 V2000
  -10.7529    1.9894   -4.3063 P   0  0  1  0  0  0  0  0  0  0  0  0
  -11.1852    2.9464   -5.3966 O   0  0  0  0  0  0  0  0  0  0  0  0
  -10.9074    2.4782   -2.8854 O   0  5  0  0  0  0  0  0  0  0  0  0
  -11.2562    0.5664   -4.4965 O   0  0  0  0  0  0  0  0  0  0  0  0
   -8.2531    2.8850   -3.7940 C   0  0  0  0  0  0  0  0  0  0  0  0
   -9.1351    1.9525   -4.4426 O   0  0  0  0  0  0  0  0  0  0  0  0
   -6.7971    2.5326   -4.1127 C   0  0  1  0  0  0  0  0  0  0  0  0
   -6.6762    1.2214   -4.6786 O   0  0  0  0  0  0  0  0  0  0  0  0
   -6.1149    3.4683   -5.0959 C   0  0  1  0  0  0  0  0  0  0  0  0
   -5.4788    4.5223   -4.3670 O   0  0  0  0  0  0  0  0  0  0  0  0
   -5.0969    2.5727   -5.7830 C   0  0  1  0  0  0  0  0  0  0  0  0
   -3.9117    2.4534   -4.9833 O   0  0  0  0  0  0  0  0  0  0  0  0
   -5.7474    1.2037   -5.7698 C   0  0  2  0  0  0  0  0  0  0  0  0
   -5.4374    0.1131  -10.7468 N   0  0  0  0  0  0  0  0  0  0  0  0
   -4.4473    0.3336   -9.8522 C   0  0  1  0  0  0  0  0  0  0  0  0
   -3.1605    0.2658  -10.2623 N   0  0  0  0  0  0  0  0  0  0  0  0
   -4.7279    0.6200   -8.5594 N   0  0  0  0  0  0  0  0  0  0  0  0
   -6.0189    0.6871   -8.1549 C   0  0  1  0  0  0  0  0  0  0  0  0
   -7.0499    0.4681   -9.0472 C   0  0  2  0  0  0  0  0  0  0  0  0
   -6.7350    0.1750  -10.3689 C   0  0  0  0  0  0  0  0  0  0  0  0
   -7.6352   -0.0294  -11.2071 O   0  0  0  0  0  0  0  0  0  0  0  0
   -8.2050    0.6063   -8.3648 N   0  0  0  0  0  0  0  0  0  0  0  0
   -7.8930    0.8961   -7.0801 C   0  0  0  0  0  0  0  0  0  0  0  0
   -6.5614    0.9397   -6.9709 N   0  0  1  0  0  0  0  0  0  0  0  0
  1  2  1  6  0  0  0
  1  3  1  0  0  0  0
  1  4  2  0  0  0  0
  1  6  1  0  0  0  0
  5  6  1  0  0  0  0
  7  5  1  6  0  0  0
  7  8  1  0  0  0  0
  7  9  1  0  0  0  0
  9 10  1  1  0  0  0
  9 11  1  0  0  0  0
 11 12  1  1  0  0  0
 11 13  1  0  0  0  0
 13  8  1  1  0  0  0
 13 24  1  0  0  0  0
 14 15  1  0  0  0  0
 14 20  1  0  0  0  0
 15 16  1  6  0  0  0
 15 17  1  0  0  0  0
 18 17  1  1  0  0  0
 18 19  1  0  0  0  0
 18 24  1  0  0  0  0
 19 20  1  6  0  0  0
 19 22  1  0  0  0  0
 20 21  2  0  0  0  0
 22 23  1  0  0  0  0
 24 23  1  1  0  0  0
M  CHG  1   3  -1
M  END
>  <CHROM.1>
86.94055565,-14.09775424,178.53868250,-171.35096200,-7.31108619,1.55856212
-6.47500744,2.23947445,0.16117163,1.12101032

>  <Name>
ligand

>  <RI>
0

>  <Rbt.Current_Directory>
/home/itssahil/PROJECTS/Mol_Feturizer/New_Systems/rnas/3SLQ

>  <Rbt.Executable>
rbdock ($Id: //depot/dev/client3/rdock/2013.1/src/exe/rbdock.cxx#4 $)

>  <Rbt.Library>
libRbt.so (2013.1, Build901 2013/11/27)

>  <Rbt.Parameter_File>
/export/apps/rDock/src/rDock_2013.1_src/data/scripts/dock_solv.prm

>  <Rbt.Receptor>
prm/blind_docking_100.prm

>  <SCORE>
-15.5334

>  <SCORE.INTER>
-12.3391

>  <SCORE.INTER.CONST>
1

>  <SCORE.INTER.POLAR>
0

>  <SCORE.INTER.ROT>
4

>  <SCORE.INTER.SOLV>
18.2872

>  <SCORE.INTER.VDW>
-20.5884

>  <SCORE.INTER.norm>
-0.514128

>  <SCORE.INTRA>
-3.1962

>  <SCORE.INTRA.DIHEDRAL>
-6.42971

>  <SCORE.INTRA.DIHEDRAL.0>
13.2525

>  <SCORE.INTRA.POLAR>
0

>  <SCORE.INTRA.POLAR.0>
0

>  <SCORE.INTRA.REPUL>
0

>  <SCORE.INTRA.REPUL.0>
0

>  <SCORE.INTRA.SOLV>
0.261166

>  <SCORE.INTRA.SOLV.lig_0>
-70.7221

>  <SCORE.INTRA.VDW>
-0.111926

>  <SCORE.INTRA.VDW.0>
-1.46337

>  <SCORE.INTRA.norm>
-0.133175

>  <SCORE.RESTR>
0.00185623

>  <SCORE.RESTR.CAVITY>
0.00185623

>  <SCORE.RESTR.norm>
7.7343e-05

>  <SCORE.SYSTEM>
0

>  <SCORE.SYSTEM.CONST>
0

>  <SCORE.SYSTEM.DIHEDRAL>
0

>  <SCORE.SYSTEM.SOLV>
0

>  <SCORE.SYSTEM.norm>
0

>  <SCORE.heavy>
24

>  <SCORE.norm>
-0.647225

>  <RMSD>
19.500

$$$$
ligand
 OpenBabel11021811483D
libRbt.so/2013.1/901 2013/11/27
 24 26  0  0  0  0  0  0  0  0999 V2000
   -9.7384    2.7896   -3.8981 P   0  0  1  0  0  0  0  0  0  0  0  0
  -10.4066    2.5606   -5.2370 O   0  0  0  0  0  0  0  0  0  0  0  0
   -8.3295    3.3330   -3.9362 O   0  5  0  0  0  0  0  0  0  0  0  0
  -10.6169    3.5042   -2.8821 O   0  0  0  0  0  0  0  0  0  0  0  0
   -8.4738    0.3993   -3.8656 C   0  0  0  0  0  0  0  0  0  0  0  0
   -9.4721    1.2892   -3.3367 O   0  0  0  0  0  0  0  0  0  0  0  0
   -9.1084   -0.5441   -4.8919 C   0  0  1  0  0  0  0  0  0  0  0  0
   -9.5652    0.1597   -6.0538 O   0  0  0  0  0  0  0  0  0  0  0  0
   -8.1877   -1.6361   -5.4093 C   0  0  1  0  0  0  0  0  0  0  0  0
   -8.3255   -2.7911   -4.5764 O   0  0  0  0  0  0  0  0  0  0  0  0
   -8.7078   -1.8964   -6.8136 C   0  0  1  0  0  0  0  0  0  0  0  0
   -9.8351   -2.7829   -6.7757 O   0  0  0  0  0  0  0  0  0  0  0  0
   -9.2502   -0.5521   -7.2570 C   0  0  2  0  0  0  0  0  0  0  0  0
   -6.5194   -0.1948  -11.5548 N   0  0  0  0  0  0  0  0  0  0  0  0
   -7.4036   -1.1453  -11.1751 C   0  0  1  0  0  0  0  0  0  0  0  0
   -7.6573   -2.1805  -12.0073 N   0  0  0  0  0  0  0  0  0  0  0  0
   -8.0330   -1.0728   -9.9790 N   0  0  0  0  0  0  0  0  0  0  0  0
   -7.7741   -0.0337   -9.1495 C   0  0  1  0  0  0  0  0  0  0  0  0
   -6.8748    0.9501   -9.5109 C   0  0  2  0  0  0  0  0  0  0  0  0
   -6.2424    0.8529  -10.7448 C   0  0  0  0  0  0  0  0  0  0  0  0
   -5.4235    1.7192  -11.1101 O   0  0  0  0  0  0  0  0  0  0  0  0
   -6.8221    1.8358   -8.4952 N   0  0  0  0  0  0  0  0  0  0  0  0
   -7.6749    1.4118   -7.5335 C   0  0  0  0  0  0  0  0  0  0  0  0
   -8.2450    0.2763   -7.9487 N   0  0  1  0  0  0  0  0  0  0  0  0
  1  2  1  6  0  0  0
  1  3  1  0  0  0  0
  1  4  2  0  0  0  0
  1  6  1  0  0  0  0
  5  6  1  0  0  0  0
  7  5  1  1  0  0  0
  7  8  1  0  0  0  0
  7  9  1  0  0  0  0
  9 10  1  1  0  0  0
  9 11  1  0  0  0  0
 11 12  1  1  0  0  0
 11 13  1  0  0  0  0
 13  8  1  1  0  0  0
 13 24  1  0  0  0  0
 14 15  1  0  0  0  0
 14 20  1  0  0  0  0
 15 16  1  1  0  0  0
 15 17  1  0  0  0  0
 18 17  1  6  0  0  0
 18 19  1  0  0  0  0
 18 24  1  0  0  0  0
 19 20  1  1  0  0  0
 19 22  1  0  0  0  0
 20 21  2  0  0  0  0
 22 23  1  0  0  0  0
 24 23  1  6  0  0  0
M  CHG  1   3  -1
M  END
>  <CHROM.1>
72.24917034,66.08537367,-95.85676927,-175.87799527,-8.40515172,0.42052114
-6.96241646,-2.54085645,-1.14682203,-2.81282182

>  <Name>
ligand

>  <RI>
0

>  <Rbt.Current_Directory>
/home/itssahil/PROJECTS/Mol_Feturizer/New_Systems/rnas/3SLQ

>  <Rbt.Executable>
rbdock ($Id: //depot/dev/client3/rdock/2013.1/src/exe/rbdock.cxx#4 $)

>  <Rbt.Library>
libRbt.so (2013.1, Build901 2013/11/27)

>  <Rbt.Parameter_File>
/export/apps/rDock/src/rDock_2013.1_src/data/scripts/dock_solv.prm

>  <Rbt.Receptor>
prm/blind_docking_20.prm

>  <SCORE>
-17.819

>  <SCORE.INTER>
-14.0381

>  <SCORE.INTER.CONST>
1

>  <SCORE.INTER.POLAR>
0

>  <SCORE.INTER.ROT>
4

>  <SCORE.INTER.SOLV>
17.3202

>  <SCORE.INTER.VDW>
-21.3988

>  <SCORE.INTER.norm>
-0.584919

>  <SCORE.INTRA>
-3.78094

>  <SCORE.INTRA.DIHEDRAL>
-6.98745

>  <SCORE.INTRA.DIHEDRAL.0>
13.2525

>  <SCORE.INTRA.POLAR>
0

>  <SCORE.INTRA.POLAR.0>
0

>  <SCORE.INTRA.REPUL>
0

>  <SCORE.INTRA.REPUL.0>
0

>  <SCORE.INTRA.SOLV>
0.961247

>  <SCORE.INTRA.SOLV.lig_0>
-70.7221

>  <SCORE.INTRA.VDW>
-0.767845

>  <SCORE.INTRA.VDW.0>
-1.46337

>  <SCORE.INTRA.norm>
-0.157539

>  <SCORE.RESTR>
0

>  <SCORE.RESTR.CAVITY>
0

>  <SCORE.RESTR.norm>
0

>  <SCORE.SYSTEM>
0

>  <SCORE.SYSTEM.CONST>
0

>  <SCORE.SYSTEM.DIHEDRAL>
0

>  <SCORE.SYSTEM.SOLV>
0

>  <SCORE.SYSTEM.norm>
0

>  <SCORE.heavy>
24

>  <SCORE.norm>
-0.742458

>  <RMSD>
19.525

$$$$
ligand
 OpenBabel11021811483D
libRbt.so/2013.1/901 2013/11/27
 24 26  0  0  0  0  0  0  0  0999 V2000
   -7.3238    1.0724   -6.5788 P   0  0  1  0  0  0  0  0  0  0  0  0
   -8.7315    0.5928   -6.2964 O   0  0  0  0  0  0  0  0  0  0  0  0
   -6.8832    1.0448   -8.0234 O   0  5  0  0  0  0  0  0  0  0  0  0
   -6.9610    2.3734   -5.8783 O   0  0  0  0  0  0  0  0  0  0  0  0
   -6.5552   -1.4956   -6.2207 C   0  0  0  0  0  0  0  0  0  0  0  0
   -6.3841   -0.0935   -5.9503 O   0  0  0  0  0  0  0  0  0  0  0  0
   -6.2485   -1.7832   -7.6934 C   0  0  1  0  0  0  0  0  0  0  0  0
   -5.0560   -1.1191   -8.1305 O   0  0  0  0  0  0  0  0  0  0  0  0
   -6.0466   -3.2512   -8.0280 C   0  0  1  0  0  0  0  0  0  0  0  0
   -7.3064   -3.8193   -8.3983 O   0  0  0  0  0  0  0  0  0  0  0  0
   -5.0851   -3.2132   -9.2045 C   0  0  1  0  0  0  0  0  0  0  0  0
   -5.7960   -2.9715  -10.4270 O   0  0  0  0  0  0  0  0  0  0  0  0
   -4.2519   -1.9717   -8.9551 C   0  0  2  0  0  0  0  0  0  0  0  0
   -0.0934    0.2400   -6.9876 N   0  0  0  0  0  0  0  0  0  0  0  0
   -1.0847    0.7822   -7.7310 C   0  0  1  0  0  0  0  0  0  0  0  0
   -1.0384    2.0997   -8.0322 N   0  0  0  0  0  0  0  0  0  0  0  0
   -2.1158    0.0258   -8.1746 N   0  0  0  0  0  0  0  0  0  0  0  0
   -2.1562   -1.2935   -7.8701 C   0  0  1  0  0  0  0  0  0  0  0  0
   -1.1567   -1.8738   -7.1142 C   0  0  2  0  0  0  0  0  0  0  0  0
   -0.1093   -1.0750   -6.6702 C   0  0  0  0  0  0  0  0  0  0  0  0
    0.8135   -1.5587   -5.9853 O   0  0  0  0  0  0  0  0  0  0  0  0
   -1.4629   -3.1806   -6.9826 N   0  0  0  0  0  0  0  0  0  0  0  0
   -2.6280   -3.3991   -7.6359 C   0  0  0  0  0  0  0  0  0  0  0  0
   -3.0348   -2.2419   -8.1672 N   0  0  1  0  0  0  0  0  0  0  0  0
  1  2  1  1  0  0  0
  1  3  1  0  0  0  0
  1  4  2  0  0  0  0
  1  6  1  0  0  0  0
  5  6  1  0  0  0  0
  7  5  1  1  0  0  0
  7  8  1  0  0  0  0
  7  9  1  0  0  0  0
  9 10  1  6  0  0  0
  9 11  1  0  0  0  0
 11 12  1  6  0  0  0
 11 13  1  0  0  0  0
 13  8  1  1  0  0  0
 13 24  1  0  0  0  0
 14 15  1  0  0  0  0
 14 20  1  0  0  0  0
 15 16  1  6  0  0  0
 15 17  1  0  0  0  0
 18 17  1  1  0  0  0
 18 19  1  0  0  0  0
 18 24  1  0  0  0  0
 19 20  1  6  0  0  0
 19 22  1  0  0  0  0
 20 21  2  0  0  0  0
 22 23  1  0  0  0  0
 24 23  1  1  0  0  0
M  CHG  1   3  -1
M  END
>  <CHROM.1>
50.02223661,44.70319054,66.48651807,-66.54395182,-4.32327260,-0.94273524
-7.48749121,-3.01814301,0.03009418,-2.74670955

>  <Name>
ligand

>  <RI>
0

>  <Rbt.Current_Directory>
/home/itssahil/PROJECTS/Mol_Feturizer/New_Systems/rnas/3SLQ

>  <Rbt.Executable>
rbdock ($Id: //depot/dev/client3/rdock/2013.1/src/exe/rbdock.cxx#4 $)

>  <Rbt.Library>
libRbt.so (2013.1, Build901 2013/11/27)

>  <Rbt.Parameter_File>
/export/apps/rDock/src/rDock_2013.1_src/data/scripts/dock_solv.prm

>  <Rbt.Receptor>
prm/blind_docking_100.prm

>  <SCORE>
-16.0208

>  <SCORE.INTER>
-11.4709

>  <SCORE.INTER.CONST>
1

>  <SCORE.INTER.POLAR>
0

>  <SCORE.INTER.ROT>
4

>  <SCORE.INTER.SOLV>
9.91581

>  <SCORE.INTER.VDW>
-17.2192

>  <SCORE.INTER.norm>
-0.477954

>  <SCORE.INTRA>
-4.54989

>  <SCORE.INTRA.DIHEDRAL>
-10.8905

>  <SCORE.INTRA.DIHEDRAL.0>
13.2525

>  <SCORE.INTRA.POLAR>
0

>  <SCORE.INTRA.POLAR.0>
0

>  <SCORE.INTRA.REPUL>
0

>  <SCORE.INTRA.REPUL.0>
0

>  <SCORE.INTRA.SOLV>
2.49607

>  <SCORE.INTRA.SOLV.lig_0>
-70.7221

>  <SCORE.INTRA.VDW>
-0.352649

>  <SCORE.INTRA.VDW.0>
-1.46337

>  <SCORE.INTRA.norm>
-0.189579

>  <SCORE.RESTR>
0

>  <SCORE.RESTR.CAVITY>
0

>  <SCORE.RESTR.norm>
0

>  <SCORE.SYSTEM>
0

>  <SCORE.SYSTEM.CONST>
0

>  <SCORE.SYSTEM.DIHEDRAL>
0

>  <SCORE.SYSTEM.SOLV>
0

>  <SCORE.SYSTEM.norm>
0

>  <SCORE.heavy>
24

>  <SCORE.norm>
-0.667533

>  <RMSD>
19.537

$$$$
ligand
 OpenBabel11021811483D
libRbt.so/2013.1/901 2013/11/27
 24 26  0  0  0  0  0  0  0  0999 V2000
   -9.1597    0.5567   -5.1665 P   0  0  1  0  0  0  0  0  0  0  0  0
   -9.7600    0.8710   -6.5201 O   0  0  0  0  0  0  0  0  0  0  0  0
   -8.7691    1.7416   -4.3149 O   0  5  0  0  0  0  0  0  0  0  0  0
   -9.9185   -0.5049   -4.3843 O   0  0  0  0  0  0  0  0  0  0  0  0
   -7.4913   -1.1706   -6.4102 C   0  0  0  0  0  0  0  0  0  0  0  0
   -7.6994   -0.0573   -5.5238 O   0  0  0  0  0  0  0  0  0  0  0  0
   -7.7170   -0.7312   -7.8599 C   0  0  1  0  0  0  0  0  0  0  0  0
   -6.8322    0.3300   -8.2406 O   0  0  0  0  0  0  0  0  0  0  0  0
   -7.5169   -1.8239   -8.8961 C   0  0  1  0  0  0  0  0  0  0  0  0
   -8.7670   -2.4815   -9.1231 O   0  0  0  0  0  0  0  0  0  0  0  0
   -7.0578   -1.0595  -10.1270 C   0  0  1  0  0  0  0  0  0  0  0  0
   -8.1842   -0.5168  -10.8306 O   0  0  0  0  0  0  0  0  0  0  0  0
   -6.3090    0.1301   -9.5597 C   0  0  2  0  0  0  0  0  0  0  0  0
   -2.3761    1.0227   -6.4303 N   0  0  0  0  0  0  0  0  0  0  0  0
   -3.6595    1.4396   -6.3380 C   0  0  1  0  0  0  0  0  0  0  0  0
   -4.0309    2.2036   -5.2859 N   0  0  0  0  0  0  0  0  0  0  0  0
   -4.5704    1.1034   -7.2810 N   0  0  0  0  0  0  0  0  0  0  0  0
   -4.1922    0.3383   -8.3328 C   0  0  1  0  0  0  0  0  0  0  0  0
   -2.8881   -0.1000   -8.4533 C   0  0  2  0  0  0  0  0  0  0  0  0
   -1.9722    0.2584   -7.4710 C   0  0  0  0  0  0  0  0  0  0  0  0
   -0.7849   -0.1159   -7.5413 O   0  0  0  0  0  0  0  0  0  0  0  0
   -2.8136   -0.8251   -9.5880 N   0  0  0  0  0  0  0  0  0  0  0  0
   -4.0449   -0.8397  -10.1498 C   0  0  0  0  0  0  0  0  0  0  0  0
   -4.8692   -0.1295   -9.3733 N   0  0  1  0  0  0  0  0  0  0  0  0
  1  2  1  6  0  0  0
  1  3  1  0  0  0  0
  1  4  2  0  0  0  0
  1  6  1  0  0  0  0
  5  6  1  0  0  0  0
  7  5  1  1  0  0  0
  7  8  1  0  0  0  0
  7  9  1  0  0  0  0
  9 10  1  6  0  0  0
  9 11  1  0  0  0  0
 11 12  1  1  0  0  0
 11 13  1  0  0  0  0
 13  8  1  1  0  0  0
 13 24  1  0  0  0  0
 14 15  1  0  0  0  0
 14 20  1  0  0  0  0
 15 16  1  6  0  0  0
 15 17  1  0  0  0  0
 18 17  1  1  0  0  0
 18 19  1  0  0  0  0
 18 24  1  0  0  0  0
 19 20  1  6  0  0  0
 19 22  1  0  0  0  0
 20 21  2  0  0  0  0
 22 23  1  0  0  0  0
 24 23  1  1  0  0  0
M  CHG  1   3  -1
M  END
>  <CHROM.1>
-54.64762475,59.19301994,73.42089617,-26.89856919,-6.18083480,0.01171486
-7.45880293,-2.85190235,-0.15725850,-1.99670119

>  <Name>
ligand

>  <RI>
0

>  <Rbt.Current_Directory>
/home/itssahil/PROJECTS/Mol_Feturizer/New_Systems/rnas/3SLQ

>  <Rbt.Executable>
rbdock ($Id: //depot/dev/client3/rdock/2013.1/src/exe/rbdock.cxx#4 $)

>  <Rbt.Library>
libRbt.so (2013.1, Build901 2013/11/27)

>  <Rbt.Parameter_File>
/export/apps/rDock/src/rDock_2013.1_src/data/scripts/dock_solv.prm

>  <Rbt.Receptor>
prm/blind_docking_100.prm

>  <SCORE>
-12.7016

>  <SCORE.INTER>
-7.32968

>  <SCORE.INTER.CONST>
1

>  <SCORE.INTER.POLAR>
0

>  <SCORE.INTER.ROT>
4

>  <SCORE.INTER.SOLV>
9.11501

>  <SCORE.INTER.VDW>
-14.1915

>  <SCORE.INTER.norm>
-0.305403

>  <SCORE.INTRA>
-5.38223

>  <SCORE.INTRA.DIHEDRAL>
-11.1275

>  <SCORE.INTRA.DIHEDRAL.0>
13.2525

>  <SCORE.INTRA.POLAR>
0

>  <SCORE.INTRA.POLAR.0>
0

>  <SCORE.INTRA.REPUL>
0

>  <SCORE.INTRA.REPUL.0>
0

>  <SCORE.INTRA.SOLV>
0.74757

>  <SCORE.INTRA.SOLV.lig_0>
-70.7221

>  <SCORE.INTRA.VDW>
-0.192249

>  <SCORE.INTRA.VDW.0>
-1.46337

>  <SCORE.INTRA.norm>
-0.22426

>  <SCORE.RESTR>
0.0103404

>  <SCORE.RESTR.CAVITY>
0.0103404

>  <SCORE.RESTR.norm>
0.00043085

>  <SCORE.SYSTEM>
0

>  <SCORE.SYSTEM.CONST>
0

>  <SCORE.SYSTEM.DIHEDRAL>
0

>  <SCORE.SYSTEM.SOLV>
0

>  <SCORE.SYSTEM.norm>
0

>  <SCORE.heavy>
24

>  <SCORE.norm>
-0.529232

>  <RMSD>
19.554

$$$$
ligand
 OpenBabel11021811483D
libRbt.so/2013.1/901 2013/11/27
 24 26  0  0  0  0  0  0  0  0999 V2000
  -10.4981    1.3020   -3.6408 P   0  0  1  0  0  0  0  0  0  0  0  0
  -10.4372    2.3812   -2.5811 O   0  0  0  0  0  0  0  0  0  0  0  0
  -10.8966   -0.0772   -3.1709 O   0  5  0  0  0  0  0  0  0  0  0  0
  -11.2221    1.7221   -4.9113 O   0  0  0  0  0  0  0  0  0  0  0  0
   -8.1375    1.9946   -4.7639 C   0  0  0  0  0  0  0  0  0  0  0  0
   -8.9413    1.0540   -4.0308 O   0  0  0  0  0  0  0  0  0  0  0  0
   -6.7196    1.4426   -4.9390 C   0  0  1  0  0  0  0  0  0  0  0  0
   -6.7050    0.2488   -5.7319 O   0  0  0  0  0  0  0  0  0  0  0  0
   -5.7434    2.3932   -5.6108 C   0  0  1  0  0  0  0  0  0  0  0  0
   -5.0887    3.1719   -4.6049 O   0  0  0  0  0  0  0  0  0  0  0  0
   -4.7715    1.4588   -6.3126 C   0  0  1  0  0  0  0  0  0  0  0  0
   -3.7740    0.9893   -5.3946 O   0  0  0  0  0  0  0  0  0  0  0  0
   -5.6162    0.2500   -6.6635 C   0  0  2  0  0  0  0  0  0  0  0  0
   -6.3054   -2.2764  -11.0451 N   0  0  0  0  0  0  0  0  0  0  0  0
   -5.6206   -2.6459   -9.9387 C   0  0  1  0  0  0  0  0  0  0  0  0
   -5.0075   -3.8509   -9.9141 N   0  0  0  0  0  0  0  0  0  0  0  0
   -5.5423   -1.8282   -8.8629 N   0  0  0  0  0  0  0  0  0  0  0  0
   -6.1581   -0.6222   -8.8939 C   0  0  1  0  0  0  0  0  0  0  0  0
   -6.8627   -0.2185  -10.0110 C   0  0  2  0  0  0  0  0  0  0  0  0
   -6.9287   -1.0770  -11.1022 C   0  0  0  0  0  0  0  0  0  0  0  0
   -7.5542   -0.7518  -12.1306 O   0  0  0  0  0  0  0  0  0  0  0  0
   -7.3523    1.0111   -9.7518 N   0  0  0  0  0  0  0  0  0  0  0  0
   -6.9649    1.3542   -8.5011 C   0  0  0  0  0  0  0  0  0  0  0  0
   -6.2420    0.3499   -7.9952 N   0  0  1  0  0  0  0  0  0  0  0  0
  1  2  1  1  0  0  0
  1  3  1  0  0  0  0
  1  4  2  0  0  0  0
  1  6  1  0  0  0  0
  5  6  1  0  0  0  0
  7  5  1  6  0  0  0
  7  8  1  0  0  0  0
  7  9  1  0  0  0  0
  9 10  1  1  0  0  0
  9 11  1  0  0  0  0
 11 12  1  1  0  0  0
 11 13  1  0  0  0  0
 13  8  1  1  0  0  0
 13 24  1  0  0  0  0
 14 15  1  0  0  0  0
 14 20  1  0  0  0  0
 15 16  1  6  0  0  0
 15 17  1  0  0  0  0
 18 17  1  1  0  0  0
 18 19  1  0  0  0  0
 18 24  1  0  0  0  0
 19 20  1  6  0  0  0
 19 22  1  0  0  0  0
 20 21  2  0  0  0  0
 22 23  1  0  0  0  0
 24 23  1  1  0  0  0
M  CHG  1   3  -1
M  END
>  <CHROM.1>
-70.78809572,63.89753714,179.39108207,-115.15280143,-7.28669233,0.42061809
-6.79953284,2.02579747,0.15459740,1.05877284

>  <Name>
ligand

>  <RI>
0

>  <Rbt.Current_Directory>
/home/itssahil/PROJECTS/Mol_Feturizer/New_Systems/rnas/3SLQ

>  <Rbt.Executable>
rbdock ($Id: //depot/dev/client3/rdock/2013.1/src/exe/rbdock.cxx#4 $)

>  <Rbt.Library>
libRbt.so (2013.1, Build901 2013/11/27)

>  <Rbt.Parameter_File>
/export/apps/rDock/src/rDock_2013.1_src/data/scripts/dock_solv.prm

>  <Rbt.Receptor>
prm/blind_docking_20.prm

>  <SCORE>
-16.1894

>  <SCORE.INTER>
-9.84731

>  <SCORE.INTER.CONST>
1

>  <SCORE.INTER.POLAR>
0

>  <SCORE.INTER.ROT>
4

>  <SCORE.INTER.SOLV>
13.624

>  <SCORE.INTER.VDW>
-17.3729

>  <SCORE.INTER.norm>
-0.410304

>  <SCORE.INTRA>
-6.34755

>  <SCORE.INTRA.DIHEDRAL>
-11.8159

>  <SCORE.INTRA.DIHEDRAL.0>
13.2525

>  <SCORE.INTRA.POLAR>
0

>  <SCORE.INTRA.POLAR.0>
0

>  <SCORE.INTRA.REPUL>
0

>  <SCORE.INTRA.REPUL.0>
0

>  <SCORE.INTRA.SOLV>
-0.0828598

>  <SCORE.INTRA.SOLV.lig_0>
-70.7221

>  <SCORE.INTRA.VDW>
-0.398187

>  <SCORE.INTRA.VDW.0>
-1.46337

>  <SCORE.INTRA.norm>
-0.264481

>  <SCORE.RESTR>
0.00542899

>  <SCORE.RESTR.CAVITY>
0.00542899

>  <SCORE.RESTR.norm>
0.000226208

>  <SCORE.SYSTEM>
0

>  <SCORE.SYSTEM.CONST>
0

>  <SCORE.SYSTEM.DIHEDRAL>
0

>  <SCORE.SYSTEM.SOLV>
0

>  <SCORE.SYSTEM.norm>
0

>  <SCORE.heavy>
24

>  <SCORE.norm>
-0.67456

>  <RMSD>
19.588

$$$$
ligand
 OpenBabel11021811483D
libRbt.so/2013.1/901 2013/11/27
 24 26  0  0  0  0  0  0  0  0999 V2000
   -5.7592   -5.7107   -8.5479 P   0  0  1  0  0  0  0  0  0  0  0  0
   -6.9472   -5.3607   -9.4184 O   0  0  0  0  0  0  0  0  0  0  0  0
   -6.0696   -6.3576   -7.2186 O   0  5  0  0  0  0  0  0  0  0  0  0
   -4.6308   -6.4087   -9.2922 O   0  0  0  0  0  0  0  0  0  0  0  0
   -6.0381   -3.1716   -7.6595 C   0  0  0  0  0  0  0  0  0  0  0  0
   -5.1971   -4.2669   -8.0612 O   0  0  0  0  0  0  0  0  0  0  0  0
   -6.6795   -2.5281   -8.8925 C   0  0  1  0  0  0  0  0  0  0  0  0
   -7.7951   -1.6989   -8.5432 O   0  0  0  0  0  0  0  0  0  0  0  0
   -5.7504   -1.6441   -9.7067 C   0  0  1  0  0  0  0  0  0  0  0  0
   -5.1175   -2.4402  -10.7129 O   0  0  0  0  0  0  0  0  0  0  0  0
   -6.6900   -0.6174  -10.3178 C   0  0  1  0  0  0  0  0  0  0  0  0
   -7.3151   -1.1466  -11.4957 O   0  0  0  0  0  0  0  0  0  0  0  0
   -7.7941   -0.4753   -9.2889 C   0  0  2  0  0  0  0  0  0  0  0  0
   -8.3792    0.7493   -4.3681 N   0  0  0  0  0  0  0  0  0  0  0  0
   -8.7737   -0.3625   -5.0296 C   0  0  1  0  0  0  0  0  0  0  0  0
   -9.4182   -1.3394   -4.3523 N   0  0  0  0  0  0  0  0  0  0  0  0
   -8.5327   -0.5072   -6.3537 N   0  0  0  0  0  0  0  0  0  0  0  0
   -7.8872    0.4752   -7.0268 C   0  0  1  0  0  0  0  0  0  0  0  0
   -7.4746    1.6218   -6.3769 C   0  0  2  0  0  0  0  0  0  0  0  0
   -7.7335    1.7456   -5.0169 C   0  0  0  0  0  0  0  0  0  0  0  0
   -7.3784    2.7643   -4.3918 O   0  0  0  0  0  0  0  0  0  0  0  0
   -6.8753    2.4075   -7.2947 N   0  0  0  0  0  0  0  0  0  0  0  0
   -6.9109    1.7569   -8.4811 C   0  0  0  0  0  0  0  0  0  0  0  0
   -7.5276    0.5849   -8.2989 N   0  0  1  0  0  0  0  0  0  0  0  0
  1  2  1  6  0  0  0
  1  3  1  0  0  0  0
  1  4  2  0  0  0  0
  1  6  1  0  0  0  0
  5  6  1  0  0  0  0
  7  5  1  1  0  0  0
  7  8  1  0  0  0  0
  7  9  1  0  0  0  0
  9 10  1  6  0  0  0
  9 11  1  0  0  0  0
 11 12  1  6  0  0  0
 11 13  1  0  0  0  0
 13  8  1  1  0  0  0
 13 24  1  0  0  0  0
 14 15  1  0  0  0  0
 14 20  1  0  0  0  0
 15 16  1  6  0  0  0
 15 17  1  0  0  0  0
 18 17  1  1  0  0  0
 18 19  1  0  0  0  0
 18 24  1  0  0  0  0
 19 20  1  6  0  0  0
 19 22  1  0  0  0  0
 20 21  2  0  0  0  0
 22 23  1  0  0  0  0
 24 23  1  1  0  0  0
M  CHG  1   3  -1
M  END
>  <CHROM.1>
41.05923744,163.59680214,-74.95731833,-29.12931245,-6.91792695,-1.68685623
-7.85218579,0.48765711,-1.23816167,2.53336984

>  <Name>
ligand

>  <RI>
0

>  <Rbt.Current_Directory>
/home/itssahil/PROJECTS/Mol_Feturizer/New_Systems/rnas/3SLQ

>  <Rbt.Executable>
rbdock ($Id: //depot/dev/client3/rdock/2013.1/src/exe/rbdock.cxx#4 $)

>  <Rbt.Library>
libRbt.so (2013.1, Build901 2013/11/27)

>  <Rbt.Parameter_File>
/export/apps/rDock/src/rDock_2013.1_src/data/scripts/dock_solv.prm

>  <Rbt.Receptor>
prm/blind_docking_60.prm

>  <SCORE>
-12.0144

>  <SCORE.INTER>
-7.65506

>  <SCORE.INTER.CONST>
1

>  <SCORE.INTER.POLAR>
0

>  <SCORE.INTER.ROT>
4

>  <SCORE.INTER.SOLV>
14.1294

>  <SCORE.INTER.VDW>
-16.0798

>  <SCORE.INTER.norm>
-0.318961

>  <SCORE.INTRA>
-4.35933

>  <SCORE.INTRA.DIHEDRAL>
-9.52541

>  <SCORE.INTRA.DIHEDRAL.0>
13.2525

>  <SCORE.INTRA.POLAR>
0

>  <SCORE.INTRA.POLAR.0>
0

>  <SCORE.INTRA.REPUL>
0

>  <SCORE.INTRA.REPUL.0>
0

>  <SCORE.INTRA.SOLV>
1.05341

>  <SCORE.INTRA.SOLV.lig_0>
-70.7221

>  <SCORE.INTRA.VDW>
-0.123331

>  <SCORE.INTRA.VDW.0>
-1.46337

>  <SCORE.INTRA.norm>
-0.181639

>  <SCORE.RESTR>
0

>  <SCORE.RESTR.CAVITY>
0

>  <SCORE.RESTR.norm>
0

>  <SCORE.SYSTEM>
0

>  <SCORE.SYSTEM.CONST>
0

>  <SCORE.SYSTEM.DIHEDRAL>
0

>  <SCORE.SYSTEM.SOLV>
0

>  <SCORE.SYSTEM.norm>
0

>  <SCORE.heavy>
24

>  <SCORE.norm>
-0.5006

>  <RMSD>
19.605

$$$$
ligand
 OpenBabel11021811483D
libRbt.so/2013.1/901 2013/11/27
 24 26  0  0  0  0  0  0  0  0999 V2000
   -6.5540    3.3772   -4.1795 P   0  0  1  0  0  0  0  0  0  0  0  0
   -7.5285    4.3888   -3.6151 O   0  0  0  0  0  0  0  0  0  0  0  0
   -5.8271    3.7785   -5.4414 O   0  5  0  0  0  0  0  0  0  0  0  0
   -5.6302    2.7607   -3.1397 O   0  0  0  0  0  0  0  0  0  0  0  0
   -8.6367    1.6593   -4.0235 C   0  0  0  0  0  0  0  0  0  0  0  0
   -7.5097    2.1907   -4.7416 O   0  0  0  0  0  0  0  0  0  0  0  0
   -9.2471    0.4908   -4.8033 C   0  0  1  0  0  0  0  0  0  0  0  0
   -9.6964    0.8927   -6.1035 O   0  0  0  0  0  0  0  0  0  0  0  0
   -8.3075   -0.6797   -5.0376 C   0  0  1  0  0  0  0  0  0  0  0  0
   -8.4434   -1.6063   -3.9561 O   0  0  0  0  0  0  0  0  0  0  0  0
   -8.8061   -1.2726   -6.3453 C   0  0  1  0  0  0  0  0  0  0  0  0
   -9.9239   -2.1406   -6.1098 O   0  0  0  0  0  0  0  0  0  0  0  0
   -9.3576   -0.0794   -7.1003 C   0  0  2  0  0  0  0  0  0  0  0  0
   -6.5966   -0.7001  -11.3486 N   0  0  0  0  0  0  0  0  0  0  0  0
   -7.4773   -1.5448  -10.7651 C   0  0  1  0  0  0  0  0  0  0  0  0
   -7.7177   -2.7460  -11.3376 N   0  0  0  0  0  0  0  0  0  0  0  0
   -8.1163   -1.2036   -9.6217 N   0  0  0  0  0  0  0  0  0  0  0  0
   -7.8707    0.0008   -9.0527 C   0  0  1  0  0  0  0  0  0  0  0  0
   -6.9751    0.8822   -9.6258 C   0  0  2  0  0  0  0  0  0  0  0  0
   -6.3327    0.5083  -10.8004 C   0  0  0  0  0  0  0  0  0  0  0  0
   -5.5168    1.2738  -11.3507 O   0  0  0  0  0  0  0  0  0  0  0  0
   -6.9361    1.9786   -8.8415 N   0  0  0  0  0  0  0  0  0  0  0  0
   -7.7934    1.7808   -7.8129 C   0  0  0  0  0  0  0  0  0  0  0  0
   -8.3527    0.5754   -7.9585 N   0  0  1  0  0  0  0  0  0  0  0  0
  1  2  1  1  0  0  0
  1  3  1  0  0  0  0
  1  4  2  0  0  0  0
  1  6  1  0  0  0  0
  5  6  1  0  0  0  0
  7  5  1  6  0  0  0
  7  8  1  0  0  0  0
  7  9  1  0  0  0  0
  9 10  1  1  0  0  0
  9 11  1  0  0  0  0
 11 12  1  1  0  0  0
 11 13  1  0  0  0  0
 13  8  1  1  0  0  0
 13 24  1  0  0  0  0
 14 15  1  0  0  0  0
 14 20  1  0  0  0  0
 15 16  1  1  0  0  0
 15 17  1  0  0  0  0
 18 17  1  6  0  0  0
 18 19  1  0  0  0  0
 18 24  1  0  0  0  0
 19 20  1  1  0  0  0
 19 22  1  0  0  0  0
 20 21  2  0  0  0  0
 22 23  1  0  0  0  0
 24 23  1  6  0  0  0
M  CHG  1   3  -1
M  END
>  <CHROM.1>
-44.27073054,-59.89508435,-176.03252271,-175.31734282,-7.64855089,0.79574705
-6.94166634,-1.55961469,-0.93993683,-2.03934603

>  <Name>
ligand

>  <RI>
0

>  <Rbt.Current_Directory>
/home/itssahil/PROJECTS/Mol_Feturizer/New_Systems/rnas/3SLQ

>  <Rbt.Executable>
rbdock ($Id: //depot/dev/client3/rdock/2013.1/src/exe/rbdock.cxx#4 $)

>  <Rbt.Library>
libRbt.so (2013.1, Build901 2013/11/27)

>  <Rbt.Parameter_File>
/export/apps/rDock/src/rDock_2013.1_src/data/scripts/dock_solv.prm

>  <Rbt.Receptor>
prm/blind_docking_60.prm

>  <SCORE>
-18.6859

>  <SCORE.INTER>
-12.1964

>  <SCORE.INTER.CONST>
1

>  <SCORE.INTER.POLAR>
0

>  <SCORE.INTER.ROT>
4

>  <SCORE.INTER.SOLV>
15.3126

>  <SCORE.INTER.VDW>
-19.5018

>  <SCORE.INTER.norm>
-0.508181

>  <SCORE.INTRA>
-6.48956

>  <SCORE.INTRA.DIHEDRAL>
-11.5817

>  <SCORE.INTRA.DIHEDRAL.0>
13.2525

>  <SCORE.INTRA.POLAR>
0

>  <SCORE.INTRA.POLAR.0>
0

>  <SCORE.INTRA.REPUL>
0

>  <SCORE.INTRA.REPUL.0>
0

>  <SCORE.INTRA.SOLV>
0.0647676

>  <SCORE.INTRA.SOLV.lig_0>
-70.7221

>  <SCORE.INTRA.VDW>
-0.731093

>  <SCORE.INTRA.VDW.0>
-1.46337

>  <SCORE.INTRA.norm>
-0.270398

>  <SCORE.RESTR>
0

>  <SCORE.RESTR.CAVITY>
0

>  <SCORE.RESTR.norm>
0

>  <SCORE.SYSTEM>
0

>  <SCORE.SYSTEM.CONST>
0

>  <SCORE.SYSTEM.DIHEDRAL>
0

>  <SCORE.SYSTEM.SOLV>
0

>  <SCORE.SYSTEM.norm>
0

>  <SCORE.heavy>
24

>  <SCORE.norm>
-0.77858

>  <RMSD>
19.626

$$$$
ligand
 OpenBabel11021811483D
libRbt.so/2013.1/901 2013/11/27
 24 26  0  0  0  0  0  0  0  0999 V2000
   -9.9113    2.1052   -4.6846 P   0  0  1  0  0  0  0  0  0  0  0  0
  -10.8998    2.8365   -5.5675 O   0  0  0  0  0  0  0  0  0  0  0  0
   -9.1469    2.9492   -3.6921 O   0  5  0  0  0  0  0  0  0  0  0  0
  -10.4591    0.8260   -4.0697 O   0  0  0  0  0  0  0  0  0  0  0  0
   -8.8885    0.7542   -6.7922 C   0  0  0  0  0  0  0  0  0  0  0  0
   -8.7214    1.6804   -5.7048 O   0  0  0  0  0  0  0  0  0  0  0  0
   -7.5974    0.6754   -7.6123 C   0  0  1  0  0  0  0  0  0  0  0  0
   -6.5210    0.1008   -6.8603 O   0  0  0  0  0  0  0  0  0  0  0  0
   -7.6979   -0.1519   -8.8824 C   0  0  1  0  0  0  0  0  0  0  0  0
   -8.0823    0.7034   -9.9629 O   0  0  0  0  0  0  0  0  0  0  0  0
   -6.2857   -0.6828   -9.0672 C   0  0  1  0  0  0  0  0  0  0  0  0
   -5.4580    0.3013   -9.7033 O   0  0  0  0  0  0  0  0  0  0  0  0
   -5.7586   -0.8183   -7.6524 C   0  0  2  0  0  0  0  0  0  0  0  0
   -5.3713   -5.8255   -8.5661 N   0  0  0  0  0  0  0  0  0  0  0  0
   -5.0492   -4.7796   -9.3609 C   0  0  1  0  0  0  0  0  0  0  0  0
   -4.5383   -5.0178  -10.5900 N   0  0  0  0  0  0  0  0  0  0  0  0
   -5.2319   -3.5052   -8.9429 N   0  0  0  0  0  0  0  0  0  0  0  0
   -5.7447   -3.2731   -7.7108 C   0  0  1  0  0  0  0  0  0  0  0  0
   -6.0838   -4.3219   -6.8790 C   0  0  2  0  0  0  0  0  0  0  0  0
   -5.8857   -5.6211   -7.3316 C   0  0  0  0  0  0  0  0  0  0  0  0
   -6.1785   -6.5969   -6.6127 O   0  0  0  0  0  0  0  0  0  0  0  0
   -6.5669   -3.7875   -5.7388 N   0  0  0  0  0  0  0  0  0  0  0  0
   -6.5193   -2.4404   -5.8621 C   0  0  0  0  0  0  0  0  0  0  0  0
   -6.0161   -2.1465   -7.0652 N   0  0  1  0  0  0  0  0  0  0  0  0
  1  2  1  6  0  0  0
  1  3  1  0  0  0  0
  1  4  2  0  0  0  0
  1  6  1  0  0  0  0
  5  6  1  0  0  0  0
  7  5  1  1  0  0  0
  7  8  1  0  0  0  0
  7  9  1  0  0  0  0
  9 10  1  6  0  0  0
  9 11  1  0  0  0  0
 11 12  1  6  0  0  0
 11 13  1  0  0  0  0
 13  8  1  1  0  0  0
 13 24  1  0  0  0  0
 14 15  1  0  0  0  0
 14 20  1  0  0  0  0
 15 16  1  6  0  0  0
 15 17  1  0  0  0  0
 18 17  1  1  0  0  0
 18 19  1  0  0  0  0
 18 24  1  0  0  0  0
 19 20  1  6  0  0  0
 19 22  1  0  0  0  0
 20 21  2  0  0  0  0
 22 23  1  0  0  0  0
 24 23  1  1  0  0  0
M  CHG  1   3  -1
M  END
>  <CHROM.1>
-65.12723694,66.17025726,175.41856129,163.48594487,-7.25047678,-1.18728924
-7.11394189,2.71268538,1.00332460,-0.63832218

>  <Name>
ligand

>  <RI>
0

>  <Rbt.Current_Directory>
/home/itssahil/PROJECTS/Mol_Feturizer/New_Systems/rnas/3SLQ

>  <Rbt.Executable>
rbdock ($Id: //depot/dev/client3/rdock/2013.1/src/exe/rbdock.cxx#4 $)

>  <Rbt.Library>
libRbt.so (2013.1, Build901 2013/11/27)

>  <Rbt.Parameter_File>
/export/apps/rDock/src/rDock_2013.1_src/data/scripts/dock_solv.prm

>  <Rbt.Receptor>
prm/blind_docking_80.prm

>  <SCORE>
-16.3293

>  <SCORE.INTER>
-10.2823

>  <SCORE.INTER.CONST>
1

>  <SCORE.INTER.POLAR>
0

>  <SCORE.INTER.ROT>
4

>  <SCORE.INTER.SOLV>
13.2523

>  <SCORE.INTER.VDW>
-17.539

>  <SCORE.INTER.norm>
-0.428431

>  <SCORE.INTRA>
-6.04697

>  <SCORE.INTRA.DIHEDRAL>
-11.7863

>  <SCORE.INTRA.DIHEDRAL.0>
13.2525

>  <SCORE.INTRA.POLAR>
0

>  <SCORE.INTRA.POLAR.0>
0

>  <SCORE.INTRA.REPUL>
0

>  <SCORE.INTRA.REPUL.0>
0

>  <SCORE.INTRA.SOLV>
-0.142685

>  <SCORE.INTRA.SOLV.lig_0>
-70.7221

>  <SCORE.INTRA.VDW>
-0.0824788

>  <SCORE.INTRA.VDW.0>
-1.46337

>  <SCORE.INTRA.norm>
-0.251957

>  <SCORE.RESTR>
0

>  <SCORE.RESTR.CAVITY>
0

>  <SCORE.RESTR.norm>
0

>  <SCORE.SYSTEM>
0

>  <SCORE.SYSTEM.CONST>
0

>  <SCORE.SYSTEM.DIHEDRAL>
0

>  <SCORE.SYSTEM.SOLV>
0

>  <SCORE.SYSTEM.norm>
0

>  <SCORE.heavy>
24

>  <SCORE.norm>
-0.680388

>  <RMSD>
19.627

$$$$
ligand
 OpenBabel11021811483D
libRbt.so/2013.1/901 2013/11/27
 24 26  0  0  0  0  0  0  0  0999 V2000
   -8.2620   -2.3684  -10.0615 P   0  0  1  0  0  0  0  0  0  0  0  0
   -9.2553   -1.9123  -11.1088 O   0  0  0  0  0  0  0  0  0  0  0  0
   -8.8239   -3.1616   -8.9051 O   0  5  0  0  0  0  0  0  0  0  0  0
   -6.9953   -2.9844  -10.6365 O   0  0  0  0  0  0  0  0  0  0  0  0
   -7.1604    0.0992   -9.9577 C   0  0  0  0  0  0  0  0  0  0  0  0
   -7.8334   -0.9942   -9.3098 O   0  0  0  0  0  0  0  0  0  0  0  0
   -6.7526    1.1485   -8.9192 C   0  0  1  0  0  0  0  0  0  0  0  0
   -7.8917    1.7899   -8.3318 O   0  0  0  0  0  0  0  0  0  0  0  0
   -5.9387    0.6106   -7.7547 C   0  0  1  0  0  0  0  0  0  0  0  0
   -4.5486    0.7002   -8.0807 O   0  0  0  0  0  0  0  0  0  0  0  0
   -6.3042    1.5434   -6.6116 C   0  0  1  0  0  0  0  0  0  0  0  0
   -5.5258    2.7468   -6.6765 O   0  0  0  0  0  0  0  0  0  0  0  0
   -7.7311    1.9537   -6.9172 C   0  0  2  0  0  0  0  0  0  0  0  0
  -11.2040    1.6715   -3.1868 N   0  0  0  0  0  0  0  0  0  0  0  0
  -10.3683    2.6854   -3.5080 C   0  0  1  0  0  0  0  0  0  0  0  0
  -10.4058    3.8261   -2.7827 N   0  0  0  0  0  0  0  0  0  0  0  0
   -9.5003    2.5719   -4.5403 N   0  0  0  0  0  0  0  0  0  0  0  0
   -9.4671    1.4265   -5.2627 C   0  0  1  0  0  0  0  0  0  0  0  0
  -10.3078    0.3746   -4.9560 C   0  0  2  0  0  0  0  0  0  0  0  0
  -11.1905    0.5168   -3.8917 C   0  0  0  0  0  0  0  0  0  0  0  0
  -11.9666   -0.4083   -3.5809 O   0  0  0  0  0  0  0  0  0  0  0  0
  -10.0443   -0.6160   -5.8324 N   0  0  0  0  0  0  0  0  0  0  0  0
   -9.0693   -0.1819   -6.6648 C   0  0  0  0  0  0  0  0  0  0  0  0
   -8.7323    1.0606   -6.3047 N   0  0  1  0  0  0  0  0  0  0  0  0
  1  2  1  6  0  0  0
  1  3  1  0  0  0  0
  1  4  2  0  0  0  0
  1  6  1  0  0  0  0
  5  6  1  0  0  0  0
  7  5  1  6  0  0  0
  7  8  1  0  0  0  0
  7  9  1  0  0  0  0
  9 10  1  6  0  0  0
  9 11  1  0  0  0  0
 11 12  1  6  0  0  0
 11 13  1  0  0  0  0
 13  8  1  6  0  0  0
 13 24  1  0  0  0  0
 14 15  1  0  0  0  0
 14 20  1  0  0  0  0
 15 16  1  1  0  0  0
 15 17  1  0  0  0  0
 18 17  1  6  0  0  0
 18 19  1  0  0  0  0
 18 24  1  0  0  0  0
 19 20  1  1  0  0  0
 19 22  1  0  0  0  0
 20 21  2  0  0  0  0
 22 23  1  0  0  0  0
 24 23  1  6  0  0  0
M  CHG  1   3  -1
M  END
>  <CHROM.1>
-62.91289532,-66.84586101,-172.79465721,-137.77695256,-8.48587051,0.29857924
-7.09382144,1.09349190,-0.56450153,-2.34942813

>  <Name>
ligand

>  <RI>
0

>  <Rbt.Current_Directory>
/home/itssahil/PROJECTS/Mol_Feturizer/New_Systems/rnas/3SLQ

>  <Rbt.Executable>
rbdock ($Id: //depot/dev/client3/rdock/2013.1/src/exe/rbdock.cxx#4 $)

>  <Rbt.Library>
libRbt.so (2013.1, Build901 2013/11/27)

>  <Rbt.Parameter_File>
/export/apps/rDock/src/rDock_2013.1_src/data/scripts/dock_solv.prm

>  <Rbt.Receptor>
prm/blind_docking_20.prm

>  <SCORE>
-16.8229

>  <SCORE.INTER>
-10.093

>  <SCORE.INTER.CONST>
1

>  <SCORE.INTER.POLAR>
0

>  <SCORE.INTER.ROT>
4

>  <SCORE.INTER.SOLV>
12.8785

>  <SCORE.INTER.VDW>
-17.2882

>  <SCORE.INTER.norm>
-0.420544

>  <SCORE.INTRA>
-6.72984

>  <SCORE.INTRA.DIHEDRAL>
-11.5993

>  <SCORE.INTRA.DIHEDRAL.0>
13.2525

>  <SCORE.INTRA.POLAR>
0

>  <SCORE.INTRA.POLAR.0>
0

>  <SCORE.INTRA.REPUL>
0

>  <SCORE.INTRA.REPUL.0>
0

>  <SCORE.INTRA.SOLV>
0.161811

>  <SCORE.INTRA.SOLV.lig_0>
-70.7221

>  <SCORE.INTRA.VDW>
-1.0111

>  <SCORE.INTRA.VDW.0>
-1.46337

>  <SCORE.INTRA.norm>
-0.28041

>  <SCORE.RESTR>
0

>  <SCORE.RESTR.CAVITY>
0

>  <SCORE.RESTR.norm>
0

>  <SCORE.SYSTEM>
0

>  <SCORE.SYSTEM.CONST>
0

>  <SCORE.SYSTEM.DIHEDRAL>
0

>  <SCORE.SYSTEM.SOLV>
0

>  <SCORE.SYSTEM.norm>
0

>  <SCORE.heavy>
24

>  <SCORE.norm>
-0.700954

>  <RMSD>
19.637

$$$$
ligand
 OpenBabel11021811483D
libRbt.so/2013.1/901 2013/11/27
 24 26  0  0  0  0  0  0  0  0999 V2000
   -7.5014    2.6511   -4.1934 P   0  0  1  0  0  0  0  0  0  0  0  0
   -7.0564    1.2614   -3.7905 O   0  0  0  0  0  0  0  0  0  0  0  0
   -8.0726    3.5168   -3.0951 O   0  5  0  0  0  0  0  0  0  0  0  0
   -6.5000    3.3929   -5.0660 O   0  0  0  0  0  0  0  0  0  0  0  0
   -9.9704    1.6429   -4.6420 C   0  0  0  0  0  0  0  0  0  0  0  0
   -8.8262    2.3873   -5.0947 O   0  0  0  0  0  0  0  0  0  0  0  0
   -9.9485    0.2356   -5.2460 C   0  0  1  0  0  0  0  0  0  0  0  0
  -10.0780    0.2646   -6.6731 O   0  0  0  0  0  0  0  0  0  0  0  0
   -8.6851   -0.5596   -4.9648 C   0  0  1  0  0  0  0  0  0  0  0  0
   -8.8680   -1.3088   -3.7598 O   0  0  0  0  0  0  0  0  0  0  0  0
   -8.5684   -1.4713   -6.1754 C   0  0  1  0  0  0  0  0  0  0  0  0
   -9.4025   -2.6276   -6.0161 O   0  0  0  0  0  0  0  0  0  0  0  0
   -9.1857   -0.6647   -7.3006 C   0  0  2  0  0  0  0  0  0  0  0  0
   -6.5887   -0.3047  -11.6804 N   0  0  0  0  0  0  0  0  0  0  0  0
   -7.4599   -1.2561  -11.2737 C   0  0  1  0  0  0  0  0  0  0  0  0
   -7.7380   -2.2916  -12.0977 N   0  0  0  0  0  0  0  0  0  0  0  0
   -8.0523   -1.1842  -10.0588 N   0  0  0  0  0  0  0  0  0  0  0  0
   -7.7691   -0.1448   -9.2376 C   0  0  1  0  0  0  0  0  0  0  0  0
   -6.8823    0.8399   -9.6265 C   0  0  2  0  0  0  0  0  0  0  0  0
   -6.2880    0.7432  -10.8793 C   0  0  0  0  0  0  0  0  0  0  0  0
   -5.4815    1.6104  -11.2695 O   0  0  0  0  0  0  0  0  0  0  0  0
   -6.7993    1.7257   -8.6128 N   0  0  0  0  0  0  0  0  0  0  0  0
   -7.6217    1.3008   -7.6254 C   0  0  0  0  0  0  0  0  0  0  0  0
   -8.2031    0.1647   -8.0229 N   0  0  1  0  0  0  0  0  0  0  0  0
  1  2  1  1  0  0  0
  1  3  1  0  0  0  0
  1  4  2  0  0  0  0
  1  6  1  0  0  0  0
  5  6  1  0  0  0  0
  7  5  1  6  0  0  0
  7  8  1  0  0  0  0
  7  9  1  0  0  0  0
  9 10  1  1  0  0  0
  9 11  1  0  0  0  0
 11 12  1  1  0  0  0
 11 13  1  0  0  0  0
 13  8  1  1  0  0  0
 13 24  1  0  0  0  0
 14 15  1  0  0  0  0
 14 20  1  0  0  0  0
 15 16  1  1  0  0  0
 15 17  1  0  0  0  0
 18 17  1  6  0  0  0
 18 19  1  0  0  0  0
 18 24  1  0  0  0  0
 19 20  1  1  0  0  0
 19 22  1  0  0  0  0
 20 21  2  0  0  0  0
 22 23  1  0  0  0  0
 24 23  1  6  0  0  0
M  CHG  1   3  -1
M  END
>  <CHROM.1>
55.33910920,-64.27156538,-102.33397188,-138.95789695,-7.97018001,0.56431054
-7.06942549,-1.87723254,-0.97169188,-2.13323260

>  <Name>
ligand

>  <RI>
0

>  <Rbt.Current_Directory>
/home/itssahil/PROJECTS/Mol_Feturizer/New_Systems/rnas/3SLQ

>  <Rbt.Executable>
rbdock ($Id: //depot/dev/client3/rdock/2013.1/src/exe/rbdock.cxx#4 $)

>  <Rbt.Library>
libRbt.so (2013.1, Build901 2013/11/27)

>  <Rbt.Parameter_File>
/export/apps/rDock/src/rDock_2013.1_src/data/scripts/dock_solv.prm

>  <Rbt.Receptor>
prm/blind_docking_40.prm

>  <SCORE>
-15.3901

>  <SCORE.INTER>
-11.7782

>  <SCORE.INTER.CONST>
1

>  <SCORE.INTER.POLAR>
0

>  <SCORE.INTER.ROT>
4

>  <SCORE.INTER.SOLV>
16.5066

>  <SCORE.INTER.VDW>
-19.621

>  <SCORE.INTER.norm>
-0.490759

>  <SCORE.INTRA>
-3.61193

>  <SCORE.INTRA.DIHEDRAL>
-6.1663

>  <SCORE.INTRA.DIHEDRAL.0>
13.2525

>  <SCORE.INTRA.POLAR>
0

>  <SCORE.INTRA.POLAR.0>
0

>  <SCORE.INTRA.REPUL>
0

>  <SCORE.INTRA.REPUL.0>
0

>  <SCORE.INTRA.SOLV>
1.47378

>  <SCORE.INTRA.SOLV.lig_0>
-70.7221

>  <SCORE.INTRA.VDW>
-1.26567

>  <SCORE.INTRA.VDW.0>
-1.46337

>  <SCORE.INTRA.norm>
-0.150497

>  <SCORE.RESTR>
0

>  <SCORE.RESTR.CAVITY>
0

>  <SCORE.RESTR.norm>
0

>  <SCORE.SYSTEM>
0

>  <SCORE.SYSTEM.CONST>
0

>  <SCORE.SYSTEM.DIHEDRAL>
0

>  <SCORE.SYSTEM.SOLV>
0

>  <SCORE.SYSTEM.norm>
0

>  <SCORE.heavy>
24

>  <SCORE.norm>
-0.641256

>  <RMSD>
19.666

$$$$
ligand
 OpenBabel11021811483D
libRbt.so/2013.1/901 2013/11/27
 24 26  0  0  0  0  0  0  0  0999 V2000
   -7.5492   -1.8357  -11.3609 P   0  0  1  0  0  0  0  0  0  0  0  0
   -6.3685   -2.7610  -11.1580 O   0  0  0  0  0  0  0  0  0  0  0  0
   -7.6072   -1.1024  -12.6803 O   0  5  0  0  0  0  0  0  0  0  0  0
   -8.8870   -2.4438  -10.9670 O   0  0  0  0  0  0  0  0  0  0  0  0
   -6.7765   -0.7758   -8.9960 C   0  0  0  0  0  0  0  0  0  0  0  0
   -7.2576   -0.6064  -10.3406 O   0  0  0  0  0  0  0  0  0  0  0  0
   -6.6803    0.5861   -8.3018 C   0  0  1  0  0  0  0  0  0  0  0  0
   -7.9735    1.1515   -8.0529 O   0  0  0  0  0  0  0  0  0  0  0  0
   -5.9746    0.5680   -6.9567 C   0  0  1  0  0  0  0  0  0  0  0  0
   -4.5798    0.8110   -7.1622 O   0  0  0  0  0  0  0  0  0  0  0  0
   -6.6335    1.7098   -6.2002 C   0  0  1  0  0  0  0  0  0  0  0  0
   -6.0371    2.9633   -6.5627 O   0  0  0  0  0  0  0  0  0  0  0  0
   -8.0453    1.7459   -6.7510 C   0  0  2  0  0  0  0  0  0  0  0  0
  -11.2245    1.7676   -2.7574 N   0  0  0  0  0  0  0  0  0  0  0  0
  -10.4305    2.7558   -3.2290 C   0  0  1  0  0  0  0  0  0  0  0  0
  -10.4306    3.9561   -2.6061 N   0  0  0  0  0  0  0  0  0  0  0  0
   -9.6406    2.5582   -4.3102 N   0  0  0  0  0  0  0  0  0  0  0  0
   -9.6445    1.3535   -4.9294 C   0  0  1  0  0  0  0  0  0  0  0  0
  -10.4440    0.3261   -4.4685 C   0  0  2  0  0  0  0  0  0  0  0  0
  -11.2465    0.5550   -3.3569 C   0  0  0  0  0  0  0  0  0  0  0  0
  -11.9832   -0.3453   -2.9080 O   0  0  0  0  0  0  0  0  0  0  0  0
  -10.2321   -0.7363   -5.2719 N   0  0  0  0  0  0  0  0  0  0  0  0
   -9.3287   -0.3698   -6.2108 C   0  0  0  0  0  0  0  0  0  0  0  0
   -8.9843    0.9026   -5.9881 N   0  0  1  0  0  0  0  0  0  0  0  0
  1  2  1  1  0  0  0
  1  3  1  0  0  0  0
  1  4  2  0  0  0  0
  1  6  1  0  0  0  0
  5  6  1  0  0  0  0
  7  5  1  1  0  0  0
  7  8  1  0  0  0  0
  7  9  1  0  0  0  0
  9 10  1  6  0  0  0
  9 11  1  0  0  0  0
 11 12  1  6  0  0  0
 11 13  1  0  0  0  0
 13  8  1  6  0  0  0
 13 24  1  0  0  0  0
 14 15  1  0  0  0  0
 14 20  1  0  0  0  0
 15 16  1  1  0  0  0
 15 17  1  0  0  0  0
 18 17  1  6  0  0  0
 18 19  1  0  0  0  0
 18 24  1  0  0  0  0
 19 20  1  1  0  0  0
 19 22  1  0  0  0  0
 20 21  2  0  0  0  0
 22 23  1  0  0  0  0
 24 23  1  6  0  0  0
M  CHG  1   3  -1
M  END
>  <CHROM.1>
-42.77565099,69.00358018,-177.23023255,-156.90713523,-8.38214405,0.36258535
-7.10213855,1.11625060,-0.51052854,-2.20769252

>  <Name>
ligand

>  <RI>
0

>  <Rbt.Current_Directory>
/home/itssahil/PROJECTS/Mol_Feturizer/New_Systems/rnas/3SLQ

>  <Rbt.Executable>
rbdock ($Id: //depot/dev/client3/rdock/2013.1/src/exe/rbdock.cxx#4 $)

>  <Rbt.Library>
libRbt.so (2013.1, Build901 2013/11/27)

>  <Rbt.Parameter_File>
/export/apps/rDock/src/rDock_2013.1_src/data/scripts/dock_solv.prm

>  <Rbt.Receptor>
prm/blind_docking_100.prm

>  <SCORE>
-15.4951

>  <SCORE.INTER>
-9.49219

>  <SCORE.INTER.CONST>
1

>  <SCORE.INTER.POLAR>
0

>  <SCORE.INTER.ROT>
4

>  <SCORE.INTER.SOLV>
14.7774

>  <SCORE.INTER.VDW>
-17.5206

>  <SCORE.INTER.norm>
-0.395508

>  <SCORE.INTRA>
-6.00294

>  <SCORE.INTRA.DIHEDRAL>
-11.2488

>  <SCORE.INTRA.DIHEDRAL.0>
13.2525

>  <SCORE.INTRA.POLAR>
0

>  <SCORE.INTRA.POLAR.0>
0

>  <SCORE.INTRA.REPUL>
0

>  <SCORE.INTRA.REPUL.0>
0

>  <SCORE.INTRA.SOLV>
-0.263606

>  <SCORE.INTRA.SOLV.lig_0>
-70.7221

>  <SCORE.INTRA.VDW>
-0.246741

>  <SCORE.INTRA.VDW.0>
-1.46337

>  <SCORE.INTRA.norm>
-0.250122

>  <SCORE.RESTR>
0

>  <SCORE.RESTR.CAVITY>
0

>  <SCORE.RESTR.norm>
0

>  <SCORE.SYSTEM>
0

>  <SCORE.SYSTEM.CONST>
0

>  <SCORE.SYSTEM.DIHEDRAL>
0

>  <SCORE.SYSTEM.SOLV>
0

>  <SCORE.SYSTEM.norm>
0

>  <SCORE.heavy>
24

>  <SCORE.norm>
-0.64563

>  <RMSD>
19.682

$$$$
ligand
 OpenBabel11021811483D
libRbt.so/2013.1/901 2013/11/27
 24 26  0  0  0  0  0  0  0  0999 V2000
   -8.4421    0.7674   -6.3047 P   0  0  1  0  0  0  0  0  0  0  0  0
   -9.9281    0.6582   -6.5721 O   0  0  0  0  0  0  0  0  0  0  0  0
   -7.6264    1.5012   -7.3429 O   0  5  0  0  0  0  0  0  0  0  0  0
   -8.0983    1.1862   -4.8831 O   0  0  0  0  0  0  0  0  0  0  0  0
   -8.5813   -1.9180   -6.0171 C   0  0  0  0  0  0  0  0  0  0  0  0
   -7.8999   -0.7499   -6.5064 O   0  0  0  0  0  0  0  0  0  0  0  0
   -7.7870   -3.1756   -6.3821 C   0  0  1  0  0  0  0  0  0  0  0  0
   -7.4412   -3.2043   -7.7727 O   0  0  0  0  0  0  0  0  0  0  0  0
   -6.4778   -3.3437   -5.6302 C   0  0  1  0  0  0  0  0  0  0  0  0
   -6.7211   -4.0992   -4.4399 O   0  0  0  0  0  0  0  0  0  0  0  0
   -5.6073   -4.1131   -6.6103 C   0  0  1  0  0  0  0  0  0  0  0  0
   -5.8947   -5.5170   -6.5429 O   0  0  0  0  0  0  0  0  0  0  0  0
   -6.0948   -3.6534   -7.9701 C   0  0  2  0  0  0  0  0  0  0  0  0
   -6.0689   -0.1638  -11.6955 N   0  0  0  0  0  0  0  0  0  0  0  0
   -6.9153   -1.1994  -11.4941 C   0  0  1  0  0  0  0  0  0  0  0  0
   -7.9323   -1.3988  -12.3627 N   0  0  0  0  0  0  0  0  0  0  0  0
   -6.7566   -2.0334  -10.4398 N   0  0  0  0  0  0  0  0  0  0  0  0
   -5.7356   -1.8288   -9.5736 C   0  0  1  0  0  0  0  0  0  0  0  0
   -4.8554   -0.7803   -9.7558 C   0  0  2  0  0  0  0  0  0  0  0  0
   -5.0407    0.0622  -10.8457 C   0  0  0  0  0  0  0  0  0  0  0  0
   -4.2690    1.0206  -11.0474 O   0  0  0  0  0  0  0  0  0  0  0  0
   -3.9555   -0.8352   -8.7528 N   0  0  0  0  0  0  0  0  0  0  0  0
   -4.2782   -1.8884   -7.9663 C   0  0  0  0  0  0  0  0  0  0  0  0
   -5.3623   -2.4789   -8.4792 N   0  0  1  0  0  0  0  0  0  0  0  0
  1  2  1  6  0  0  0
  1  3  1  0  0  0  0
  1  4  2  0  0  0  0
  1  6  1  0  0  0  0
  5  6  1  0  0  0  0
  7  5  1  1  0  0  0
  7  8  1  0  0  0  0
  7  9  1  0  0  0  0
  9 10  1  1  0  0  0
  9 11  1  0  0  0  0
 11 12  1  6  0  0  0
 11 13  1  0  0  0  0
 13  8  1  1  0  0  0
 13 24  1  0  0  0  0
 14 15  1  0  0  0  0
 14 20  1  0  0  0  0
 15 16  1  6  0  0  0
 15 17  1  0  0  0  0
 18 17  1  1  0  0  0
 18 19  1  0  0  0  0
 18 24  1  0  0  0  0
 19 20  1  6  0  0  0
 19 22  1  0  0  0  0
 20 21  2  0  0  0  0
 22 23  1  0  0  0  0
 24 23  1  1  0  0  0
M  CHG  1   3  -1
M  END
>  <CHROM.1>
-42.20733524,-50.50281118,-179.84466461,-56.80014962,-6.72765627,-1.41020687
-7.96347348,2.19990413,-0.96338496,2.39624436

>  <Name>
ligand

>  <RI>
0

>  <Rbt.Current_Directory>
/home/itssahil/PROJECTS/Mol_Feturizer/New_Systems/rnas/3SLQ

>  <Rbt.Executable>
rbdock ($Id: //depot/dev/client3/rdock/2013.1/src/exe/rbdock.cxx#4 $)

>  <Rbt.Library>
libRbt.so (2013.1, Build901 2013/11/27)

>  <Rbt.Parameter_File>
/export/apps/rDock/src/rDock_2013.1_src/data/scripts/dock_solv.prm

>  <Rbt.Receptor>
prm/blind_docking_40.prm

>  <SCORE>
-13.3014

>  <SCORE.INTER>
-6.90584

>  <SCORE.INTER.CONST>
1

>  <SCORE.INTER.POLAR>
0

>  <SCORE.INTER.ROT>
4

>  <SCORE.INTER.SOLV>
14.3082

>  <SCORE.INTER.VDW>
-15.64

>  <SCORE.INTER.norm>
-0.287744

>  <SCORE.INTRA>
-6.39556

>  <SCORE.INTRA.DIHEDRAL>
-11.2423

>  <SCORE.INTRA.DIHEDRAL.0>
13.2525

>  <SCORE.INTRA.POLAR>
0

>  <SCORE.INTRA.POLAR.0>
0

>  <SCORE.INTRA.REPUL>
0

>  <SCORE.INTRA.REPUL.0>
0

>  <SCORE.INTRA.SOLV>
-0.122146

>  <SCORE.INTRA.SOLV.lig_0>
-70.7221

>  <SCORE.INTRA.VDW>
-0.713335

>  <SCORE.INTRA.VDW.0>
-1.46337

>  <SCORE.INTRA.norm>
-0.266482

>  <SCORE.RESTR>
0

>  <SCORE.RESTR.CAVITY>
0

>  <SCORE.RESTR.norm>
0

>  <SCORE.SYSTEM>
0

>  <SCORE.SYSTEM.CONST>
0

>  <SCORE.SYSTEM.DIHEDRAL>
0

>  <SCORE.SYSTEM.SOLV>
0

>  <SCORE.SYSTEM.norm>
0

>  <SCORE.heavy>
24

>  <SCORE.norm>
-0.554225

>  <RMSD>
19.863

$$$$
ligand
 OpenBabel11021811483D
libRbt.so/2013.1/901 2013/11/27
 24 26  0  0  0  0  0  0  0  0999 V2000
  -10.2848    2.9207   -3.7771 P   0  0  1  0  0  0  0  0  0  0  0  0
  -11.0292    3.0113   -5.0920 O   0  0  0  0  0  0  0  0  0  0  0  0
   -9.9677    4.2305   -3.0946 O   0  5  0  0  0  0  0  0  0  0  0  0
  -10.8444    1.8792   -2.8196 O   0  0  0  0  0  0  0  0  0  0  0  0
   -8.5344    1.2650   -5.0052 C   0  0  0  0  0  0  0  0  0  0  0  0
   -8.7970    2.4323   -4.2073 O   0  0  0  0  0  0  0  0  0  0  0  0
   -7.0253    1.1028   -5.2099 C   0  0  1  0  0  0  0  0  0  0  0  0
   -6.7162   -0.0303   -6.0313 O   0  0  0  0  0  0  0  0  0  0  0  0
   -6.3402    2.2871   -5.8701 C   0  0  1  0  0  0  0  0  0  0  0  0
   -5.8918    3.1884   -4.8535 O   0  0  0  0  0  0  0  0  0  0  0  0
   -5.1720    1.6507   -6.6053 C   0  0  1  0  0  0  0  0  0  0  0  0
   -4.0711    1.4373   -5.7104 O   0  0  0  0  0  0  0  0  0  0  0  0
   -5.6811    0.2717   -6.9752 C   0  0  2  0  0  0  0  0  0  0  0  0
   -6.3943   -2.6683  -11.0867 N   0  0  0  0  0  0  0  0  0  0  0  0
   -5.6800   -2.9176   -9.9656 C   0  0  1  0  0  0  0  0  0  0  0  0
   -5.0381   -4.1013   -9.8419 N   0  0  0  0  0  0  0  0  0  0  0  0
   -5.6003   -2.0013   -8.9725 N   0  0  0  0  0  0  0  0  0  0  0  0
   -6.2450   -0.8171   -9.1026 C   0  0  1  0  0  0  0  0  0  0  0  0
   -6.9802   -0.5352  -10.2372 C   0  0  2  0  0  0  0  0  0  0  0  0
   -7.0468   -1.4933  -11.2420 C   0  0  0  0  0  0  0  0  0  0  0  0
   -7.6994   -1.2795  -12.2827 O   0  0  0  0  0  0  0  0  0  0  0  0
   -7.4937    0.7024  -10.0833 N   0  0  0  0  0  0  0  0  0  0  0  0
   -7.0905    1.1694   -8.8786 C   0  0  0  0  0  0  0  0  0  0  0  0
   -6.3346    0.2328   -8.2968 N   0  0  1  0  0  0  0  0  0  0  0  0
  1  2  1  6  0  0  0
  1  3  1  0  0  0  0
  1  4  2  0  0  0  0
  1  6  1  0  0  0  0
  5  6  1  0  0  0  0
  7  5  1  6  0  0  0
  7  8  1  0  0  0  0
  7  9  1  0  0  0  0
  9 10  1  1  0  0  0
  9 11  1  0  0  0  0
 11 12  1  1  0  0  0
 11 13  1  0  0  0  0
 13  8  1  1  0  0  0
 13 24  1  0  0  0  0
 14 15  1  0  0  0  0
 14 20  1  0  0  0  0
 15 16  1  6  0  0  0
 15 17  1  0  0  0  0
 18 17  1  1  0  0  0
 18 19  1  0  0  0  0
 18 24  1  0  0  0  0
 19 20  1  6  0  0  0
 19 22  1  0  0  0  0
 20 21  2  0  0  0  0
 22 23  1  0  0  0  0
 24 23  1  1  0  0  0
M  CHG  1   3  -1
M  END
>  <CHROM.1>
-53.72286570,-178.44786635,-179.69827207,-99.92806200,-7.38523590,0.70486306
-6.99289740,1.96465919,-0.13966767,1.00172751

>  <Name>
ligand

>  <RI>
0

>  <Rbt.Current_Directory>
/home/itssahil/PROJECTS/Mol_Feturizer/New_Systems/rnas/3SLQ

>  <Rbt.Executable>
rbdock ($Id: //depot/dev/client3/rdock/2013.1/src/exe/rbdock.cxx#4 $)

>  <Rbt.Library>
libRbt.so (2013.1, Build901 2013/11/27)

>  <Rbt.Parameter_File>
/export/apps/rDock/src/rDock_2013.1_src/data/scripts/dock_solv.prm

>  <Rbt.Receptor>
prm/blind_docking_60.prm

>  <SCORE>
-17.862

>  <SCORE.INTER>
-11.5039

>  <SCORE.INTER.CONST>
1

>  <SCORE.INTER.POLAR>
0

>  <SCORE.INTER.ROT>
4

>  <SCORE.INTER.SOLV>
13.3641

>  <SCORE.INTER.VDW>
-18.3906

>  <SCORE.INTER.norm>
-0.479329

>  <SCORE.INTRA>
-6.35813

>  <SCORE.INTRA.DIHEDRAL>
-11.9941

>  <SCORE.INTRA.DIHEDRAL.0>
13.2525

>  <SCORE.INTRA.POLAR>
0

>  <SCORE.INTRA.POLAR.0>
0

>  <SCORE.INTRA.REPUL>
0

>  <SCORE.INTRA.REPUL.0>
0

>  <SCORE.INTRA.SOLV>
-0.0189669

>  <SCORE.INTRA.SOLV.lig_0>
-70.7221

>  <SCORE.INTRA.VDW>
-0.351583

>  <SCORE.INTRA.VDW.0>
-1.46337

>  <SCORE.INTRA.norm>
-0.264922

>  <SCORE.RESTR>
0

>  <SCORE.RESTR.CAVITY>
0

>  <SCORE.RESTR.norm>
0

>  <SCORE.SYSTEM>
0

>  <SCORE.SYSTEM.CONST>
0

>  <SCORE.SYSTEM.DIHEDRAL>
0

>  <SCORE.SYSTEM.SOLV>
0

>  <SCORE.SYSTEM.norm>
0

>  <SCORE.heavy>
24

>  <SCORE.norm>
-0.744251

>  <RMSD>
19.912

$$$$
ligand
 OpenBabel11021811483D
libRbt.so/2013.1/901 2013/11/27
 24 26  0  0  0  0  0  0  0  0999 V2000
   -2.4240    0.6188   -8.0693 P   0  0  1  0  0  0  0  0  0  0  0  0
   -1.8929   -0.7926   -7.9371 O   0  0  0  0  0  0  0  0  0  0  0  0
   -2.0004    1.5974   -6.9994 O   0  5  0  0  0  0  0  0  0  0  0  0
   -2.3074    1.1950   -9.4725 O   0  0  0  0  0  0  0  0  0  0  0  0
   -4.8851   -0.4485   -8.4113 C   0  0  0  0  0  0  0  0  0  0  0  0
   -4.0067    0.4696   -7.7378 O   0  0  0  0  0  0  0  0  0  0  0  0
   -6.2666   -0.4272   -7.7504 C   0  0  1  0  0  0  0  0  0  0  0  0
   -7.0557   -1.5636   -8.1247 O   0  0  0  0  0  0  0  0  0  0  0  0
   -6.2471   -0.4237   -6.2314 C   0  0  1  0  0  0  0  0  0  0  0  0
   -6.2395    0.9309   -5.7715 O   0  0  0  0  0  0  0  0  0  0  0  0
   -7.5415   -1.1301   -5.8629 C   0  0  1  0  0  0  0  0  0  0  0  0
   -8.6448   -0.2142   -5.9096 O   0  0  0  0  0  0  0  0  0  0  0  0
   -7.7620   -2.1057   -7.0019 C   0  0  2  0  0  0  0  0  0  0  0  0
   -6.1745   -6.3593   -9.3349 N   0  0  0  0  0  0  0  0  0  0  0  0
   -6.7495   -5.2540   -9.8614 C   0  0  1  0  0  0  0  0  0  0  0  0
   -6.9607   -5.1920  -11.1956 N   0  0  0  0  0  0  0  0  0  0  0  0
   -7.1138   -4.2159   -9.0728 N   0  0  0  0  0  0  0  0  0  0  0  0
   -6.9002   -4.2843   -7.7370 C   0  0  1  0  0  0  0  0  0  0  0  0
   -6.3165   -5.4013   -7.1723 C   0  0  2  0  0  0  0  0  0  0  0  0
   -5.9507   -6.4532   -8.0040 C   0  0  0  0  0  0  0  0  0  0  0  0
   -5.4212   -7.4802   -7.5354 O   0  0  0  0  0  0  0  0  0  0  0  0
   -6.2402   -5.1836   -5.8435 N   0  0  0  0  0  0  0  0  0  0  0  0
   -6.7577   -3.9577   -5.5959 C   0  0  0  0  0  0  0  0  0  0  0  0
   -7.1520   -3.4260   -6.7574 N   0  0  1  0  0  0  0  0  0  0  0  0
  1  2  1  1  0  0  0
  1  3  1  0  0  0  0
  1  4  2  0  0  0  0
  1  6  1  0  0  0  0
  5  6  1  0  0  0  0
  7  5  1  6  0  0  0
  7  8  1  0  0  0  0
  7  9  1  0  0  0  0
  9 10  1  1  0  0  0
  9 11  1  0  0  0  0
 11 12  1  6  0  0  0
 11 13  1  0  0  0  0
 13  8  1  6  0  0  0
 13 24  1  0  0  0  0
 14 15  1  0  0  0  0
 14 20  1  0  0  0  0
 15 16  1  1  0  0  0
 15 17  1  0  0  0  0
 18 17  1  6  0  0  0
 18 19  1  0  0  0  0
 18 24  1  0  0  0  0
 19 20  1  1  0  0  0
 19 22  1  0  0  0  0
 20 21  2  0  0  0  0
 22 23  1  0  0  0  0
 24 23  1  6  0  0  0
M  CHG  1   3  -1
M  END
>  <CHROM.1>
-54.03716771,-163.81402755,174.12940735,-45.67846698,-5.54815440,-2.19610499
-7.66194660,-1.02295491,-0.49313711,-2.78705103

>  <Name>
ligand

>  <RI>
0

>  <Rbt.Current_Directory>
/home/itssahil/PROJECTS/Mol_Feturizer/New_Systems/rnas/3SLQ

>  <Rbt.Executable>
rbdock ($Id: //depot/dev/client3/rdock/2013.1/src/exe/rbdock.cxx#4 $)

>  <Rbt.Library>
libRbt.so (2013.1, Build901 2013/11/27)

>  <Rbt.Parameter_File>
/export/apps/rDock/src/rDock_2013.1_src/data/scripts/dock_solv.prm

>  <Rbt.Receptor>
prm/blind_docking_40.prm

>  <SCORE>
-14.2105

>  <SCORE.INTER>
-8.77892

>  <SCORE.INTER.CONST>
1

>  <SCORE.INTER.POLAR>
0

>  <SCORE.INTER.ROT>
4

>  <SCORE.INTER.SOLV>
8.76041

>  <SCORE.INTER.VDW>
-15.0394

>  <SCORE.INTER.norm>
-0.365788

>  <SCORE.INTRA>
-5.43159

>  <SCORE.INTRA.DIHEDRAL>
-10.9189

>  <SCORE.INTRA.DIHEDRAL.0>
13.2525

>  <SCORE.INTRA.POLAR>
0

>  <SCORE.INTRA.POLAR.0>
0

>  <SCORE.INTRA.REPUL>
0

>  <SCORE.INTRA.REPUL.0>
0

>  <SCORE.INTRA.SOLV>
0.114237

>  <SCORE.INTRA.SOLV.lig_0>
-70.7221

>  <SCORE.INTRA.VDW>
-0.0292472

>  <SCORE.INTRA.VDW.0>
-1.46337

>  <SCORE.INTRA.norm>
-0.226316

>  <SCORE.RESTR>
0

>  <SCORE.RESTR.CAVITY>
0

>  <SCORE.RESTR.norm>
0

>  <SCORE.SYSTEM>
0

>  <SCORE.SYSTEM.CONST>
0

>  <SCORE.SYSTEM.DIHEDRAL>
0

>  <SCORE.SYSTEM.SOLV>
0

>  <SCORE.SYSTEM.norm>
0

>  <SCORE.heavy>
24

>  <SCORE.norm>
-0.592104

>  <RMSD>
19.950

$$$$
ligand
 OpenBabel11021811483D
libRbt.so/2013.1/901 2013/11/27
 24 26  0  0  0  0  0  0  0  0999 V2000
   -8.3625   -3.7450  -10.9092 P   0  0  1  0  0  0  0  0  0  0  0  0
   -8.3795   -4.0881   -9.4349 O   0  0  0  0  0  0  0  0  0  0  0  0
   -8.4687   -4.9066  -11.8691 O   0  5  0  0  0  0  0  0  0  0  0  0
   -9.2736   -2.5862  -11.2855 O   0  0  0  0  0  0  0  0  0  0  0  0
   -6.0260   -2.5786  -10.2066 C   0  0  0  0  0  0  0  0  0  0  0  0
   -6.8343   -3.2655  -11.1776 O   0  0  0  0  0  0  0  0  0  0  0  0
   -6.6132   -1.1919   -9.9274 C   0  0  1  0  0  0  0  0  0  0  0  0
   -7.9409   -1.2714   -9.3934 O   0  0  0  0  0  0  0  0  0  0  0  0
   -5.8230   -0.3517   -8.9387 C   0  0  1  0  0  0  0  0  0  0  0  0
   -4.8654    0.4310   -9.6577 O   0  0  0  0  0  0  0  0  0  0  0  0
   -6.8861    0.5226   -8.2940 C   0  0  1  0  0  0  0  0  0  0  0  0
   -7.1719    1.6591   -9.1217 O   0  0  0  0  0  0  0  0  0  0  0  0
   -8.1336   -0.3379   -8.3234 C   0  0  2  0  0  0  0  0  0  0  0  0
  -10.1095   -0.3236   -3.6168 N   0  0  0  0  0  0  0  0  0  0  0  0
  -10.1037    0.6562   -4.5492 C   0  0  1  0  0  0  0  0  0  0  0  0
  -10.6947    1.8392   -4.2668 N   0  0  0  0  0  0  0  0  0  0  0  0
   -9.5165    0.4673   -5.7540 N   0  0  0  0  0  0  0  0  0  0  0  0
   -8.9256   -0.7198   -6.0307 C   0  0  1  0  0  0  0  0  0  0  0  0
   -8.9151   -1.7371   -5.0968 C   0  0  2  0  0  0  0  0  0  0  0  0
   -9.5258   -1.5181   -3.8675 C   0  0  0  0  0  0  0  0  0  0  0  0
   -9.5390   -2.4096   -2.9959 O   0  0  0  0  0  0  0  0  0  0  0  0
   -8.2591   -2.7786   -5.6479 N   0  0  0  0  0  0  0  0  0  0  0  0
   -7.8808   -2.4144   -6.8953 C   0  0  0  0  0  0  0  0  0  0  0  0
   -8.2952   -1.1619   -7.1110 N   0  0  1  0  0  0  0  0  0  0  0  0
  1  2  1  1  0  0  0
  1  3  1  0  0  0  0
  1  4  2  0  0  0  0
  1  6  1  0  0  0  0
  5  6  1  0  0  0  0
  7  5  1  1  0  0  0
  7  8  1  0  0  0  0
  7  9  1  0  0  0  0
  9 10  1  6  0  0  0
  9 11  1  0  0  0  0
 11 12  1  6  0  0  0
 11 13  1  0  0  0  0
 13  8  1  6  0  0  0
 13 24  1  0  0  0  0
 14 15  1  0  0  0  0
 14 20  1  0  0  0  0
 15 16  1  1  0  0  0
 15 17  1  0  0  0  0
 18 17  1  6  0  0  0
 18 19  1  0  0  0  0
 18 24  1  0  0  0  0
 19 20  1  1  0  0  0
 19 22  1  0  0  0  0
 20 21  2  0  0  0  0
 22 23  1  0  0  0  0
 24 23  1  6  0  0  0
M  CHG  1   3  -1
M  END
>  <CHROM.1>
-32.93907221,61.04842349,-66.30891967,-156.57526112,-8.17040016,-1.48983216
-7.96611902,1.01778208,-0.98195433,-2.41872933

>  <Name>
ligand

>  <RI>
0

>  <Rbt.Current_Directory>
/home/itssahil/PROJECTS/Mol_Feturizer/New_Systems/rnas/3SLQ

>  <Rbt.Executable>
rbdock ($Id: //depot/dev/client3/rdock/2013.1/src/exe/rbdock.cxx#4 $)

>  <Rbt.Library>
libRbt.so (2013.1, Build901 2013/11/27)

>  <Rbt.Parameter_File>
/export/apps/rDock/src/rDock_2013.1_src/data/scripts/dock_solv.prm

>  <Rbt.Receptor>
prm/blind_docking_40.prm

>  <SCORE>
-10.6372

>  <SCORE.INTER>
-5.6042

>  <SCORE.INTER.CONST>
1

>  <SCORE.INTER.POLAR>
0

>  <SCORE.INTER.ROT>
4

>  <SCORE.INTER.SOLV>
9.59279

>  <SCORE.INTER.VDW>
-13.2004

>  <SCORE.INTER.norm>
-0.233508

>  <SCORE.INTRA>
-5.03305

>  <SCORE.INTRA.DIHEDRAL>
-10.814

>  <SCORE.INTRA.DIHEDRAL.0>
13.2525

>  <SCORE.INTRA.POLAR>
0

>  <SCORE.INTRA.POLAR.0>
0

>  <SCORE.INTRA.REPUL>
0

>  <SCORE.INTRA.REPUL.0>
0

>  <SCORE.INTRA.SOLV>
2.68142

>  <SCORE.INTRA.SOLV.lig_0>
-70.7221

>  <SCORE.INTRA.VDW>
-0.966778

>  <SCORE.INTRA.VDW.0>
-1.46337

>  <SCORE.INTRA.norm>
-0.209711

>  <SCORE.RESTR>
0

>  <SCORE.RESTR.CAVITY>
0

>  <SCORE.RESTR.norm>
0

>  <SCORE.SYSTEM>
0

>  <SCORE.SYSTEM.CONST>
0

>  <SCORE.SYSTEM.DIHEDRAL>
0

>  <SCORE.SYSTEM.SOLV>
0

>  <SCORE.SYSTEM.norm>
0

>  <SCORE.heavy>
24

>  <SCORE.norm>
-0.443219

>  <RMSD>
19.967

$$$$
ligand
 OpenBabel11021811483D
libRbt.so/2013.1/901 2013/11/27
 24 26  0  0  0  0  0  0  0  0999 V2000
   -7.0912   -7.1390  -11.0175 P   0  0  1  0  0  0  0  0  0  0  0  0
   -7.3949   -8.5209  -10.4794 O   0  0  0  0  0  0  0  0  0  0  0  0
   -5.9681   -7.0431  -12.0232 O   0  5  0  0  0  0  0  0  0  0  0  0
   -8.3246   -6.3532  -11.4369 O   0  0  0  0  0  0  0  0  0  0  0  0
   -5.8213   -5.0670   -9.8310 C   0  0  0  0  0  0  0  0  0  0  0  0
   -6.4332   -6.3659   -9.7500 O   0  0  0  0  0  0  0  0  0  0  0  0
   -5.4150   -4.5945   -8.4319 C   0  0  1  0  0  0  0  0  0  0  0  0
   -4.8835   -3.2637   -8.4507 O   0  0  0  0  0  0  0  0  0  0  0  0
   -6.5424   -4.5717   -7.4140 C   0  0  1  0  0  0  0  0  0  0  0  0
   -6.5870   -5.8350   -6.7440 O   0  0  0  0  0  0  0  0  0  0  0  0
   -6.1373   -3.4532   -6.4679 C   0  0  1  0  0  0  0  0  0  0  0  0
   -5.1932   -3.9315   -5.4993 O   0  0  0  0  0  0  0  0  0  0  0  0
   -5.3738   -2.4865   -7.3512 C   0  0  2  0  0  0  0  0  0  0  0  0
   -6.5147    2.4860   -7.1805 N   0  0  0  0  0  0  0  0  0  0  0  0
   -5.6344    1.7803   -6.4345 C   0  0  1  0  0  0  0  0  0  0  0  0
   -4.9096    2.4197   -5.4888 N   0  0  0  0  0  0  0  0  0  0  0  0
   -5.4722    0.4497   -6.6222 N   0  0  0  0  0  0  0  0  0  0  0  0
   -6.2017   -0.1852   -7.5707 C   0  0  1  0  0  0  0  0  0  0  0  0
   -7.1089    0.5101   -8.3457 C   0  0  2  0  0  0  0  0  0  0  0  0
   -7.2560    1.8760   -8.1337 C   0  0  0  0  0  0  0  0  0  0  0  0
   -8.0639    2.5415   -8.8112 O   0  0  0  0  0  0  0  0  0  0  0  0
   -7.6799   -0.3774   -9.1855 N   0  0  0  0  0  0  0  0  0  0  0  0
   -7.1318   -1.5901   -8.9390 C   0  0  0  0  0  0  0  0  0  0  0  0
   -6.2355   -1.4540   -7.9566 N   0  0  1  0  0  0  0  0  0  0  0  0
  1  2  1  1  0  0  0
  1  3  1  0  0  0  0
  1  4  2  0  0  0  0
  1  6  1  0  0  0  0
  5  6  1  0  0  0  0
  7  5  1  6  0  0  0
  7  8  1  0  0  0  0
  7  9  1  0  0  0  0
  9 10  1  1  0  0  0
  9 11  1  0  0  0  0
 11 12  1  1  0  0  0
 11 13  1  0  0  0  0
 13  8  1  6  0  0  0
 13 24  1  0  0  0  0
 14 15  1  0  0  0  0
 14 20  1  0  0  0  0
 15 16  1  1  0  0  0
 15 17  1  0  0  0  0
 18 17  1  6  0  0  0
 18 19  1  0  0  0  0
 18 24  1  0  0  0  0
 19 20  1  1  0  0  0
 19 22  1  0  0  0  0
 20 21  2  0  0  0  0
 22 23  1  0  0  0  0
 24 23  1  6  0  0  0
M  CHG  1   3  -1
M  END
>  <CHROM.1>
171.49986916,-175.99642787,175.24707138,-136.57186520,-6.43176922,-2.90322699
-8.50396576,1.68175778,1.07714169,-2.87546596

>  <Name>
ligand

>  <RI>
0

>  <Rbt.Current_Directory>
/home/itssahil/PROJECTS/Mol_Feturizer/New_Systems/rnas/3SLQ

>  <Rbt.Executable>
rbdock ($Id: //depot/dev/client3/rdock/2013.1/src/exe/rbdock.cxx#4 $)

>  <Rbt.Library>
libRbt.so (2013.1, Build901 2013/11/27)

>  <Rbt.Parameter_File>
/export/apps/rDock/src/rDock_2013.1_src/data/scripts/dock_solv.prm

>  <Rbt.Receptor>
prm/blind_docking_60.prm

>  <SCORE>
-14.9267

>  <SCORE.INTER>
-9.06268

>  <SCORE.INTER.CONST>
1

>  <SCORE.INTER.POLAR>
0

>  <SCORE.INTER.ROT>
4

>  <SCORE.INTER.SOLV>
8.78707

>  <SCORE.INTER.VDW>
-15.2375

>  <SCORE.INTER.norm>
-0.377612

>  <SCORE.INTRA>
-5.86397

>  <SCORE.INTRA.DIHEDRAL>
-11.7522

>  <SCORE.INTRA.DIHEDRAL.0>
13.2525

>  <SCORE.INTRA.POLAR>
0

>  <SCORE.INTRA.POLAR.0>
0

>  <SCORE.INTRA.REPUL>
0

>  <SCORE.INTRA.REPUL.0>
0

>  <SCORE.INTRA.SOLV>
0.665592

>  <SCORE.INTRA.SOLV.lig_0>
-70.7221

>  <SCORE.INTRA.VDW>
-0.32067

>  <SCORE.INTRA.VDW.0>
-1.46337

>  <SCORE.INTRA.norm>
-0.244332

>  <SCORE.RESTR>
0

>  <SCORE.RESTR.CAVITY>
0

>  <SCORE.RESTR.norm>
0

>  <SCORE.SYSTEM>
0

>  <SCORE.SYSTEM.CONST>
0

>  <SCORE.SYSTEM.DIHEDRAL>
0

>  <SCORE.SYSTEM.SOLV>
0

>  <SCORE.SYSTEM.norm>
0

>  <SCORE.heavy>
24

>  <SCORE.norm>
-0.621944

>  <RMSD>
19.969

$$$$
ligand
 OpenBabel11021811483D
libRbt.so/2013.1/901 2013/11/27
 24 26  0  0  0  0  0  0  0  0999 V2000
   -5.9227   -4.5927   -8.1877 P   0  0  1  0  0  0  0  0  0  0  0  0
   -4.6260   -5.1345   -8.7502 O   0  0  0  0  0  0  0  0  0  0  0  0
   -7.1909   -5.2623   -8.6623 O   0  5  0  0  0  0  0  0  0  0  0  0
   -5.9010   -4.3746   -6.6822 O   0  0  0  0  0  0  0  0  0  0  0  0
   -6.0123   -2.9137  -10.3058 C   0  0  0  0  0  0  0  0  0  0  0  0
   -6.0679   -3.1336   -8.8857 O   0  0  0  0  0  0  0  0  0  0  0  0
   -6.1159   -1.4152  -10.6052 C   0  0  1  0  0  0  0  0  0  0  0  0
   -7.4059   -0.8906  -10.2666 O   0  0  0  0  0  0  0  0  0  0  0  0
   -5.1127   -0.5462   -9.8661 C   0  0  1  0  0  0  0  0  0  0  0  0
   -3.9369   -0.4104  -10.6698 O   0  0  0  0  0  0  0  0  0  0  0  0
   -5.8412    0.7793   -9.7159 C   0  0  1  0  0  0  0  0  0  0  0  0
   -5.7209    1.5575  -10.9151 O   0  0  0  0  0  0  0  0  0  0  0  0
   -7.3016    0.3844   -9.6207 C   0  0  2  0  0  0  0  0  0  0  0  0
   -6.8589    2.1508   -4.8520 N   0  0  0  0  0  0  0  0  0  0  0  0
   -6.2686    2.5870   -5.9881 C   0  0  1  0  0  0  0  0  0  0  0  0
   -5.4299    3.6462   -5.9312 N   0  0  0  0  0  0  0  0  0  0  0  0
   -6.5059    1.9788   -7.1739 N   0  0  0  0  0  0  0  0  0  0  0  0
   -7.3465    0.9178   -7.2243 C   0  0  1  0  0  0  0  0  0  0  0  0
   -7.9616    0.4503   -6.0796 C   0  0  2  0  0  0  0  0  0  0  0  0
   -7.7019    1.0929   -4.8748 C   0  0  0  0  0  0  0  0  0  0  0  0
   -8.2361    0.7031   -3.8178 O   0  0  0  0  0  0  0  0  0  0  0  0
   -8.7239   -0.6032   -6.4375 N   0  0  0  0  0  0  0  0  0  0  0  0
   -8.5877   -0.7762   -7.7730 C   0  0  0  0  0  0  0  0  0  0  0  0
   -7.7489    0.1572   -8.2339 N   0  0  1  0  0  0  0  0  0  0  0  0
  1  2  1  6  0  0  0
  1  3  1  0  0  0  0
  1  4  2  0  0  0  0
  1  6  1  0  0  0  0
  5  6  1  0  0  0  0
  7  5  1  1  0  0  0
  7  8  1  0  0  0  0
  7  9  1  0  0  0  0
  9 10  1  6  0  0  0
  9 11  1  0  0  0  0
 11 12  1  6  0  0  0
 11 13  1  0  0  0  0
 13  8  1  6  0  0  0
 13 24  1  0  0  0  0
 14 15  1  0  0  0  0
 14 20  1  0  0  0  0
 15 16  1  1  0  0  0
 15 17  1  0  0  0  0
 18 17  1  6  0  0  0
 18 19  1  0  0  0  0
 18 24  1  0  0  0  0
 19 20  1  1  0  0  0
 19 22  1  0  0  0  0
 20 21  2  0  0  0  0
 22 23  1  0  0  0  0
 24 23  1  6  0  0  0
M  CHG  1   3  -1
M  END
>  <CHROM.1>
53.56480855,-67.14450268,-177.23611829,154.23447088,-6.53002617,-0.87468934
-8.03981113,1.05205397,-1.19797434,3.12433434

>  <Name>
ligand

>  <RI>
0

>  <Rbt.Current_Directory>
/home/itssahil/PROJECTS/Mol_Feturizer/New_Systems/rnas/3SLQ

>  <Rbt.Executable>
rbdock ($Id: //depot/dev/client3/rdock/2013.1/src/exe/rbdock.cxx#4 $)

>  <Rbt.Library>
libRbt.so (2013.1, Build901 2013/11/27)

>  <Rbt.Parameter_File>
/export/apps/rDock/src/rDock_2013.1_src/data/scripts/dock_solv.prm

>  <Rbt.Receptor>
prm/blind_docking_80.prm

>  <SCORE>
-12.4177

>  <SCORE.INTER>
-6.31026

>  <SCORE.INTER.CONST>
1

>  <SCORE.INTER.POLAR>
0

>  <SCORE.INTER.ROT>
4

>  <SCORE.INTER.SOLV>
14.8194

>  <SCORE.INTER.VDW>
-15.4133

>  <SCORE.INTER.norm>
-0.262927

>  <SCORE.INTRA>
-6.1074

>  <SCORE.INTRA.DIHEDRAL>
-11.7839

>  <SCORE.INTRA.DIHEDRAL.0>
13.2525

>  <SCORE.INTRA.POLAR>
0

>  <SCORE.INTRA.POLAR.0>
0

>  <SCORE.INTRA.REPUL>
0

>  <SCORE.INTRA.REPUL.0>
0

>  <SCORE.INTRA.SOLV>
0.0130009

>  <SCORE.INTRA.SOLV.lig_0>
-70.7221

>  <SCORE.INTRA.VDW>
-0.22194

>  <SCORE.INTRA.VDW.0>
-1.46337

>  <SCORE.INTRA.norm>
-0.254475

>  <SCORE.RESTR>
0

>  <SCORE.RESTR.CAVITY>
0

>  <SCORE.RESTR.norm>
0

>  <SCORE.SYSTEM>
0

>  <SCORE.SYSTEM.CONST>
0

>  <SCORE.SYSTEM.DIHEDRAL>
0

>  <SCORE.SYSTEM.SOLV>
0

>  <SCORE.SYSTEM.norm>
0

>  <SCORE.heavy>
24

>  <SCORE.norm>
-0.517402

>  <RMSD>
19.971

$$$$
ligand
 OpenBabel11021811483D
libRbt.so/2013.1/901 2013/11/27
 24 26  0  0  0  0  0  0  0  0999 V2000
   -5.1786    1.9119   -5.3982 P   0  0  1  0  0  0  0  0  0  0  0  0
   -3.9202    1.2413   -4.8902 O   0  0  0  0  0  0  0  0  0  0  0  0
   -6.4386    1.6633   -4.6029 O   0  5  0  0  0  0  0  0  0  0  0  0
   -4.9944    3.3769   -5.7651 O   0  0  0  0  0  0  0  0  0  0  0  0
   -6.6181    1.4336   -7.6372 C   0  0  0  0  0  0  0  0  0  0  0  0
   -5.5189    1.1094   -6.7684 O   0  0  0  0  0  0  0  0  0  0  0  0
   -6.6516    0.4610   -8.8198 C   0  0  1  0  0  0  0  0  0  0  0  0
   -5.3725    0.3496   -9.4565 O   0  0  0  0  0  0  0  0  0  0  0  0
   -7.0591   -0.9591   -8.4664 C   0  0  1  0  0  0  0  0  0  0  0  0
   -8.4785   -1.0802   -8.5991 O   0  0  0  0  0  0  0  0  0  0  0  0
   -6.3290   -1.8005   -9.5004 C   0  0  1  0  0  0  0  0  0  0  0  0
   -7.0643   -1.8331  -10.7319 O   0  0  0  0  0  0  0  0  0  0  0  0
   -5.0680   -1.0105   -9.7894 C   0  0  2  0  0  0  0  0  0  0  0  0
   -0.8550    0.8212   -7.5641 N   0  0  0  0  0  0  0  0  0  0  0  0
   -1.7347    1.4434   -8.3817 C   0  0  1  0  0  0  0  0  0  0  0  0
   -1.5379    2.7439   -8.6953 N   0  0  0  0  0  0  0  0  0  0  0  0
   -2.8029    0.7830   -8.8867 N   0  0  0  0  0  0  0  0  0  0  0  0
   -2.9944   -0.5199   -8.5693 C   0  0  1  0  0  0  0  0  0  0  0  0
   -2.1111   -1.1804   -7.7382 C   0  0  2  0  0  0  0  0  0  0  0  0
   -1.0227   -0.4796   -7.2322 C   0  0  0  0  0  0  0  0  0  0  0  0
   -0.2011   -1.0379   -6.4785 O   0  0  0  0  0  0  0  0  0  0  0  0
   -2.5534   -2.4483   -7.6120 N   0  0  0  0  0  0  0  0  0  0  0  0
   -3.6871   -2.5643   -8.3422 C   0  0  0  0  0  0  0  0  0  0  0  0
   -3.9402   -1.3833   -8.9151 N   0  0  1  0  0  0  0  0  0  0  0  0
  1  2  1  1  0  0  0
  1  3  1  0  0  0  0
  1  4  2  0  0  0  0
  1  6  1  0  0  0  0
  5  6  1  0  0  0  0
  7  5  1  1  0  0  0
  7  8  1  0  0  0  0
  7  9  1  0  0  0  0
  9 10  1  6  0  0  0
  9 11  1  0  0  0  0
 11 12  1  6  0  0  0
 11 13  1  0  0  0  0
 13  8  1  1  0  0  0
 13 24  1  0  0  0  0
 14 15  1  0  0  0  0
 14 20  1  0  0  0  0
 15 16  1  6  0  0  0
 15 17  1  0  0  0  0
 18 17  1  1  0  0  0
 18 19  1  0  0  0  0
 18 24  1  0  0  0  0
 19 20  1  6  0  0  0
 19 22  1  0  0  0  0
 20 21  2  0  0  0  0
 22 23  1  0  0  0  0
 24 23  1  1  0  0  0
M  CHG  1   3  -1
M  END
>  <CHROM.1>
-177.57576853,-50.23369613,-179.13936111,-34.84780426,-4.37649115,0.18151532
-7.69925561,0.34147984,-0.07272421,0.78938042

>  <Name>
ligand

>  <RI>
0

>  <Rbt.Current_Directory>
/home/itssahil/PROJECTS/Mol_Feturizer/New_Systems/rnas/3SLQ

>  <Rbt.Executable>
rbdock ($Id: //depot/dev/client3/rdock/2013.1/src/exe/rbdock.cxx#4 $)

>  <Rbt.Library>
libRbt.so (2013.1, Build901 2013/11/27)

>  <Rbt.Parameter_File>
/export/apps/rDock/src/rDock_2013.1_src/data/scripts/dock_solv.prm

>  <Rbt.Receptor>
prm/blind_docking_100.prm

>  <SCORE>
-15.1238

>  <SCORE.INTER>
-8.47353

>  <SCORE.INTER.CONST>
1

>  <SCORE.INTER.POLAR>
0

>  <SCORE.INTER.ROT>
4

>  <SCORE.INTER.SOLV>
14.1402

>  <SCORE.INTER.VDW>
-16.6291

>  <SCORE.INTER.norm>
-0.353064

>  <SCORE.INTRA>
-6.65024

>  <SCORE.INTRA.DIHEDRAL>
-11.6812

>  <SCORE.INTRA.DIHEDRAL.0>
13.2525

>  <SCORE.INTRA.POLAR>
0

>  <SCORE.INTRA.POLAR.0>
0

>  <SCORE.INTRA.REPUL>
0

>  <SCORE.INTRA.REPUL.0>
0

>  <SCORE.INTRA.SOLV>
0.58668

>  <SCORE.INTRA.SOLV.lig_0>
-70.7221

>  <SCORE.INTRA.VDW>
-1.10296

>  <SCORE.INTRA.VDW.0>
-1.46337

>  <SCORE.INTRA.norm>
-0.277093

>  <SCORE.RESTR>
0

>  <SCORE.RESTR.CAVITY>
0

>  <SCORE.RESTR.norm>
0

>  <SCORE.SYSTEM>
0

>  <SCORE.SYSTEM.CONST>
0

>  <SCORE.SYSTEM.DIHEDRAL>
0

>  <SCORE.SYSTEM.SOLV>
0

>  <SCORE.SYSTEM.norm>
0

>  <SCORE.heavy>
24

>  <SCORE.norm>
-0.630157

>  <RMSD>
20.002

$$$$
ligand
 OpenBabel11021811483D
libRbt.so/2013.1/901 2013/11/27
 24 26  0  0  0  0  0  0  0  0999 V2000
   -5.6250   -6.2216   -9.4603 P   0  0  1  0  0  0  0  0  0  0  0  0
   -5.2984   -6.9146   -8.1547 O   0  0  0  0  0  0  0  0  0  0  0  0
   -4.8879   -6.7141  -10.6833 O   0  5  0  0  0  0  0  0  0  0  0  0
   -7.1148   -6.0361   -9.7067 O   0  0  0  0  0  0  0  0  0  0  0  0
   -5.4983   -3.5583   -9.9124 C   0  0  0  0  0  0  0  0  0  0  0  0
   -4.9758   -4.7432   -9.2869 O   0  0  0  0  0  0  0  0  0  0  0  0
   -4.5600   -2.3758   -9.6533 C   0  0  1  0  0  0  0  0  0  0  0  0
   -5.1165   -1.1401  -10.1197 O   0  0  0  0  0  0  0  0  0  0  0  0
   -4.2138   -2.1444   -8.1924 C   0  0  1  0  0  0  0  0  0  0  0  0
   -3.0293   -2.8811   -7.8749 O   0  0  0  0  0  0  0  0  0  0  0  0
   -3.9731   -0.6452   -8.1228 C   0  0  1  0  0  0  0  0  0  0  0  0
   -2.6402   -0.3299   -8.5498 O   0  0  0  0  0  0  0  0  0  0  0  0
   -4.8951   -0.0778   -9.1837 C   0  0  2  0  0  0  0  0  0  0  0  0
   -7.2878    2.2943   -5.3489 N   0  0  0  0  0  0  0  0  0  0  0  0
   -5.9632    2.1128   -5.5540 C   0  0  1  0  0  0  0  0  0  0  0  0
   -5.0824    2.6105   -4.6568 N   0  0  0  0  0  0  0  0  0  0  0  0
   -5.5122    1.4425   -6.6400 N   0  0  0  0  0  0  0  0  0  0  0  0
   -6.3995    0.9458   -7.5349 C   0  0  1  0  0  0  0  0  0  0  0  0
   -7.7576    1.1149   -7.3498 C   0  0  2  0  0  0  0  0  0  0  0  0
   -8.1949    1.8077   -6.2269 C   0  0  0  0  0  0  0  0  0  0  0  0
   -9.4122    1.9828   -6.0214 O   0  0  0  0  0  0  0  0  0  0  0  0
   -8.3796    0.5156   -8.3855 N   0  0  0  0  0  0  0  0  0  0  0  0
   -7.4268   -0.0042   -9.1941 C   0  0  0  0  0  0  0  0  0  0  0  0
   -6.2308    0.2680   -8.6627 N   0  0  1  0  0  0  0  0  0  0  0  0
  1  2  1  1  0  0  0
  1  3  1  0  0  0  0
  1  4  2  0  0  0  0
  1  6  1  0  0  0  0
  5  6  1  0  0  0  0
  7  5  1  1  0  0  0
  7  8  1  0  0  0  0
  7  9  1  0  0  0  0
  9 10  1  6  0  0  0
  9 11  1  0  0  0  0
 11 12  1  6  0  0  0
 11 13  1  0  0  0  0
 13  8  1  6  0  0  0
 13 24  1  0  0  0  0
 14 15  1  0  0  0  0
 14 20  1  0  0  0  0
 15 16  1  1  0  0  0
 15 17  1  0  0  0  0
 18 17  1  6  0  0  0
 18 19  1  0  0  0  0
 18 24  1  0  0  0  0
 19 20  1  1  0  0  0
 19 22  1  0  0  0  0
 20 21  2  0  0  0  0
 22 23  1  0  0  0  0
 24 23  1  6  0  0  0
M  CHG  1   3  -1
M  END
>  <CHROM.1>
-149.97802011,-173.04135506,-174.08109787,161.56711462,-5.75802166,-1.59820621
-8.21790109,1.36912695,-0.07891712,-2.76543803

>  <Name>
ligand

>  <RI>
0

>  <Rbt.Current_Directory>
/home/itssahil/PROJECTS/Mol_Feturizer/New_Systems/rnas/3SLQ

>  <Rbt.Executable>
rbdock ($Id: //depot/dev/client3/rdock/2013.1/src/exe/rbdock.cxx#4 $)

>  <Rbt.Library>
libRbt.so (2013.1, Build901 2013/11/27)

>  <Rbt.Parameter_File>
/export/apps/rDock/src/rDock_2013.1_src/data/scripts/dock_solv.prm

>  <Rbt.Receptor>
prm/blind_docking_60.prm

>  <SCORE>
-13.511

>  <SCORE.INTER>
-8.63358

>  <SCORE.INTER.CONST>
1

>  <SCORE.INTER.POLAR>
0

>  <SCORE.INTER.ROT>
4

>  <SCORE.INTER.SOLV>
8.0572

>  <SCORE.INTER.VDW>
-14.7081

>  <SCORE.INTER.norm>
-0.359733

>  <SCORE.INTRA>
-4.87937

>  <SCORE.INTRA.DIHEDRAL>
-10.5195

>  <SCORE.INTRA.DIHEDRAL.0>
13.2525

>  <SCORE.INTRA.POLAR>
0

>  <SCORE.INTRA.POLAR.0>
0

>  <SCORE.INTRA.REPUL>
0

>  <SCORE.INTRA.REPUL.0>
0

>  <SCORE.INTRA.SOLV>
0.598083

>  <SCORE.INTRA.SOLV.lig_0>
-70.7221

>  <SCORE.INTRA.VDW>
0.0813601

>  <SCORE.INTRA.VDW.0>
-1.46337

>  <SCORE.INTRA.norm>
-0.203307

>  <SCORE.RESTR>
0.00199833

>  <SCORE.RESTR.CAVITY>
0.00199833

>  <SCORE.RESTR.norm>
8.32638e-05

>  <SCORE.SYSTEM>
0

>  <SCORE.SYSTEM.CONST>
0

>  <SCORE.SYSTEM.DIHEDRAL>
0

>  <SCORE.SYSTEM.SOLV>
0

>  <SCORE.SYSTEM.norm>
0

>  <SCORE.heavy>
24

>  <SCORE.norm>
-0.562956

>  <RMSD>
20.017

$$$$
ligand
 OpenBabel11021811483D
libRbt.so/2013.1/901 2013/11/27
 24 26  0  0  0  0  0  0  0  0999 V2000
   -9.0495    0.8437   -5.5645 P   0  0  1  0  0  0  0  0  0  0  0  0
   -7.7493    0.7162   -4.7999 O   0  0  0  0  0  0  0  0  0  0  0  0
  -10.0513   -0.2708   -5.3740 O   0  5  0  0  0  0  0  0  0  0  0  0
   -9.6833    2.2243   -5.4820 O   0  0  0  0  0  0  0  0  0  0  0  0
   -7.5200    1.2800   -7.7517 C   0  0  0  0  0  0  0  0  0  0  0  0
   -8.6147    0.6028   -7.1105 O   0  0  0  0  0  0  0  0  0  0  0  0
   -7.3358    0.7419   -9.1737 C   0  0  1  0  0  0  0  0  0  0  0  0
   -6.1656    1.2809   -9.8017 O   0  0  0  0  0  0  0  0  0  0  0  0
   -7.1953   -0.7676   -9.2713 C   0  0  1  0  0  0  0  0  0  0  0  0
   -8.4932   -1.3430   -9.4484 O   0  0  0  0  0  0  0  0  0  0  0  0
   -6.3277   -0.9596  -10.5045 C   0  0  1  0  0  0  0  0  0  0  0  0
   -7.1258   -0.8976  -11.6951 O   0  0  0  0  0  0  0  0  0  0  0  0
   -5.4486    0.2750  -10.5281 C   0  0  2  0  0  0  0  0  0  0  0  0
   -2.8503   -3.0198   -7.6212 N   0  0  0  0  0  0  0  0  0  0  0  0
   -4.0840   -3.1392   -8.1627 C   0  0  1  0  0  0  0  0  0  0  0  0
   -4.7905   -4.2726   -7.9511 N   0  0  0  0  0  0  0  0  0  0  0  0
   -4.6163   -2.1431   -8.9089 N   0  0  0  0  0  0  0  0  0  0  0  0
   -3.9039   -1.0099   -9.1167 C   0  0  1  0  0  0  0  0  0  0  0  0
   -2.6426   -0.8604   -8.5745 C   0  0  2  0  0  0  0  0  0  0  0  0
   -2.1184   -1.8982   -7.8129 C   0  0  0  0  0  0  0  0  0  0  0  0
   -0.9835   -1.8043   -7.3050 O   0  0  0  0  0  0  0  0  0  0  0  0
   -2.1910    0.3559   -8.9429 N   0  0  0  0  0  0  0  0  0  0  0  0
   -3.1486    0.9392   -9.7009 C   0  0  0  0  0  0  0  0  0  0  0  0
   -4.1806    0.0948   -9.7968 N   0  0  1  0  0  0  0  0  0  0  0  0
  1  2  1  1  0  0  0
  1  3  1  0  0  0  0
  1  4  2  0  0  0  0
  1  6  1  0  0  0  0
  5  6  1  0  0  0  0
  7  5  1  1  0  0  0
  7  8  1  0  0  0  0
  7  9  1  0  0  0  0
  9 10  1  6  0  0  0
  9 11  1  0  0  0  0
 11 12  1  6  0  0  0
 11 13  1  0  0  0  0
 13  8  1  1  0  0  0
 13 24  1  0  0  0  0
 14 15  1  0  0  0  0
 14 20  1  0  0  0  0
 15 16  1  1  0  0  0
 15 17  1  0  0  0  0
 18 17  1  6  0  0  0
 18 19  1  0  0  0  0
 18 24  1  0  0  0  0
 19 20  1  1  0  0  0
 19 22  1  0  0  0  0
 20 21  2  0  0  0  0
 22 23  1  0  0  0  0
 24 23  1  6  0  0  0
M  CHG  1   3  -1
M  END
>  <CHROM.1>
-49.60354717,-173.60234880,176.13124621,110.65590631,-5.97472549,-0.43519296
-8.15839421,-2.81274874,0.40047981,-1.47677612

>  <Name>
ligand

>  <RI>
0

>  <Rbt.Current_Directory>
/home/itssahil/PROJECTS/Mol_Feturizer/New_Systems/rnas/3SLQ

>  <Rbt.Executable>
rbdock ($Id: //depot/dev/client3/rdock/2013.1/src/exe/rbdock.cxx#4 $)

>  <Rbt.Library>
libRbt.so (2013.1, Build901 2013/11/27)

>  <Rbt.Parameter_File>
/export/apps/rDock/src/rDock_2013.1_src/data/scripts/dock_solv.prm

>  <Rbt.Receptor>
prm/blind_docking_40.prm

>  <SCORE>
-16.9043

>  <SCORE.INTER>
-12.2785

>  <SCORE.INTER.CONST>
1

>  <SCORE.INTER.POLAR>
0

>  <SCORE.INTER.ROT>
4

>  <SCORE.INTER.SOLV>
14.6642

>  <SCORE.INTER.VDW>
-19.3404

>  <SCORE.INTER.norm>
-0.511605

>  <SCORE.INTRA>
-4.62575

>  <SCORE.INTRA.DIHEDRAL>
-11.6462

>  <SCORE.INTRA.DIHEDRAL.0>
13.2525

>  <SCORE.INTRA.POLAR>
0

>  <SCORE.INTRA.POLAR.0>
0

>  <SCORE.INTRA.REPUL>
0

>  <SCORE.INTRA.REPUL.0>
0

>  <SCORE.INTRA.SOLV>
0.364049

>  <SCORE.INTRA.SOLV.lig_0>
-70.7221

>  <SCORE.INTRA.VDW>
1.01533

>  <SCORE.INTRA.VDW.0>
-1.46337

>  <SCORE.INTRA.norm>
-0.19274

>  <SCORE.RESTR>
0

>  <SCORE.RESTR.CAVITY>
0

>  <SCORE.RESTR.norm>
0

>  <SCORE.SYSTEM>
0

>  <SCORE.SYSTEM.CONST>
0

>  <SCORE.SYSTEM.DIHEDRAL>
0

>  <SCORE.SYSTEM.SOLV>
0

>  <SCORE.SYSTEM.norm>
0

>  <SCORE.heavy>
24

>  <SCORE.norm>
-0.704344

>  <RMSD>
20.387

$$$$
ligand
 OpenBabel11021811483D
libRbt.so/2013.1/901 2013/11/27
 24 26  0  0  0  0  0  0  0  0999 V2000
   -5.1498    1.9646   -5.6872 P   0  0  1  0  0  0  0  0  0  0  0  0
   -3.9477    1.5452   -6.5061 O   0  0  0  0  0  0  0  0  0  0  0  0
   -4.9319    2.1030   -4.1989 O   0  5  0  0  0  0  0  0  0  0  0  0
   -5.9250    3.1323   -6.2790 O   0  0  0  0  0  0  0  0  0  0  0  0
   -6.8632    0.2578   -6.8976 C   0  0  0  0  0  0  0  0  0  0  0  0
   -6.1226    0.6651   -5.7340 O   0  0  0  0  0  0  0  0  0  0  0  0
   -5.9038    0.0118   -8.0659 C   0  0  1  0  0  0  0  0  0  0  0  0
   -4.8351   -0.8714   -7.7027 O   0  0  0  0  0  0  0  0  0  0  0  0
   -6.5440   -0.6039   -9.2982 C   0  0  1  0  0  0  0  0  0  0  0  0
   -6.9902    0.4459  -10.1617 O   0  0  0  0  0  0  0  0  0  0  0  0
   -5.4078   -1.3956   -9.9247 C   0  0  1  0  0  0  0  0  0  0  0  0
   -4.5729   -0.5371  -10.7148 O   0  0  0  0  0  0  0  0  0  0  0  0
   -4.5636   -1.8220   -8.7401 C   0  0  2  0  0  0  0  0  0  0  0  0
   -5.1362   -6.7524   -9.9314 N   0  0  0  0  0  0  0  0  0  0  0  0
   -4.7458   -5.7195  -10.7124 C   0  0  1  0  0  0  0  0  0  0  0  0
   -4.4397   -5.9517  -12.0089 N   0  0  0  0  0  0  0  0  0  0  0  0
   -4.6591   -4.4639  -10.2143 N   0  0  0  0  0  0  0  0  0  0  0  0
   -4.9677   -4.2376   -8.9149 C   0  0  1  0  0  0  0  0  0  0  0  0
   -5.3707   -5.2733   -8.0951 C   0  0  2  0  0  0  0  0  0  0  0  0
   -5.4508   -6.5534   -8.6307 C   0  0  0  0  0  0  0  0  0  0  0  0
   -5.8103   -7.5168   -7.9254 O   0  0  0  0  0  0  0  0  0  0  0  0
   -5.6110   -4.7478   -6.8765 N   0  0  0  0  0  0  0  0  0  0  0  0
   -5.3548   -3.4204   -6.9418 C   0  0  0  0  0  0  0  0  0  0  0  0
   -4.9639   -3.1290   -8.1865 N   0  0  1  0  0  0  0  0  0  0  0  0
  1  2  1  6  0  0  0
  1  3  1  0  0  0  0
  1  4  2  0  0  0  0
  1  6  1  0  0  0  0
  5  6  1  0  0  0  0
  7  5  1  1  0  0  0
  7  8  1  0  0  0  0
  7  9  1  0  0  0  0
  9 10  1  6  0  0  0
  9 11  1  0  0  0  0
 11 12  1  6  0  0  0
 11 13  1  0  0  0  0
 13  8  1  1  0  0  0
 13 24  1  0  0  0  0
 14 15  1  0  0  0  0
 14 20  1  0  0  0  0
 15 16  1  6  0  0  0
 15 17  1  0  0  0  0
 18 17  1  1  0  0  0
 18 19  1  0  0  0  0
 18 24  1  0  0  0  0
 19 20  1  6  0  0  0
 19 22  1  0  0  0  0
 20 21  2  0  0  0  0
 22 23  1  0  0  0  0
 24 23  1  1  0  0  0
M  CHG  1   3  -1
M  END
>  <CHROM.1>
-72.64809851,51.66026277,57.90152500,173.74211086,-5.33919281,-1.84477510
-8.08330828,-3.06194156,1.53177827,-1.23768669

>  <Name>
ligand

>  <RI>
0

>  <Rbt.Current_Directory>
/home/itssahil/PROJECTS/Mol_Feturizer/New_Systems/rnas/3SLQ

>  <Rbt.Executable>
rbdock ($Id: //depot/dev/client3/rdock/2013.1/src/exe/rbdock.cxx#4 $)

>  <Rbt.Library>
libRbt.so (2013.1, Build901 2013/11/27)

>  <Rbt.Parameter_File>
/export/apps/rDock/src/rDock_2013.1_src/data/scripts/dock_solv.prm

>  <Rbt.Receptor>
prm/blind_docking_60.prm

>  <SCORE>
-12.9654

>  <SCORE.INTER>
-7.40646

>  <SCORE.INTER.CONST>
1

>  <SCORE.INTER.POLAR>
0

>  <SCORE.INTER.ROT>
4

>  <SCORE.INTER.SOLV>
9.88896

>  <SCORE.INTER.VDW>
-14.5006

>  <SCORE.INTER.norm>
-0.308603

>  <SCORE.INTRA>
-5.55898

>  <SCORE.INTRA.DIHEDRAL>
-11.5366

>  <SCORE.INTRA.DIHEDRAL.0>
13.2525

>  <SCORE.INTRA.POLAR>
0

>  <SCORE.INTRA.POLAR.0>
0

>  <SCORE.INTRA.REPUL>
0

>  <SCORE.INTRA.REPUL.0>
0

>  <SCORE.INTRA.SOLV>
1.264

>  <SCORE.INTRA.SOLV.lig_0>
-70.7221

>  <SCORE.INTRA.VDW>
-0.422664

>  <SCORE.INTRA.VDW.0>
-1.46337

>  <SCORE.INTRA.norm>
-0.231624

>  <SCORE.RESTR>
0

>  <SCORE.RESTR.CAVITY>
0

>  <SCORE.RESTR.norm>
0

>  <SCORE.SYSTEM>
0

>  <SCORE.SYSTEM.CONST>
0

>  <SCORE.SYSTEM.DIHEDRAL>
0

>  <SCORE.SYSTEM.SOLV>
0

>  <SCORE.SYSTEM.norm>
0

>  <SCORE.heavy>
24

>  <SCORE.norm>
-0.540227

>  <RMSD>
20.488

$$$$
ligand
 OpenBabel11021811483D
libRbt.so/2013.1/901 2013/11/27
 24 26  0  0  0  0  0  0  0  0999 V2000
   -3.8865    0.4565  -10.6704 P   0  0  1  0  0  0  0  0  0  0  0  0
   -3.4816   -0.9836  -10.9024 O   0  0  0  0  0  0  0  0  0  0  0  0
   -2.8577    1.3441  -10.0106 O   0  5  0  0  0  0  0  0  0  0  0  0
   -4.5471    1.1150  -11.8724 O   0  0  0  0  0  0  0  0  0  0  0  0
   -6.0407   -0.6366   -9.4545 C   0  0  0  0  0  0  0  0  0  0  0  0
   -5.0047    0.3600   -9.4967 O   0  0  0  0  0  0  0  0  0  0  0  0
   -6.9216   -0.4201   -8.2205 C   0  0  1  0  0  0  0  0  0  0  0  0
   -7.7724   -1.5453   -7.9671 O   0  0  0  0  0  0  0  0  0  0  0  0
   -6.1607   -0.1817   -6.9274 C   0  0  1  0  0  0  0  0  0  0  0  0
   -5.9531    1.2244   -6.7647 O   0  0  0  0  0  0  0  0  0  0  0  0
   -7.0959   -0.7337   -5.8639 C   0  0  1  0  0  0  0  0  0  0  0  0
   -8.0969    0.2358   -5.5227 O   0  0  0  0  0  0  0  0  0  0  0  0
   -7.8284   -1.8575   -6.5697 C   0  0  2  0  0  0  0  0  0  0  0  0
   -6.5588   -6.0799   -9.1419 N   0  0  0  0  0  0  0  0  0  0  0  0
   -7.2423   -4.9909   -9.5618 C   0  0  1  0  0  0  0  0  0  0  0  0
   -7.6799   -4.9390  -10.8402 N   0  0  0  0  0  0  0  0  0  0  0  0
   -7.4920   -3.9591   -8.7220 N   0  0  0  0  0  0  0  0  0  0  0  0
   -7.0515   -4.0172   -7.4424 C   0  0  1  0  0  0  0  0  0  0  0  0
   -6.3527   -5.1176   -6.9864 C   0  0  2  0  0  0  0  0  0  0  0  0
   -6.1086   -6.1634   -7.8688 C   0  0  0  0  0  0  0  0  0  0  0  0
   -5.4816   -7.1754   -7.4981 O   0  0  0  0  0  0  0  0  0  0  0  0
   -6.0558   -4.8932   -5.6901 N   0  0  0  0  0  0  0  0  0  0  0  0
   -6.5534   -3.6793   -5.3570 C   0  0  0  0  0  0  0  0  0  0  0  0
   -7.1533   -3.1617   -6.4337 N   0  0  1  0  0  0  0  0  0  0  0  0
  1  2  1  6  0  0  0
  1  3  1  0  0  0  0
  1  4  2  0  0  0  0
  1  6  1  0  0  0  0
  5  6  1  0  0  0  0
  7  5  1  6  0  0  0
  7  8  1  0  0  0  0
  7  9  1  0  0  0  0
  9 10  1  1  0  0  0
  9 11  1  0  0  0  0
 11 12  1  6  0  0  0
 11 13  1  0  0  0  0
 13  8  1  6  0  0  0
 13 24  1  0  0  0  0
 14 15  1  0  0  0  0
 14 20  1  0  0  0  0
 15 16  1  1  0  0  0
 15 17  1  0  0  0  0
 18 17  1  6  0  0  0
 18 19  1  0  0  0  0
 18 24  1  0  0  0  0
 19 20  1  1  0  0  0
 19 22  1  0  0  0  0
 20 21  2  0  0  0  0
 22 23  1  0  0  0  0
 24 23  1  6  0  0  0
M  CHG  1   3  -1
M  END
>  <CHROM.1>
-42.38107827,-166.94872440,-179.42207840,-23.73150578,-6.05439692,-2.06569520
-8.33873462,-0.84301011,-1.04173890,-2.88556587

>  <Name>
ligand

>  <RI>
0

>  <Rbt.Current_Directory>
/home/itssahil/PROJECTS/Mol_Feturizer/New_Systems/rnas/3SLQ

>  <Rbt.Executable>
rbdock ($Id: //depot/dev/client3/rdock/2013.1/src/exe/rbdock.cxx#4 $)

>  <Rbt.Library>
libRbt.so (2013.1, Build901 2013/11/27)

>  <Rbt.Parameter_File>
/export/apps/rDock/src/rDock_2013.1_src/data/scripts/dock_solv.prm

>  <Rbt.Receptor>
prm/blind_docking_100.prm

>  <SCORE>
-15.0082

>  <SCORE.INTER>
-9.93543

>  <SCORE.INTER.CONST>
1

>  <SCORE.INTER.POLAR>
0

>  <SCORE.INTER.ROT>
4

>  <SCORE.INTER.SOLV>
17.2364

>  <SCORE.INTER.VDW>
-18.6358

>  <SCORE.INTER.norm>
-0.413976

>  <SCORE.INTRA>
-5.07273

>  <SCORE.INTRA.DIHEDRAL>
-10.9605

>  <SCORE.INTRA.DIHEDRAL.0>
13.2525

>  <SCORE.INTRA.POLAR>
0

>  <SCORE.INTRA.POLAR.0>
0

>  <SCORE.INTRA.REPUL>
0

>  <SCORE.INTRA.REPUL.0>
0

>  <SCORE.INTRA.SOLV>
0.0515092

>  <SCORE.INTRA.SOLV.lig_0>
-70.7221

>  <SCORE.INTRA.VDW>
0.381776

>  <SCORE.INTRA.VDW.0>
-1.46337

>  <SCORE.INTRA.norm>
-0.211364

>  <SCORE.RESTR>
0

>  <SCORE.RESTR.CAVITY>
0

>  <SCORE.RESTR.norm>
0

>  <SCORE.SYSTEM>
0

>  <SCORE.SYSTEM.CONST>
0

>  <SCORE.SYSTEM.DIHEDRAL>
0

>  <SCORE.SYSTEM.SOLV>
0

>  <SCORE.SYSTEM.norm>
0

>  <SCORE.heavy>
24

>  <SCORE.norm>
-0.62534

>  <RMSD>
20.518

$$$$
ligand
 OpenBabel11021811483D
libRbt.so/2013.1/901 2013/11/27
 24 26  0  0  0  0  0  0  0  0999 V2000
   -4.2146   -3.2998   -8.1056 P   0  0  1  0  0  0  0  0  0  0  0  0
   -2.7752   -3.6587   -7.8044 O   0  0  0  0  0  0  0  0  0  0  0  0
   -4.6344   -3.3723   -9.5549 O   0  5  0  0  0  0  0  0  0  0  0  0
   -5.2230   -3.9473   -7.1684 O   0  0  0  0  0  0  0  0  0  0  0  0
   -3.6198   -0.7254   -8.6820 C   0  0  0  0  0  0  0  0  0  0  0  0
   -4.2759   -1.6974   -7.8495 O   0  0  0  0  0  0  0  0  0  0  0  0
   -4.4597   -0.4615   -9.9354 C   0  0  1  0  0  0  0  0  0  0  0  0
   -5.8519   -0.7156   -9.7090 O   0  0  0  0  0  0  0  0  0  0  0  0
   -4.3831    0.9595  -10.4670 C   0  0  1  0  0  0  0  0  0  0  0  0
   -3.3191    1.0407  -11.4200 O   0  0  0  0  0  0  0  0  0  0  0  0
   -5.7380    1.1603  -11.1259 C   0  0  1  0  0  0  0  0  0  0  0  0
   -5.7414    0.6030  -12.4480 O   0  0  0  0  0  0  0  0  0  0  0  0
   -6.6742    0.2943  -10.3068 C   0  0  2  0  0  0  0  0  0  0  0  0
   -9.3236   -0.3758   -5.9953 N   0  0  0  0  0  0  0  0  0  0  0  0
   -8.8939   -1.2935   -6.8912 C   0  0  1  0  0  0  0  0  0  0  0  0
   -9.1628   -2.6012   -6.6767 N   0  0  0  0  0  0  0  0  0  0  0  0
   -8.2024   -0.9201   -7.9933 N   0  0  0  0  0  0  0  0  0  0  0  0
   -7.9367    0.3915   -8.2029 C   0  0  1  0  0  0  0  0  0  0  0  0
   -8.3647    1.3501   -7.3056 C   0  0  2  0  0  0  0  0  0  0  0  0
   -9.0721    0.9404   -6.1814 C   0  0  0  0  0  0  0  0  0  0  0  0
   -9.4770    1.7730   -5.3463 O   0  0  0  0  0  0  0  0  0  0  0  0
   -7.9626    2.5475   -7.7781 N   0  0  0  0  0  0  0  0  0  0  0  0
   -7.2956    2.3313   -8.9358 C   0  0  0  0  0  0  0  0  0  0  0  0
   -7.2886    1.0165   -9.1772 N   0  0  1  0  0  0  0  0  0  0  0  0
  1  2  1  1  0  0  0
  1  3  1  0  0  0  0
  1  4  2  0  0  0  0
  1  6  1  0  0  0  0
  5  6  1  0  0  0  0
  7  5  1  1  0  0  0
  7  8  1  0  0  0  0
  7  9  1  0  0  0  0
  9 10  1  6  0  0  0
  9 11  1  0  0  0  0
 11 12  1  6  0  0  0
 11 13  1  0  0  0  0
 13  8  1  1  0  0  0
 13 24  1  0  0  0  0
 14 15  1  0  0  0  0
 14 20  1  0  0  0  0
 15 16  1  6  0  0  0
 15 17  1  0  0  0  0
 18 17  1  1  0  0  0
 18 19  1  0  0  0  0
 18 24  1  0  0  0  0
 19 20  1  6  0  0  0
 19 22  1  0  0  0  0
 20 21  2  0  0  0  0
 22 23  1  0  0  0  0
 24 23  1  1  0  0  0
M  CHG  1   3  -1
M  END
>  <CHROM.1>
68.78702861,26.46414423,80.53908430,-52.16079966,-6.20967421,-0.58154205
-8.54773797,0.12375272,-0.63227049,2.49015488

>  <Name>
ligand

>  <RI>
0

>  <Rbt.Current_Directory>
/home/itssahil/PROJECTS/Mol_Feturizer/New_Systems/rnas/3SLQ

>  <Rbt.Executable>
rbdock ($Id: //depot/dev/client3/rdock/2013.1/src/exe/rbdock.cxx#4 $)

>  <Rbt.Library>
libRbt.so (2013.1, Build901 2013/11/27)

>  <Rbt.Parameter_File>
/export/apps/rDock/src/rDock_2013.1_src/data/scripts/dock_solv.prm

>  <Rbt.Receptor>
prm/blind_docking_80.prm

>  <SCORE>
-14.5486

>  <SCORE.INTER>
-12.0973

>  <SCORE.INTER.CONST>
1

>  <SCORE.INTER.POLAR>
0

>  <SCORE.INTER.ROT>
4

>  <SCORE.INTER.SOLV>
16.4974

>  <SCORE.INTER.VDW>
-19.8307

>  <SCORE.INTER.norm>
-0.504055

>  <SCORE.INTRA>
-2.45132

>  <SCORE.INTRA.DIHEDRAL>
-6.89983

>  <SCORE.INTRA.DIHEDRAL.0>
13.2525

>  <SCORE.INTRA.POLAR>
0

>  <SCORE.INTRA.POLAR.0>
0

>  <SCORE.INTRA.REPUL>
0

>  <SCORE.INTRA.REPUL.0>
0

>  <SCORE.INTRA.SOLV>
3.04037

>  <SCORE.INTRA.SOLV.lig_0>
-70.7221

>  <SCORE.INTRA.VDW>
-0.521593

>  <SCORE.INTRA.VDW.0>
-1.46337

>  <SCORE.INTRA.norm>
-0.102138

>  <SCORE.RESTR>
0

>  <SCORE.RESTR.CAVITY>
0

>  <SCORE.RESTR.norm>
0

>  <SCORE.SYSTEM>
0

>  <SCORE.SYSTEM.CONST>
0

>  <SCORE.SYSTEM.DIHEDRAL>
0

>  <SCORE.SYSTEM.SOLV>
0

>  <SCORE.SYSTEM.norm>
0

>  <SCORE.heavy>
24

>  <SCORE.norm>
-0.606194

>  <RMSD>
20.681

$$$$
ligand
 OpenBabel11021811483D
libRbt.so/2013.1/901 2013/11/27
 24 26  0  0  0  0  0  0  0  0999 V2000
   -5.2771    0.8573  -11.2615 P   0  0  1  0  0  0  0  0  0  0  0  0
   -3.9030    1.4742  -11.4128 O   0  0  0  0  0  0  0  0  0  0  0  0
   -6.1557    1.4354  -10.1772 O   0  5  0  0  0  0  0  0  0  0  0  0
   -6.0168    0.6636  -12.5767 O   0  0  0  0  0  0  0  0  0  0  0  0
   -4.4997   -0.8554   -9.3183 C   0  0  0  0  0  0  0  0  0  0  0  0
   -4.9743   -0.6184  -10.6550 O   0  0  0  0  0  0  0  0  0  0  0  0
   -5.5852   -0.4783   -8.3057 C   0  0  1  0  0  0  0  0  0  0  0  0
   -6.6127   -1.4744   -8.2281 O   0  0  0  0  0  0  0  0  0  0  0  0
   -5.0908   -0.2872   -6.8821 C   0  0  1  0  0  0  0  0  0  0  0  0
   -4.7365    1.0863   -6.6954 O   0  0  0  0  0  0  0  0  0  0  0  0
   -6.2953   -0.6716   -6.0385 C   0  0  1  0  0  0  0  0  0  0  0  0
   -7.2072    0.4308   -5.9326 O   0  0  0  0  0  0  0  0  0  0  0  0
   -7.0049   -1.7202   -6.8719 C   0  0  2  0  0  0  0  0  0  0  0  0
   -6.4137   -6.3488   -8.9416 N   0  0  0  0  0  0  0  0  0  0  0  0
   -6.9044   -5.2164   -9.4950 C   0  0  1  0  0  0  0  0  0  0  0  0
   -7.3123   -5.2351  -10.7841 N   0  0  0  0  0  0  0  0  0  0  0  0
   -6.9917   -4.0719   -8.7776 N   0  0  0  0  0  0  0  0  0  0  0  0
   -6.5820   -4.0596   -7.4865 C   0  0  1  0  0  0  0  0  0  0  0  0
   -6.0784   -5.2016   -6.8955 C   0  0  2  0  0  0  0  0  0  0  0  0
   -5.9985   -6.3636   -7.6540 C   0  0  0  0  0  0  0  0  0  0  0  0
   -5.5503   -7.4168   -7.1593 O   0  0  0  0  0  0  0  0  0  0  0  0
   -5.7643   -4.8872   -5.6221 N   0  0  0  0  0  0  0  0  0  0  0  0
   -6.0602   -3.5798   -5.4350 C   0  0  0  0  0  0  0  0  0  0  0  0
   -6.5542   -3.0934   -6.5780 N   0  0  1  0  0  0  0  0  0  0  0  0
  1  2  1  6  0  0  0
  1  3  1  0  0  0  0
  1  4  2  0  0  0  0
  1  6  1  0  0  0  0
  5  6  1  0  0  0  0
  7  5  1  6  0  0  0
  7  8  1  0  0  0  0
  7  9  1  0  0  0  0
  9 10  1  6  0  0  0
  9 11  1  0  0  0  0
 11 12  1  6  0  0  0
 11 13  1  0  0  0  0
 13  8  1  6  0  0  0
 13 24  1  0  0  0  0
 14 15  1  0  0  0  0
 14 20  1  0  0  0  0
 15 16  1  1  0  0  0
 15 17  1  0  0  0  0
 18 17  1  6  0  0  0
 18 19  1  0  0  0  0
 18 24  1  0  0  0  0
 19 20  1  1  0  0  0
 19 22  1  0  0  0  0
 20 21  2  0  0  0  0
 22 23  1  0  0  0  0
 24 23  1  6  0  0  0
M  CHG  1   3  -1
M  END
>  <CHROM.1>
70.21921755,76.84690745,67.48088927,-35.97896790,-5.92337923,-2.03186378
-8.51671598,-0.04701362,-1.42739405,-2.04963860

>  <Name>
ligand

>  <RI>
0

>  <Rbt.Current_Directory>
/home/itssahil/PROJECTS/Mol_Feturizer/New_Systems/rnas/3SLQ

>  <Rbt.Executable>
rbdock ($Id: //depot/dev/client3/rdock/2013.1/src/exe/rbdock.cxx#4 $)

>  <Rbt.Library>
libRbt.so (2013.1, Build901 2013/11/27)

>  <Rbt.Parameter_File>
/export/apps/rDock/src/rDock_2013.1_src/data/scripts/dock_solv.prm

>  <Rbt.Receptor>
prm/blind_docking_40.prm

>  <SCORE>
-14.7872

>  <SCORE.INTER>
-10.9754

>  <SCORE.INTER.CONST>
1

>  <SCORE.INTER.POLAR>
0

>  <SCORE.INTER.ROT>
4

>  <SCORE.INTER.SOLV>
17.8524

>  <SCORE.INTER.VDW>
-19.5344

>  <SCORE.INTER.norm>
-0.457309

>  <SCORE.INTRA>
-3.81175

>  <SCORE.INTRA.DIHEDRAL>
-10.6294

>  <SCORE.INTRA.DIHEDRAL.0>
13.2525

>  <SCORE.INTRA.POLAR>
0

>  <SCORE.INTRA.POLAR.0>
0

>  <SCORE.INTRA.REPUL>
0

>  <SCORE.INTRA.REPUL.0>
0

>  <SCORE.INTRA.SOLV>
2.64695

>  <SCORE.INTRA.SOLV.lig_0>
-70.7221

>  <SCORE.INTRA.VDW>
0.179471

>  <SCORE.INTRA.VDW.0>
-1.46337

>  <SCORE.INTRA.norm>
-0.158823

>  <SCORE.RESTR>
0

>  <SCORE.RESTR.CAVITY>
0

>  <SCORE.RESTR.norm>
0

>  <SCORE.SYSTEM>
0

>  <SCORE.SYSTEM.CONST>
0

>  <SCORE.SYSTEM.DIHEDRAL>
0

>  <SCORE.SYSTEM.SOLV>
0

>  <SCORE.SYSTEM.norm>
0

>  <SCORE.heavy>
24

>  <SCORE.norm>
-0.616132

>  <RMSD>
20.706

$$$$
ligand
 OpenBabel11021811483D
libRbt.so/2013.1/901 2013/11/27
 24 26  0  0  0  0  0  0  0  0999 V2000
   -5.6266    0.4597  -10.9791 P   0  0  1  0  0  0  0  0  0  0  0  0
   -6.4273    1.0272   -9.8266 O   0  0  0  0  0  0  0  0  0  0  0  0
   -5.9298    1.0230  -12.3476 O   0  5  0  0  0  0  0  0  0  0  0  0
   -4.1340    0.3554  -10.7038 O   0  0  0  0  0  0  0  0  0  0  0  0
   -5.6504   -2.1926  -10.4517 C   0  0  0  0  0  0  0  0  0  0  0  0
   -6.1959   -1.0528  -11.1383 O   0  0  0  0  0  0  0  0  0  0  0  0
   -6.4071   -3.4593  -10.8623 C   0  0  1  0  0  0  0  0  0  0  0  0
   -5.7161   -4.6487  -10.4599 O   0  0  0  0  0  0  0  0  0  0  0  0
   -7.8064   -3.5822  -10.2838 C   0  0  1  0  0  0  0  0  0  0  0  0
   -8.7370   -2.9862  -11.1923 O   0  0  0  0  0  0  0  0  0  0  0  0
   -8.0122   -5.0847  -10.1812 C   0  0  1  0  0  0  0  0  0  0  0  0
   -8.4238   -5.6231  -11.4457 O   0  0  0  0  0  0  0  0  0  0  0  0
   -6.6192   -5.6277   -9.9313 C   0  0  2  0  0  0  0  0  0  0  0  0
   -6.4968   -2.9709   -5.5743 N   0  0  0  0  0  0  0  0  0  0  0  0
   -6.8522   -2.5691   -6.8160 C   0  0  1  0  0  0  0  0  0  0  0  0
   -7.2509   -1.2912   -7.0071 N   0  0  0  0  0  0  0  0  0  0  0  0
   -6.8131   -3.4262   -7.8629 N   0  0  0  0  0  0  0  0  0  0  0  0
   -6.4122   -4.7049   -7.6652 C   0  0  1  0  0  0  0  0  0  0  0  0
   -6.0422   -5.1417   -6.4084 C   0  0  2  0  0  0  0  0  0  0  0  0
   -6.0920   -4.2421   -5.3500 C   0  0  0  0  0  0  0  0  0  0  0  0
   -5.7664   -4.5951   -4.1993 O   0  0  0  0  0  0  0  0  0  0  0  0
   -5.6910   -6.4387   -6.5237 N   0  0  0  0  0  0  0  0  0  0  0  0
   -5.8483   -6.7951   -7.8199 C   0  0  0  0  0  0  0  0  0  0  0  0
   -6.2882   -5.7302   -8.4977 N   0  0  1  0  0  0  0  0  0  0  0  0
  1  2  1  1  0  0  0
  1  3  1  0  0  0  0
  1  4  2  0  0  0  0
  1  6  1  0  0  0  0
  5  6  1  0  0  0  0
  7  5  1  1  0  0  0
  7  8  1  0  0  0  0
  7  9  1  0  0  0  0
  9 10  1  6  0  0  0
  9 11  1  0  0  0  0
 11 12  1  6  0  0  0
 11 13  1  0  0  0  0
 13  8  1  6  0  0  0
 13 24  1  0  0  0  0
 14 15  1  0  0  0  0
 14 20  1  0  0  0  0
 15 16  1  6  0  0  0
 15 17  1  0  0  0  0
 18 17  1  1  0  0  0
 18 19  1  0  0  0  0
 18 24  1  0  0  0  0
 19 20  1  6  0  0  0
 19 22  1  0  0  0  0
 20 21  2  0  0  0  0
 22 23  1  0  0  0  0
 24 23  1  1  0  0  0
M  CHG  1   3  -1
M  END
>  <CHROM.1>
-90.07935555,166.33221527,-178.61950074,62.25265873,-6.42357470,-3.01686838
-9.09625996,-1.37673972,1.26958490,2.26476596

>  <Name>
ligand

>  <RI>
0

>  <Rbt.Current_Directory>
/home/itssahil/PROJECTS/Mol_Feturizer/New_Systems/rnas/3SLQ

>  <Rbt.Executable>
rbdock ($Id: //depot/dev/client3/rdock/2013.1/src/exe/rbdock.cxx#4 $)

>  <Rbt.Library>
libRbt.so (2013.1, Build901 2013/11/27)

>  <Rbt.Parameter_File>
/export/apps/rDock/src/rDock_2013.1_src/data/scripts/dock_solv.prm

>  <Rbt.Receptor>
prm/blind_docking_40.prm

>  <SCORE>
-14.8087

>  <SCORE.INTER>
-10.8232

>  <SCORE.INTER.CONST>
1

>  <SCORE.INTER.POLAR>
0

>  <SCORE.INTER.ROT>
4

>  <SCORE.INTER.SOLV>
17.2233

>  <SCORE.INTER.VDW>
-19.2232

>  <SCORE.INTER.norm>
-0.450965

>  <SCORE.INTRA>
-3.98553

>  <SCORE.INTRA.DIHEDRAL>
-10.1905

>  <SCORE.INTRA.DIHEDRAL.0>
13.2525

>  <SCORE.INTRA.POLAR>
0

>  <SCORE.INTRA.POLAR.0>
0

>  <SCORE.INTRA.REPUL>
0

>  <SCORE.INTRA.REPUL.0>
0

>  <SCORE.INTRA.SOLV>
2.49173

>  <SCORE.INTRA.SOLV.lig_0>
-70.7221

>  <SCORE.INTRA.VDW>
-0.136124

>  <SCORE.INTRA.VDW.0>
-1.46337

>  <SCORE.INTRA.norm>
-0.166064

>  <SCORE.RESTR>
0

>  <SCORE.RESTR.CAVITY>
0

>  <SCORE.RESTR.norm>
0

>  <SCORE.SYSTEM>
0

>  <SCORE.SYSTEM.CONST>
0

>  <SCORE.SYSTEM.DIHEDRAL>
0

>  <SCORE.SYSTEM.SOLV>
0

>  <SCORE.SYSTEM.norm>
0

>  <SCORE.heavy>
24

>  <SCORE.norm>
-0.617029

>  <RMSD>
20.879

$$$$
ligand
 OpenBabel11021811483D
libRbt.so/2013.1/901 2013/11/27
 24 26  0  0  0  0  0  0  0  0999 V2000
   -5.0636   -4.8586   -8.9373 P   0  0  1  0  0  0  0  0  0  0  0  0
   -3.5810   -5.0985   -9.1265 O   0  0  0  0  0  0  0  0  0  0  0  0
   -5.9934   -5.7861   -9.6836 O   0  5  0  0  0  0  0  0  0  0  0  0
   -5.4772   -4.6528   -7.4877 O   0  0  0  0  0  0  0  0  0  0  0  0
   -4.7682   -2.1987   -9.3262 C   0  0  0  0  0  0  0  0  0  0  0  0
   -5.3327   -3.4614   -9.7200 O   0  0  0  0  0  0  0  0  0  0  0  0
   -5.0589   -1.1419  -10.3960 C   0  0  1  0  0  0  0  0  0  0  0  0
   -6.4547   -0.8248  -10.4685 O   0  0  0  0  0  0  0  0  0  0  0  0
   -4.3469    0.1845  -10.1925 C   0  0  1  0  0  0  0  0  0  0  0  0
   -3.0900    0.1448  -10.8746 O   0  0  0  0  0  0  0  0  0  0  0  0
   -5.2934    1.1909  -10.8263 C   0  0  1  0  0  0  0  0  0  0  0  0
   -5.0995    1.2374  -12.2471 O   0  0  0  0  0  0  0  0  0  0  0  0
   -6.6664    0.5850  -10.6133 C   0  0  2  0  0  0  0  0  0  0  0  0
   -9.2552   -1.1200   -6.5577 N   0  0  0  0  0  0  0  0  0  0  0  0
   -8.7986   -1.8004   -7.6338 C   0  0  1  0  0  0  0  0  0  0  0  0
   -9.0170   -3.1325   -7.7134 N   0  0  0  0  0  0  0  0  0  0  0  0
   -8.1302   -1.1670   -8.6259 N   0  0  0  0  0  0  0  0  0  0  0  0
   -7.9151    0.1676   -8.5406 C   0  0  1  0  0  0  0  0  0  0  0  0
   -8.3716    0.8876   -7.4541 C   0  0  2  0  0  0  0  0  0  0  0  0
   -9.0544    0.2134   -6.4485 C   0  0  0  0  0  0  0  0  0  0  0  0
   -9.4835    0.8252   -5.4504 O   0  0  0  0  0  0  0  0  0  0  0  0
   -8.0180    2.1742   -7.6504 N   0  0  0  0  0  0  0  0  0  0  0  0
   -7.3525    2.2443   -8.8269 C   0  0  0  0  0  0  0  0  0  0  0  0
   -7.2984    1.0163   -9.3525 N   0  0  1  0  0  0  0  0  0  0  0  0
  1  2  1  6  0  0  0
  1  3  1  0  0  0  0
  1  4  2  0  0  0  0
  1  6  1  0  0  0  0
  5  6  1  0  0  0  0
  7  5  1  1  0  0  0
  7  8  1  0  0  0  0
  7  9  1  0  0  0  0
  9 10  1  6  0  0  0
  9 11  1  0  0  0  0
 11 12  1  6  0  0  0
 11 13  1  0  0  0  0
 13  8  1  1  0  0  0
 13 24  1  0  0  0  0
 14 15  1  0  0  0  0
 14 20  1  0  0  0  0
 15 16  1  6  0  0  0
 15 17  1  0  0  0  0
 18 17  1  1  0  0  0
 18 19  1  0  0  0  0
 18 24  1  0  0  0  0
 19 20  1  6  0  0  0
 19 22  1  0  0  0  0
 20 21  2  0  0  0  0
 22 23  1  0  0  0  0
 24 23  1  1  0  0  0
M  CHG  1   3  -1
M  END
>  <CHROM.1>
-64.70906067,67.87337696,171.65425841,-20.23343745,-6.46679775,-1.30413614
-8.95887296,0.82310507,-0.70898005,2.85410452

>  <Name>
ligand

>  <RI>
0

>  <Rbt.Current_Directory>
/home/itssahil/PROJECTS/Mol_Feturizer/New_Systems/rnas/3SLQ

>  <Rbt.Executable>
rbdock ($Id: //depot/dev/client3/rdock/2013.1/src/exe/rbdock.cxx#4 $)

>  <Rbt.Library>
libRbt.so (2013.1, Build901 2013/11/27)

>  <Rbt.Parameter_File>
/export/apps/rDock/src/rDock_2013.1_src/data/scripts/dock_solv.prm

>  <Rbt.Receptor>
prm/blind_docking_20.prm

>  <SCORE>
-16.7591

>  <SCORE.INTER>
-11.6255

>  <SCORE.INTER.CONST>
1

>  <SCORE.INTER.POLAR>
0

>  <SCORE.INTER.ROT>
4

>  <SCORE.INTER.SOLV>
15.6822

>  <SCORE.INTER.VDW>
-19.2444

>  <SCORE.INTER.norm>
-0.484396

>  <SCORE.INTRA>
-5.13365

>  <SCORE.INTRA.DIHEDRAL>
-11.4396

>  <SCORE.INTRA.DIHEDRAL.0>
13.2525

>  <SCORE.INTRA.POLAR>
0

>  <SCORE.INTRA.POLAR.0>
0

>  <SCORE.INTRA.REPUL>
0

>  <SCORE.INTRA.REPUL.0>
0

>  <SCORE.INTRA.SOLV>
1.25194

>  <SCORE.INTRA.SOLV.lig_0>
-70.7221

>  <SCORE.INTRA.VDW>
-0.0398369

>  <SCORE.INTRA.VDW.0>
-1.46337

>  <SCORE.INTRA.norm>
-0.213902

>  <SCORE.RESTR>
0

>  <SCORE.RESTR.CAVITY>
0

>  <SCORE.RESTR.norm>
0

>  <SCORE.SYSTEM>
0

>  <SCORE.SYSTEM.CONST>
0

>  <SCORE.SYSTEM.DIHEDRAL>
0

>  <SCORE.SYSTEM.SOLV>
0

>  <SCORE.SYSTEM.norm>
0

>  <SCORE.heavy>
24

>  <SCORE.norm>
-0.698298

>  <RMSD>
20.928

$$$$
ligand
 OpenBabel11021811483D
libRbt.so/2013.1/901 2013/11/27
 24 26  0  0  0  0  0  0  0  0999 V2000
   -7.7428    1.8230   -7.5391 P   0  0  1  0  0  0  0  0  0  0  0  0
   -7.9063    2.9959   -8.4820 O   0  0  0  0  0  0  0  0  0  0  0  0
   -6.3359    1.5255   -7.0768 O   0  5  0  0  0  0  0  0  0  0  0  0
   -8.7531    1.7976   -6.4018 O   0  0  0  0  0  0  0  0  0  0  0  0
   -7.4764    0.3437   -9.7873 C   0  0  0  0  0  0  0  0  0  0  0  0
   -8.0366    0.5294   -8.4758 O   0  0  0  0  0  0  0  0  0  0  0  0
   -5.9480    0.4127   -9.7153 C   0  0  1  0  0  0  0  0  0  0  0  0
   -5.4059   -0.6130   -8.8738 O   0  0  0  0  0  0  0  0  0  0  0  0
   -5.2392    0.2650  -11.0508 C   0  0  1  0  0  0  0  0  0  0  0  0
   -5.0598    1.5626  -11.6258 O   0  0  0  0  0  0  0  0  0  0  0  0
   -3.9090   -0.3660  -10.6733 C   0  0  1  0  0  0  0  0  0  0  0  0
   -2.9855    0.6371  -10.2271 O   0  0  0  0  0  0  0  0  0  0  0  0
   -4.2355   -1.2034   -9.4526 C   0  0  2  0  0  0  0  0  0  0  0  0
   -6.0648   -5.5265   -7.4475 N   0  0  0  0  0  0  0  0  0  0  0  0
   -5.7783   -4.3520   -6.8411 C   0  0  1  0  0  0  0  0  0  0  0  0
   -5.9873   -4.2280   -5.5109 N   0  0  0  0  0  0  0  0  0  0  0  0
   -5.2873   -3.3060   -7.5461 N   0  0  0  0  0  0  0  0  0  0  0  0
   -5.0795   -3.4366   -8.8782 C   0  0  1  0  0  0  0  0  0  0  0  0
   -5.3617   -4.6248   -9.5229 C   0  0  2  0  0  0  0  0  0  0  0  0
   -5.8657   -5.6835   -8.7764 C   0  0  0  0  0  0  0  0  0  0  0  0
   -6.1338   -6.7737   -9.3189 O   0  0  0  0  0  0  0  0  0  0  0  0
   -5.0514   -4.4566  -10.8246 N   0  0  0  0  0  0  0  0  0  0  0  0
   -4.5959   -3.1916  -10.9799 C   0  0  0  0  0  0  0  0  0  0  0  0
   -4.6213   -2.5868   -9.7880 N   0  0  1  0  0  0  0  0  0  0  0  0
  1  2  1  6  0  0  0
  1  3  1  0  0  0  0
  1  4  2  0  0  0  0
  1  6  1  0  0  0  0
  5  6  1  0  0  0  0
  7  5  1  6  0  0  0
  7  8  1  0  0  0  0
  7  9  1  0  0  0  0
  9 10  1  1  0  0  0
  9 11  1  0  0  0  0
 11 12  1  1  0  0  0
 11 13  1  0  0  0  0
 13  8  1  6  0  0  0
 13 24  1  0  0  0  0
 14 15  1  0  0  0  0
 14 20  1  0  0  0  0
 15 16  1  1  0  0  0
 15 17  1  0  0  0  0
 18 17  1  6  0  0  0
 18 19  1  0  0  0  0
 18 24  1  0  0  0  0
 19 20  1  1  0  0  0
 19 22  1  0  0  0  0
 20 21  2  0  0  0  0
 22 23  1  0  0  0  0
 24 23  1  6  0  0  0
M  CHG  1   3  -1
M  END
>  <CHROM.1>
46.06078730,61.04402822,56.25508908,-57.56815191,-5.92699191,-1.29806917
-8.86144053,1.95251954,0.90364295,-0.26793488

>  <Name>
ligand

>  <RI>
0

>  <Rbt.Current_Directory>
/home/itssahil/PROJECTS/Mol_Feturizer/New_Systems/rnas/3SLQ

>  <Rbt.Executable>
rbdock ($Id: //depot/dev/client3/rdock/2013.1/src/exe/rbdock.cxx#4 $)

>  <Rbt.Library>
libRbt.so (2013.1, Build901 2013/11/27)

>  <Rbt.Parameter_File>
/export/apps/rDock/src/rDock_2013.1_src/data/scripts/dock_solv.prm

>  <Rbt.Receptor>
prm/blind_docking_100.prm

>  <SCORE>
-19.564

>  <SCORE.INTER>
-14.6954

>  <SCORE.INTER.CONST>
1

>  <SCORE.INTER.POLAR>
0

>  <SCORE.INTER.ROT>
4

>  <SCORE.INTER.SOLV>
16.8791

>  <SCORE.INTER.VDW>
-21.69

>  <SCORE.INTER.norm>
-0.61231

>  <SCORE.INTRA>
-4.86861

>  <SCORE.INTRA.DIHEDRAL>
-11.6735

>  <SCORE.INTRA.DIHEDRAL.0>
13.2525

>  <SCORE.INTRA.POLAR>
0

>  <SCORE.INTRA.POLAR.0>
0

>  <SCORE.INTRA.REPUL>
0

>  <SCORE.INTRA.REPUL.0>
0

>  <SCORE.INTRA.SOLV>
2.51618

>  <SCORE.INTRA.SOLV.lig_0>
-70.7221

>  <SCORE.INTRA.VDW>
-0.289954

>  <SCORE.INTRA.VDW.0>
-1.46337

>  <SCORE.INTRA.norm>
-0.202859

>  <SCORE.RESTR>
0

>  <SCORE.RESTR.CAVITY>
0

>  <SCORE.RESTR.norm>
0

>  <SCORE.SYSTEM>
0

>  <SCORE.SYSTEM.CONST>
0

>  <SCORE.SYSTEM.DIHEDRAL>
0

>  <SCORE.SYSTEM.SOLV>
0

>  <SCORE.SYSTEM.norm>
0

>  <SCORE.heavy>
24

>  <SCORE.norm>
-0.815169

>  <RMSD>
21.170

$$$$
