@<TRIPOS>MOLECULE
3SLQ_rdock.pdb
 1363 1520 0 0 0
SMALL
GASTEIGER

@<TRIPOS>ATOM
      1  P        -10.3270    4.9050   26.4230 P.3    23  G23         0.1280
      2  C5'       -9.6240    7.4020   26.8110 C.3    23  G23         0.1795
      3  O5'       -9.3040    6.0250   26.9150 O.3    23  G23        -0.3259
      4  C4'       -8.6110    8.2600   27.5230 C.3    23  G23         0.1772
      5  O4'       -8.5060    7.8620   28.9210 O.3    23  G23        -0.3307
      6  C3'       -7.1820    8.1600   27.0270 C.3    23  G23         0.1860
      7  O3'       -6.9510    8.8820   25.8280 O.3    23  G23        -0.3112
      8  C2'       -6.4050    8.6910   28.2150 C.3    23  G23         0.2309
      9  O2'       -6.5620   10.0970   28.3080 O.3    23  G23        -0.2156
     10  C1'       -7.1710    8.0450   29.3690 C.3    23  G23         0.2408
     11  N1        -3.3890    5.2830   31.5850 N.ar   23  G23        -0.1709
     12  C2        -3.5400    6.6450   31.5230 C.ar   23  G23         0.2606
     13  N2        -2.5660    7.3510   32.1090 N.pl3  23  G23        -0.0859
     14  N3        -4.5560    7.2710   30.9420 N.ar   23  G23        -0.1918
     15  C4        -5.4410    6.4080   30.4010 C.ar   23  G23         0.1723
     16  C5        -5.3650    5.0280   30.4140 C.ar   23  G23         0.1748
     17  C6        -4.2740    4.3660   31.0430 C.ar   23  G23         0.3023
     18  O6        -4.0460    3.1480   31.1480 O.2    23  G23        -0.2633
     19  N7        -6.4470    4.4840   29.7650 N.ar   23  G23        -0.2173
     20  C8        -7.1400    5.5150   29.3700 C.ar   23  G23         0.1817
     21  N9        -6.6030    6.7240   29.7200 N.ar   23  G23        -0.2693
     22  OP1      -10.8980    5.2670   25.0890 O.3    23  G23        -0.1955
     23  OP2       -9.7530    3.5470   26.6250 O.co2  23  G23        -0.7863
     24  P         -6.1770    8.1840   24.6000 P.3    24  C24         0.2141
     25  C5'       -4.0640    9.5040   25.4270 C.3    24  C24         0.1812
     26  O5'       -4.6470    8.2620   25.0510 O.3    24  C24        -0.3114
     27  C4'       -2.8770    9.3230   26.3530 C.3    24  C24         0.1773
     28  O4'       -3.2650    8.5870   27.5460 O.3    24  C24        -0.3307
     29  C3'       -1.7020    8.5250   25.8100 C.3    24  C24         0.1860
     30  O3'       -0.9000    9.2620   24.9110 O.3    24  C24        -0.3112
     31  C2'       -0.9730    8.1230   27.0890 C.3    24  C24         0.2309
     32  O2'       -0.2190    9.2080   27.6080 O.3    24  C24        -0.2156
     33  C1'       -2.1490    7.8510   28.0310 C.3    24  C24         0.2420
     34  N1        -2.4890    6.4190   28.0520 N.ar   24  C24        -0.2535
     35  C2        -1.5650    5.6060   28.6910 C.ar   24  C24         0.3532
     36  O2        -0.5850    6.1550   29.2120 O.2    24  C24        -0.2443
     37  N3        -1.7710    4.2760   28.7340 N.ar   24  C24        -0.1739
     38  C4        -2.8540    3.7630   28.1490 C.ar   24  C24         0.1759
     39  N4        -3.0210    2.4420   28.2120 N.pl3  24  C24        -0.1070
     40  C5        -3.8110    4.5730   27.4680 C.ar   24  C24         0.0566
     41  C6        -3.5880    5.8920   27.4330 C.ar   24  C24         0.0850
     42  OP1       -6.3990    9.0420   23.4050 O.2    24  C24        -0.5172
     43  OP2       -6.6180    6.7630   24.5530 O.co2  24  C24        -0.4373
     44  P         -0.3490    8.5840   23.5560 P.3    25  C25         0.2141
     45  C5'        1.9850    8.3280   24.6770 C.3    25  C25         0.1812
     46  O5'        0.8640    7.7060   24.0790 O.3    25  C25        -0.3114
     47  C4'        2.8630    7.3270   25.3630 C.3    25  C25         0.1773
     48  O4'        2.1370    6.6920   26.4510 O.3    25  C25        -0.3307
     49  C3'        3.3200    6.1550   24.5220 C.3    25  C25         0.1860
     50  O3'        4.3720    6.4850   23.6350 O.3    25  C25        -0.3112
     51  C2'        3.7150    5.1500   25.5900 C.3    25  C25         0.2309
     52  O2'        4.9380    5.5250   26.1940 O.3    25  C25        -0.2156
     53  C1'        2.6020    5.3660   26.6110 C.3    25  C25         0.2420
     54  N1         1.4790    4.4370   26.3970 N.ar   25  C25        -0.2535
     55  C2         1.6900    3.1130   26.7760 C.ar   25  C25         0.3532
     56  O2         2.7800    2.8070   27.2620 O.2    25  C25        -0.2443
     57  N3         0.7150    2.2090   26.6030 N.ar   25  C25        -0.1739
     58  C4        -0.4370    2.6080   26.0590 C.ar   25  C25         0.1759
     59  N4        -1.3800    1.6800   25.9060 N.pl3  25  C25        -0.1070
     60  C5        -0.6860    3.9540   25.6410 C.ar   25  C25         0.0566
     61  C6         0.3000    4.8380   25.8240 C.ar   25  C25         0.0850
     62  OP1        0.1580    9.6840   22.7110 O.2    25  C25        -0.5172
     63  OP2       -1.4250    7.7030   23.0140 O.co2  25  C25        -0.4373
     64  P          4.3620    5.9400   22.1150 P.3    26  U26         0.2141
     65  C5'        6.4600    4.7820   23.1660 C.3    26  U26         0.1812
     66  O5'        5.4720    4.8000   22.1450 O.3    26  U26        -0.3114
     67  C4'        6.8410    3.3750   23.5590 C.3    26  U26         0.1773
     68  O4'        5.9140    2.8610   24.5470 O.3    26  U26        -0.3307
     69  C3'        6.8110    2.3310   22.4490 C.3    26  U26         0.1860
     70  O3'        7.9550    2.3790   21.6140 O.3    26  U26        -0.3112
     71  C2'        6.6810    1.0260   23.2260 C.3    26  U26         0.2309
     72  O2'        7.9490    0.6090   23.7270 O.3    26  U26        -0.2156
     73  C1'        5.8050    1.4570   24.4110 C.3    26  U26         0.2420
     74  N1         4.3840    1.1040   24.2200 N.ar   26  U26        -0.2534
     75  C2         3.9770   -0.1070   24.7480 C.ar   26  U26         0.3546
     76  O2         4.7230   -0.8700   25.3300 O.2    26  U26        -0.2443
     77  N3         2.6590   -0.4130   24.5850 N.ar   26  U26        -0.1530
     78  C4         1.7220    0.3660   23.9620 C.ar   26  U26         0.2846
     79  O4         0.5760   -0.0630   23.9100 O.2    26  U26        -0.2650
     80  C5         2.2060    1.6120   23.4400 C.ar   26  U26         0.0814
     81  C6         3.4960    1.9380   23.5870 C.ar   26  U26         0.0870
     82  OP1        4.8040    7.0610   21.2590 O.2    26  U26        -0.5172
     83  OP2        3.0320    5.3370   21.8690 O.co2  26  U26        -0.4373
     84  P          7.8930    1.7960   20.1190 P.3    27  U27         0.2141
     85  C5'        8.8490   -0.4750   20.9960 C.3    27  U27         0.1812
     86  O5'        7.7950    0.2230   20.3500 O.3    27  U27        -0.3114
     87  C4'        8.4830   -1.9120   21.2800 C.3    27  U27         0.1773
     88  O4'        7.4330   -1.9770   22.2870 O.3    27  U27        -0.3307
     89  C3'        7.9270   -2.7070   20.1100 C.3    27  U27         0.1860
     90  O3'        8.9410   -3.1730   19.2260 O.3    27  U27        -0.3112
     91  C2'        7.1610   -3.8240   20.8110 C.3    27  U27         0.2309
     92  O2'        8.0530   -4.8330   21.2640 O.3    27  U27        -0.2156
     93  C1'        6.5970   -3.0860   22.0350 C.3    27  U27         0.2420
     94  N1         5.2280   -2.5950   21.7940 N.ar   27  U27        -0.2534
     95  C2         4.1840   -3.4580   22.0610 C.ar   27  U27         0.3546
     96  O2         4.3660   -4.5840   22.5030 O.2    27  U27        -0.2443
     97  N3         2.9290   -2.9550   21.7960 N.ar   27  U27        -0.1530
     98  C4         2.6430   -1.6950   21.3160 C.ar   27  U27         0.2846
     99  O4         1.4780   -1.3690   21.1350 O.2    27  U27        -0.2650
    100  C5         3.7770   -0.8630   21.0710 C.ar   27  U27         0.0814
    101  C6         5.0020   -1.3320   21.3080 C.ar   27  U27         0.0870
    102  OP1        9.1830    2.1260   19.4810 O.2    27  U27        -0.5172
    103  OP2        6.6430    2.2970   19.5000 O.co2  27  U27        -0.4373
    104  P          8.6000   -3.4770   17.6840 P.3    28  A28         0.2141
    105  C5'        8.0770   -5.9460   18.3470 C.3    28  A28         0.1812
    106  O5'        7.6230   -4.7290   17.7830 O.3    28  A28        -0.3114
    107  C4'        7.0100   -7.0050   18.3080 C.3    28  A28         0.1773
    108  O4'        6.0230   -6.7570   19.3460 O.3    28  A28        -0.3307
    109  C3'        6.1890   -7.0800   17.0340 C.3    28  A28         0.1860
    110  O3'        6.8570   -7.7560   15.9800 O.3    28  A28        -0.3112
    111  C2'        4.9260   -7.7780   17.5140 C.3    28  A28         0.2309
    112  O2'        5.1540   -9.1660   17.7080 O.3    28  A28        -0.2156
    113  C1'        4.7420   -7.1210   18.8810 C.3    28  A28         0.2408
    114  N1         0.0150   -5.2230   18.8860 N.ar   28  A28        -0.2040
    115  C2         0.4930   -6.4660   19.0630 C.ar   28  A28         0.2016
    116  N3         1.7570   -6.8920   19.0580 N.ar   28  A28        -0.2048
    117  C4         2.5780   -5.8590   18.8360 C.ar   28  A28         0.1692
    118  C5         2.2470   -4.5360   18.6280 C.ar   28  A28         0.1518
    119  C6         0.8880   -4.2140   18.6600 C.ar   28  A28         0.1919
    120  N6         0.4310   -2.9720   18.4840 N.pl3  28  A28        -0.1054
    121  N7         3.3780   -3.7620   18.4210 N.ar   28  A28        -0.2193
    122  C8         4.3600   -4.6260   18.5070 C.ar   28  A28         0.1816
    123  N9         3.9330   -5.9040   18.7690 N.ar   28  A28        -0.2693
    124  OP1        9.8690   -3.8760   17.0280 O.2    28  A28        -0.5172
    125  OP2        7.8680   -2.3040   17.1510 O.co2  28  A28        -0.4373
    126  P          6.5310   -7.3980   14.4410 P.3    29  U29         0.2141
    127  C5'        4.7630   -9.3270   14.4040 C.3    29  U29         0.1812
    128  O5'        5.0380   -7.9410   14.2640 O.3    29  U29        -0.3114
    129  C4'        3.2890   -9.6270   14.3220 C.3    29  U29         0.1773
    130  O4'        2.5840   -8.9400   15.3800 O.3    29  U29        -0.3307
    131  C3'        2.5760   -9.1770   13.0560 C.3    29  U29         0.1860
    132  O3'        2.7760  -10.0580   11.9630 O.3    29  U29        -0.3112
    133  C2'        1.1230   -9.0900   13.5070 C.3    29  U29         0.2309
    134  O2'        0.5200  -10.3740   13.5180 O.3    29  U29        -0.2156
    135  C1'        1.2800   -8.6110   14.9490 C.3    29  U29         0.2420
    136  N1         1.1000   -7.1570   15.0630 N.ar   29  U29        -0.2534
    137  C2        -0.1680   -6.7600   15.4000 C.ar   29  U29         0.3546
    138  O2        -1.0620   -7.5640   15.5850 O.2    29  U29        -0.2443
    139  N3        -0.3430   -5.4070   15.5060 N.ar   29  U29        -0.1530
    140  C4         0.6160   -4.4400   15.3060 C.ar   29  U29         0.2846
    141  O4         0.2920   -3.2600   15.4420 O.2    29  U29        -0.2650
    142  C5         1.9190   -4.9340   14.9540 C.ar   29  U29         0.0814
    143  C6         2.1160   -6.2540   14.8440 C.ar   29  U29         0.0870
    144  OP1        7.4650   -8.1970   13.6060 O.2    29  U29        -0.5172
    145  OP2        6.5550   -5.9140   14.3160 O.co2  29  U29        -0.4373
    146  P          2.6030   -9.5260   10.4550 P.3    30  A30         0.2141
    147  C5'       -0.0040   -9.9270   10.4900 C.3    30  A30         0.1812
    148  O5'        1.0850   -9.0090   10.4270 O.3    30  A30        -0.3114
    149  C4'       -1.3390   -9.2480   10.2480 C.3    30  A30         0.1773
    150  O4'       -1.6720   -8.3780   11.3590 O.3    30  A30        -0.3307
    151  C3'       -1.4210   -8.3510    9.0240 C.3    30  A30         0.1860
    152  O3'       -1.6840   -9.0790    7.8390 O.3    30  A30        -0.3112
    153  C2'       -2.5280   -7.3640    9.3800 C.3    30  A30         0.2309
    154  O2'       -3.8030   -7.9110    9.0810 O.3    30  A30        -0.2156
    155  C1'       -2.3890   -7.2530   10.9000 C.3    30  A30         0.2408
    156  N1        -2.7680   -2.3920   12.5970 N.ar   30  A30        -0.2040
    157  C2        -3.6900   -3.3190   12.2890 C.ar   30  A30         0.2016
    158  N3        -3.5230   -4.5680   11.8580 N.ar   30  A30        -0.2048
    159  C4        -2.2190   -4.8540   11.7330 C.ar   30  A30         0.1692
    160  C5        -1.1570   -4.0070   12.0080 C.ar   30  A30         0.1518
    161  C6        -1.4610   -2.7120   12.4630 C.ar   30  A30         0.1919
    162  N6        -0.5410   -1.7920   12.7670 N.pl3  30  A30        -0.1054
    163  N7         0.0460   -4.6420   11.7640 N.ar   30  A30        -0.2193
    164  C8        -0.3100   -5.8340   11.3460 C.ar   30  A30         0.1816
    165  N9        -1.6640   -6.0340   11.3050 N.ar   30  A30        -0.2693
    166  OP1        2.7510  -10.7030    9.5630 O.2    30  A30        -0.5172
    167  OP2        3.5410   -8.3820   10.2850 O.co2  30  A30        -0.4373
    168  P         -0.7230   -8.9100    6.5690 P.3    31  C31         0.2141
    169  C5'        0.9920   -7.0330    6.0150 C.3    31  C31         0.1812
    170  O5'       -0.0490   -7.5010    6.8410 O.3    31  C31        -0.3114
    171  C4'        0.5880   -5.7890    5.2790 C.3    31  C31         0.1773
    172  O4'       -0.8360   -5.8500    4.9290 O.3    31  C31        -0.3307
    173  C3'        0.7680   -4.4870    6.0490 C.3    31  C31         0.1860
    174  O3'        1.0650   -3.4830    5.0970 O.3    31  C31        -0.3112
    175  C2'       -0.6410   -4.2510    6.5920 C.3    31  C31         0.2309
    176  O2'       -0.9060   -2.9280    6.9990 O.3    31  C31        -0.2156
    177  C1'       -1.4510   -4.6540    5.3690 C.3    31  C31         0.2420
    178  N1        -2.9120   -4.8890    5.5990 N.ar   31  C31        -0.2535
    179  C2        -3.7690   -3.7720    5.7010 C.ar   31  C31         0.3532
    180  O2        -3.3060   -2.6250    5.6560 O.2    31  C31        -0.2443
    181  N3        -5.1000   -3.9280    5.8780 N.ar   31  C31        -0.1739
    182  C4        -5.6230   -5.1460    5.9390 C.ar   31  C31         0.1759
    183  N4        -6.9470   -5.2370    6.1220 N.pl3  31  C31        -0.1070
    184  C5        -4.7950   -6.3030    5.8140 C.ar   31  C31         0.0566
    185  C6        -3.4700   -6.1350    5.6370 C.ar   31  C31         0.0850
    186  OP1       -1.5950   -8.8400    5.3720 O.2    31  C31        -0.5172
    187  OP2        0.3060   -9.9780    6.6430 O.co2  31  C31        -0.4373
    188  P          1.7430   -2.1030    5.5260 P.3    32  A32         0.2141
    189  C5'        0.4270   -1.2240    3.3920 C.3    32  A32         0.1812
    190  O5'        1.6380   -1.2490    4.1670 O.3    32  A32        -0.3114
    191  C4'        0.6200   -1.8260    2.0130 C.3    32  A32         0.1773
    192  O4'        0.8190   -3.2510    2.1340 O.3    32  A32        -0.3307
    193  C3'       -0.5520   -1.7140    1.0270 C.3    32  A32         0.1860
    194  O3'       -0.6210   -0.4610    0.3650 O.3    32  A32        -0.3112
    195  C2'       -0.2910   -2.8590    0.0590 C.3    32  A32         0.2309
    196  O2'        0.5810   -2.4460   -0.9690 O.3    32  A32        -0.2156
    197  C1'        0.4440   -3.8790    0.9300 C.3    32  A32         0.2408
    198  N1        -4.2620   -5.7570    1.8450 N.ar   32  A32        -0.2040
    199  C2        -3.8130   -4.5060    1.6430 C.ar   32  A32         0.2016
    200  N3        -2.5790   -4.0600    1.4170 N.ar   32  A32        -0.2048
    201  C4        -1.7350   -5.0900    1.4110 C.ar   32  A32         0.1692
    202  C5        -2.0350   -6.4250    1.6020 C.ar   32  A32         0.1518
    203  C6        -3.3600   -6.7640    1.8270 C.ar   32  A32         0.1919
    204  N6        -3.7310   -8.0270    2.0210 N.pl3  32  A32        -0.1054
    205  N7        -0.9120   -7.2240    1.5250 N.ar   32  A32        -0.2193
    206  C8         0.0430   -6.3590    1.2860 C.ar   32  A32         0.1816
    207  N9        -0.3840   -5.0560    1.2220 N.ar   32  A32        -0.2693
    208  OP1        3.1670   -2.3930    5.8430 O.2    32  A32        -0.5172
    209  OP2        0.8850   -1.5010    6.5700 O.co2  32  A32        -0.4373
    210  P         -1.0480    0.8640    1.1590 P.3    33  G33         0.2141
    211  C5'       -2.5900    1.0210   -0.9740 C.3    33  G33         0.1812
    212  O5'       -2.3630    1.3430    0.3950 O.3    33  G33        -0.3114
    213  C4'       -3.4270   -0.2260   -1.1240 C.3    33  G33         0.1773
    214  O4'       -4.6960   -0.0560   -0.4340 O.3    33  G33        -0.3307
    215  C3'       -3.7700   -0.6030   -2.5600 C.3    33  G33         0.1860
    216  O3'       -3.3810   -1.9370   -2.8320 O.3    33  G33        -0.3112
    217  C2'       -5.2930   -0.4780   -2.6420 C.3    33  G33         0.2309
    218  O2'       -5.9170   -1.4320   -3.4730 O.3    33  G33        -0.2156
    219  C1'       -5.7190   -0.6430   -1.2010 C.3    33  G33         0.2408
    220  N1       -10.5870   -1.3400    0.0060 N.ar   33  G33        -0.1709
    221  C2        -9.5840   -2.2600   -0.1580 C.ar   33  G33         0.2606
    222  N2        -9.9310   -3.5450    0.0170 N.pl3  33  G33        -0.0859
    223  N3        -8.3400   -1.9430   -0.4730 N.ar   33  G33        -0.1918
    224  C4        -8.1680   -0.6140   -0.6080 C.ar   33  G33         0.1723
    225  C5        -9.0930    0.3850   -0.4640 C.ar   33  G33         0.1748
    226  C6       -10.4240    0.0340   -0.1290 C.ar   33  G33         0.3023
    227  O6       -11.3930    0.7770    0.0490 O.2    33  G33        -0.2633
    228  N7        -8.5150    1.6250   -0.6860 N.ar   33  G33        -0.2173
    229  C8        -7.2660    1.3610   -0.9610 C.ar   33  G33         0.1817
    230  N9        -6.9860    0.0200   -0.9030 N.ar   33  G33        -0.2693
    231  OP1        0.0430    1.8530    0.9760 O.2    33  G33        -0.5172
    232  OP2       -1.4050    0.4520    2.5310 O.co2  33  G33        -0.4373
    233  P         -2.5760   -2.2270   -4.1860 P.3    34  G34         0.2141
    234  C5'       -0.9680   -4.2540   -3.9070 C.3    34  G34         0.1812
    235  O5'       -2.2820   -3.7790   -4.1080 O.3    34  G34        -0.3114
    236  C4'       -0.9940   -5.6570   -3.3880 C.3    34  G34         0.1773
    237  O4'       -1.4200   -5.6470   -1.9960 O.3    34  G34        -0.3307
    238  C3'       -1.9910   -6.5850   -4.0730 C.3    34  G34         0.1860
    239  O3'       -1.5020   -7.1230   -5.2940 O.3    34  G34        -0.3112
    240  C2'       -2.2420   -7.6270   -2.9970 C.3    34  G34         0.2309
    241  O2'       -1.1310   -8.5040   -2.8820 O.3    34  G34        -0.2156
    242  C1'       -2.2800   -6.7390   -1.7540 C.3    34  G34         0.2408
    243  N1        -6.9770   -8.0530   -0.6100 N.ar   34  G34        -0.1709
    244  C2        -5.8490   -8.8200   -0.7460 C.ar   34  G34         0.2606
    245  N2        -6.0050  -10.1370   -0.5610 N.pl3  34  G34        -0.0859
    246  N3        -4.6630   -8.3310   -1.0470 N.ar   34  G34        -0.1918
    247  C4        -4.7070   -6.9960   -1.1980 C.ar   34  G34         0.1723
    248  C5        -5.7680   -6.1290   -1.0900 C.ar   34  G34         0.1748
    249  C6        -7.0350   -6.6690   -0.7620 C.ar   34  G34         0.3023
    250  O6        -8.1130   -6.0760   -0.6100 O.2    34  G34        -0.2633
    251  N7        -5.3740   -4.8200   -1.3360 N.ar   34  G34        -0.2173
    252  C8        -4.0940   -4.9200   -1.5890 C.ar   34  G34         0.1817
    253  N9        -3.6360   -6.2160   -1.5120 N.ar   34  G34        -0.2693
    254  OP1       -1.3140   -1.4670   -4.1000 O.3    34  G34        -0.4373
    255  OP2       -3.5060   -1.9490   -5.3080 O.co2  34  G34        -0.5172
    256  P         -2.4140   -7.1320   -6.6230 P.3    35  G35         0.2141
    257  C5'       -2.8180   -9.6690   -6.1490 C.3    35  G35         0.1812
    258  O5'       -3.3590   -8.3850   -6.3960 O.3    35  G35        -0.3114
    259  C4'       -3.8920  -10.6320   -5.7270 C.3    35  G35         0.1773
    260  O4'       -4.4060  -10.2450   -4.4260 O.3    35  G35        -0.3307
    261  C3'       -5.1190  -10.6800   -6.6250 C.3    35  G35         0.1860
    262  O3'       -4.9500  -11.5380   -7.7360 O.3    35  G35        -0.3112
    263  C2'       -6.2210  -11.1320   -5.6860 C.3    35  G35         0.2309
    264  O2'       -6.1920  -12.5420   -5.5320 O.3    35  G35        -0.2156
    265  C1'       -5.7960  -10.4770   -4.3660 C.3    35  G35         0.2408
    266  N1       -10.2250   -8.0350   -3.7310 N.ar   35  G35        -0.1709
    267  C2        -9.9790   -9.3750   -3.9270 C.ar   35  G35         0.2606
    268  N2       -11.0520  -10.1760   -3.9550 N.pl3  35  G35        -0.0859
    269  N3        -8.7770   -9.9040   -4.0820 N.ar   35  G35        -0.1918
    270  C4        -7.8220   -8.9610   -4.0180 C.ar   35  G35         0.1723
    271  C5        -7.9600   -7.5990   -3.8330 C.ar   35  G35         0.1748
    272  C6        -9.2510   -7.0460   -3.6720 C.ar   35  G35         0.3023
    273  O6        -9.5660   -5.8620   -3.5000 O.2    35  G35        -0.2633
    274  N7        -6.7250   -6.9730   -3.8500 N.ar   35  G35        -0.2173
    275  C8        -5.8700   -7.9480   -4.0400 C.ar   35  G35         0.1817
    276  N9        -6.4720   -9.1830   -4.1470 N.ar   35  G35        -0.2693
    277  OP1       -1.4970   -7.3840   -7.7560 O.2    35  G35        -0.5172
    278  OP2       -3.2290   -5.8890   -6.6310 O.co2  35  G35        -0.4373
    279  P         -5.3660  -11.0510   -9.2070 P.3    36  U36         0.2141
    280  C5'       -7.5150  -12.5510   -9.0460 C.3    36  U36         0.1812
    281  O5'       -6.9490  -11.2590   -9.2280 O.3    36  U36        -0.3114
    282  C4'       -9.0200  -12.4930   -8.9770 C.3    36  U36         0.1773
    283  O4'       -9.4360  -11.9550   -7.6940 O.3    36  U36        -0.3307
    284  C3'       -9.6870  -11.5820   -9.9830 C.3    36  U36         0.1860
    285  O3'       -9.8320  -12.1660  -11.2540 O.3    36  U36        -0.3112
    286  C2'      -11.0070  -11.2500   -9.3080 C.3    36  U36         0.2309
    287  O2'      -11.9070  -12.3470   -9.3910 O.3    36  U36        -0.2156
    288  C1'      -10.5540  -11.1090   -7.8660 C.3    36  U36         0.2420
    289  N1       -10.1380   -9.7240   -7.5660 N.ar   36  U36        -0.2534
    290  C2       -11.0690   -8.8870   -6.9770 C.ar   36  U36         0.3546
    291  O2       -12.2040   -9.2510   -6.7070 O.2    36  U36        -0.2443
    292  N3       -10.6180   -7.6070   -6.7240 N.ar   36  U36        -0.1530
    293  C4        -9.3630   -7.0890   -6.9930 C.ar   36  U36         0.2846
    294  O4        -9.1110   -5.9150   -6.7040 O.2    36  U36        -0.2650
    295  C5        -8.4600   -8.0180   -7.6120 C.ar   36  U36         0.0814
    296  C6        -8.8690   -9.2690   -7.8740 C.ar   36  U36         0.0870
    297  OP1       -4.7240  -11.9810  -10.1600 O.2    36  U36        -0.5172
    298  OP2       -5.0430   -9.6030   -9.2950 O.co2  36  U36        -0.4373
    299  P        -10.0970  -11.2260  -12.5210 P.3    37  A37         0.2141
    300  C5'      -12.6970  -11.5600  -12.4940 C.3    37  A37         0.1812
    301  O5'      -11.5810  -10.7110  -12.2850 O.3    37  A37        -0.3114
    302  C4'      -13.9740  -10.8670  -12.1070 C.3    37  A37         0.1773
    303  O4'      -13.9030  -10.4850  -10.7080 O.3    37  A37        -0.3307
    304  C3'      -14.2470   -9.5520  -12.8160 C.3    37  A37         0.1860
    305  O3'      -14.7950   -9.6950  -14.1080 O.3    37  A37        -0.3112
    306  C2'      -15.1630   -8.8360  -11.8400 C.3    37  A37         0.2309
    307  O2'      -16.4680   -9.3980  -11.8770 O.3    37  A37        -0.2156
    308  C1'      -14.5170   -9.2210  -10.5220 C.3    37  A37         0.2408
    309  N1       -13.5850   -4.5060   -8.6040 N.ar   37  A37        -0.2040
    310  C2       -14.7130   -5.1550   -8.9060 C.ar   37  A37         0.2016
    311  N3       -14.8840   -6.3770   -9.4100 N.ar   37  A37        -0.2048
    312  C4       -13.7050   -6.9830   -9.6130 C.ar   37  A37         0.1692
    313  C5       -12.4580   -6.4460   -9.3500 C.ar   37  A37         0.1518
    314  C6       -12.4160   -5.1400   -8.8220 C.ar   37  A37         0.1919
    315  N6       -11.2870   -4.4930   -8.5270 N.pl3  37  A37        -0.1054
    316  N7       -11.4610   -7.3540   -9.6830 N.ar   37  A37        -0.2193
    317  C8       -12.1220   -8.4010  -10.1250 C.ar   37  A37         0.1816
    318  N9       -13.4860   -8.2480  -10.1120 N.ar   37  A37        -0.2693
    319  OP1      -10.0490  -12.0940  -13.7250 O.2    37  A37        -0.5172
    320  OP2       -9.1520  -10.0890  -12.4190 O.co2  37  A37        -0.4373
    321  P        -14.8620   -8.4170  -15.0760 P.3    38  G38         0.2141
    322  C5'      -17.2920   -7.5540  -14.5740 C.3    38  G38         0.1812
    323  O5'      -15.8960   -7.4590  -14.3260 O.3    38  G38        -0.3114
    324  C4'      -18.0360   -6.4010  -13.9550 C.3    38  G38         0.1773
    325  O4'      -17.5790   -6.2230  -12.5890 O.3    38  G38        -0.3307
    326  C3'      -17.8020   -5.0390  -14.6000 C.3    38  G38         0.1860
    327  O3'      -18.6110   -4.8030  -15.7330 O.3    38  G38        -0.3112
    328  C2'      -18.0650   -4.0800  -13.4620 C.3    38  G38         0.2309
    329  O2'      -19.4640   -3.9620  -13.2290 O.3    38  G38        -0.2156
    330  C1'      -17.4380   -4.8490  -12.2990 C.3    38  G38         0.2408
    331  N1       -14.0570   -1.3350  -10.9250 N.ar   38  G38        -0.1709
    332  C2       -15.4370   -1.2810  -10.9380 C.ar   38  G38         0.2606
    333  N2       -16.0260   -0.1390  -10.5450 N.pl3  38  G38        -0.0859
    334  N3       -16.1990   -2.2880  -11.3170 N.ar   38  G38        -0.1918
    335  C4       -15.4660   -3.3600  -11.6930 C.ar   38  G38         0.1723
    336  C5       -14.0960   -3.5210  -11.7230 C.ar   38  G38         0.1748
    337  C6       -13.2830   -2.4360  -11.3010 C.ar   38  G38         0.3023
    338  O6       -12.0390   -2.3880  -11.2380 O.2    38  G38        -0.2633
    339  N7       -13.7530   -4.7920  -12.1700 N.ar   38  G38        -0.2173
    340  C8       -14.9030   -5.3630  -12.4130 C.ar   38  G38         0.1817
    341  N9       -15.9900   -4.5480  -12.1460 N.ar   38  G38        -0.2693
    342  OP1      -15.4310   -8.8660  -16.3750 O.2    38  G38        -0.5172
    343  OP2      -13.5120   -7.8040  -15.0640 O.co2  38  G38        -0.4373
    344  P        -17.9230   -4.3330  -17.0980 P.3    39  C39         0.2141
    345  C5'      -18.9770   -1.9990  -16.5590 C.3    39  C39         0.1812
    346  O5'      -17.8420   -2.7500  -16.9360 O.3    39  C39        -0.3114
    347  C4'      -18.5880   -0.7230  -15.8550 C.3    39  C39         0.1773
    348  O4'      -17.8560   -1.0140  -14.6320 O.3    39  C39        -0.3307
    349  C3'      -17.6410    0.1860  -16.5970 C.3    39  C39         0.1860
    350  O3'      -18.2460    0.8970  -17.6550 O.3    39  C39        -0.3112
    351  C2'      -17.1220    1.0770  -15.4800 C.3    39  C39         0.2309
    352  O2'      -18.0960    2.0310  -15.1110 O.3    39  C39        -0.2156
    353  C1'      -16.9770    0.0650  -14.3480 C.3    39  C39         0.2420
    354  N1       -15.6020   -0.4450  -14.2760 N.ar   39  C39        -0.2535
    355  C2       -14.6090    0.3930  -13.7460 C.ar   39  C39         0.3532
    356  O2       -14.8880    1.5210  -13.3180 O.2    39  C39        -0.2443
    357  N3       -13.3350   -0.0430  -13.7080 N.ar   39  C39        -0.1739
    358  C4       -13.0310   -1.2500  -14.1750 C.ar   39  C39         0.1759
    359  N4       -11.7540   -1.6170  -14.0920 N.pl3  39  C39        -0.1070
    360  C5       -14.0150   -2.1190  -14.7300 C.ar   39  C39         0.0566
    361  C6       -15.2810   -1.6750  -14.7730 C.ar   39  C39         0.0850
    362  OP1      -18.8500   -4.6850  -18.2000 O.2    39  C39        -0.5172
    363  OP2      -16.5510   -4.9090  -17.1000 O.co2  39  C39        -0.4373
    364  P        -17.3550    1.3280  -18.9040 P.3    40  A40         0.2141
    365  C5'      -16.9420    3.7580  -18.0490 C.3    40  A40         0.1812
    366  O5'      -16.4290    2.4660  -18.3050 O.3    40  A40        -0.3114
    367  C4'      -15.9150    4.6230  -17.3780 C.3    40  A40         0.1773
    368  O4'      -15.3530    3.9270  -16.2270 O.3    40  A40        -0.3307
    369  C3'      -14.7100    4.9690  -18.2230 C.3    40  A40         0.1860
    370  O3'      -14.9570    6.0450  -19.0980 O.3    40  A40        -0.3112
    371  C2'      -13.6290    5.2490  -17.1890 C.3    40  A40         0.2309
    372  O2'      -13.7700    6.5580  -16.6650 O.3    40  A40        -0.2156
    373  C1'      -13.9830    4.2390  -16.0910 C.3    40  A40         0.2408
    374  N1        -9.3550    2.0260  -15.5600 N.ar   40  A40        -0.2040
    375  C2        -9.7880    3.2690  -15.3310 C.ar   40  A40         0.2016
    376  N3       -11.0140    3.7770  -15.4810 N.ar   40  A40        -0.2048
    377  C4       -11.8680    2.8360  -15.9370 C.ar   40  A40         0.1692
    378  C5       -11.5610    1.5130  -16.2170 C.ar   40  A40         0.1518
    379  C6       -10.2290    1.1090  -16.0070 C.ar   40  A40         0.1919
    380  N6        -9.7820   -0.1250  -16.2130 N.pl3  40  A40        -0.1054
    381  N7       -12.6890    0.8400  -16.6570 N.ar   40  A40        -0.2193
    382  C8       -13.6280    1.7580  -16.6390 C.ar   40  A40         0.1816
    383  N9       -13.2050    2.9910  -16.2150 N.ar   40  A40        -0.2693
    384  OP1      -18.2700    1.9130  -19.9280 O.2    40  A40        -0.5172
    385  OP2      -16.5360    0.1420  -19.2650 O.co2  40  A40        -0.4373
    386  P        -14.6840    5.8610  -20.6600 P.3    41  U41         0.2141
    387  C5'      -12.3370    7.0000  -20.3620 C.3    41  U41         0.1812
    388  O5'      -13.0950    5.8590  -20.7300 O.3    41  U41        -0.3114
    389  C4'      -10.9510    6.9240  -20.9470 C.3    41  U41         0.1773
    390  O4'      -10.2480    5.8060  -20.3280 O.3    41  U41        -0.3307
    391  C3'      -10.9090    6.6670  -22.4540 C.3    41  U41         0.1860
    392  O3'       -9.7530    7.2880  -23.0220 O.3    41  U41        -0.3112
    393  C2'      -10.7610    5.1510  -22.5190 C.3    41  U41         0.2309
    394  O2'      -10.1970    4.6590  -23.7180 O.3    41  U41        -0.2156
    395  C1'       -9.8600    4.8800  -21.3170 C.3    41  U41         0.2420
    396  N1        -9.9890    3.5100  -20.7690 N.ar   41  U41        -0.2534
    397  C2        -8.8490    2.7500  -20.7720 C.ar   41  U41         0.3546
    398  O2        -7.8000    3.2150  -21.1620 O.2    41  U41        -0.2443
    399  N3        -8.9650    1.4640  -20.3040 N.ar   41  U41        -0.1530
    400  C4       -10.1180    0.8570  -19.8390 C.ar   41  U41         0.2846
    401  O4       -10.0880   -0.3140  -19.4370 O.2    41  U41        -0.2650
    402  C5       -11.2700    1.7030  -19.8920 C.ar   41  U41         0.0814
    403  C6       -11.1740    2.9620  -20.3580 C.ar   41  U41         0.0870
    404  OP1      -15.2260    7.0620  -21.3420 O.2    41  U41        -0.5172
    405  OP2      -15.2030    4.5110  -21.0490 O.co2  41  U41        -0.4373
    406  P         -9.7790    8.8490  -23.4210 P.3    42  A42         0.2141
    407  C5'       -8.3390   10.4040  -21.8870 C.3    42  A42         0.1812
    408  O5'       -9.4700    9.5700  -22.0420 O.3    42  A42        -0.3114
    409  C4'       -7.9760   10.5660  -20.4320 C.3    42  A42         0.1773
    410  O4'       -8.2720    9.3380  -19.7070 O.3    42  A42        -0.3307
    411  C3'       -6.5090   10.8180  -20.1530 C.3    42  A42         0.1860
    412  O3'       -6.1420   12.1760  -20.3110 O.3    42  A42        -0.3112
    413  C2'       -6.3330   10.2890  -18.7340 C.3    42  A42         0.2309
    414  O2'       -6.8200   11.2280  -17.7860 O.3    42  A42        -0.2156
    415  C1'       -7.2680    9.0860  -18.7470 C.3    42  A42         0.2408
    416  N1        -3.7150    5.4590  -17.5360 N.ar   42  A42        -0.2040
    417  C2        -4.0870    6.5790  -16.9110 C.ar   42  A42         0.2016
    418  N3        -4.9970    7.4770  -17.2750 N.ar   42  A42        -0.2048
    419  C4        -5.5850    7.1430  -18.4370 C.ar   42  A42         0.1692
    420  C5        -5.3040    6.0150  -19.1920 C.ar   42  A42         0.1518
    421  C6        -4.3080    5.1400  -18.7060 C.ar   42  A42         0.1919
    422  N6        -3.9160    4.0130  -19.3170 N.pl3  42  A42        -0.1054
    423  N7        -6.1000    5.9850  -20.3340 N.ar   42  A42        -0.2193
    424  C8        -6.8270    7.0730  -20.2420 C.ar   42  A42         0.1816
    425  N9        -6.5740    7.8320  -19.1170 N.ar   42  A42        -0.2693
    426  OP1      -11.1520    9.1730  -23.8430 O.3    42  A42        -0.4373
    427  OP2       -8.6710    9.0760  -24.3750 O.co2  42  A42        -0.5172
    428  P         -4.9730   12.5620  -21.3350 P.3    43  A43         0.2141
    429  C5'       -3.5450   12.8770  -19.1440 C.3    43  A43         0.1812
    430  O5'       -3.6490   12.3600  -20.4630 O.3    43  A43        -0.3114
    431  C4'       -2.1120   12.8850  -18.6680 C.3    43  A43         0.1773
    432  O4'       -1.6990   11.5280  -18.3290 O.3    43  A43        -0.3307
    433  C3'       -1.0980   13.3960  -19.6840 C.3    43  A43         0.1860
    434  O3'       -0.0580   14.0770  -18.9960 O.3    43  A43        -0.3112
    435  C2'       -0.5370   12.1130  -20.2810 C.3    43  A43         0.2309
    436  O2'        0.7600   12.2500  -20.8160 O.3    43  A43        -0.2156
    437  C1'       -0.5470   11.1770  -19.0760 C.3    43  A43         0.2408
    438  N1         1.8460    6.5410  -19.8820 N.ar   43  A43        -0.2040
    439  C2         2.3260    7.7420  -19.5250 C.ar   43  A43         0.2016
    440  N3         1.6900    8.9050  -19.3310 N.ar   43  A43        -0.2048
    441  C4         0.3640    8.7840  -19.5300 C.ar   43  A43         0.1692
    442  C5        -0.2620    7.6090  -19.9000 C.ar   43  A43         0.1518
    443  C6         0.5100    6.4510  -20.0860 C.ar   43  A43         0.1919
    444  N6        -0.0130    5.2740  -20.4510 N.pl3  43  A43        -0.1054
    445  N7        -1.6120    7.8140  -20.0360 N.ar   43  A43        -0.2193
    446  C8        -1.7740    9.0800  -19.7490 C.ar   43  A43         0.1816
    447  N9        -0.6330    9.7490  -19.4240 N.ar   43  A43        -0.2693
    448  OP1       -5.1430   13.9940  -21.6810 O.3    43  A43        -0.4373
    449  OP2       -5.0120   11.5600  -22.4190 O.co2  43  A43        -0.5172
    450  P          0.1390   15.6560  -19.1910 P.3    44  U44         0.2141
    451  C5'        0.2700   15.7280  -16.5610 C.3    44  U44         0.1812
    452  O5'       -0.2850   16.2460  -17.7720 O.3    44  U44        -0.3114
    453  C4'       -0.4900   16.2230  -15.3540 C.3    44  U44         0.1773
    454  O4'       -0.5470   17.6750  -15.3990 O.3    44  U44        -0.3307
    455  C3'       -1.9390   15.7710  -15.2880 C.3    44  U44         0.1860
    456  O3'       -2.3900   15.8570  -13.9350 O.3    44  U44        -0.3112
    457  C2'       -2.6250   16.8510  -16.1110 C.3    44  U44         0.2309
    458  O2'       -4.0190   16.9510  -15.9150 O.3    44  U44        -0.2156
    459  C1'       -1.8850   18.0910  -15.6160 C.3    44  U44         0.2420
    460  N1        -1.8640   19.2030  -16.5800 N.ar   44  U44        -0.2534
    461  C2        -2.9150   20.1070  -16.5620 C.ar   44  U44         0.3546
    462  O2        -3.8660   20.0190  -15.8000 O.2    44  U44        -0.2443
    463  N3        -2.8080   21.1220  -17.4850 N.ar   44  U44        -0.1530
    464  C4        -1.7820   21.3150  -18.3930 C.ar   44  U44         0.2846
    465  O4        -1.8260   22.2790  -19.1560 O.2    44  U44        -0.2650
    466  C5        -0.7360   20.3370  -18.3450 C.ar   44  U44         0.0814
    467  C6        -0.8100   19.3390  -17.4580 C.ar   44  U44         0.0870
    468  OP1       -0.8240   16.0940  -20.2220 O.2    44  U44        -0.5172
    469  OP2        1.5890   15.8810  -19.4180 O.co2  44  U44        -0.4373
    470  P         -2.0270   14.7060  -12.8740 P.3    45  G45         0.2141
    471  C5'       -3.9630   13.3270  -13.9490 C.3    45  G45         0.1812
    472  O5'       -2.6060   13.4010  -13.5650 O.3    45  G45        -0.3114
    473  C4'       -4.2580   12.0140  -14.6100 C.3    45  G45         0.1773
    474  O4'       -3.4490   11.8740  -15.8050 O.3    45  G45        -0.3307
    475  C3'       -3.9160   10.7840  -13.7960 C.3    45  G45         0.1860
    476  O3'       -4.9040   10.4790  -12.8390 O.3    45  G45        -0.3112
    477  C2'       -3.7590    9.7250  -14.8720 C.3    45  G45         0.2309
    478  O2'       -5.0250    9.3420  -15.3860 O.3    45  G45        -0.2156
    479  C1'       -3.0430   10.5270  -15.9490 C.3    45  G45         0.2408
    480  N1         1.0000    7.5090  -16.3510 N.ar   45  G45        -0.1709
    481  C2        -0.3120    7.2480  -16.5630 C.ar   45  G45         0.2606
    482  N2        -0.5930    5.9980  -16.9440 N.pl3  45  G45        -0.0859
    483  N3        -1.2740    8.1320  -16.4210 N.ar   45  G45        -0.1918
    484  C4        -0.8060    9.3290  -16.0380 C.ar   45  G45         0.1723
    485  C5         0.4920    9.6960  -15.8030 C.ar   45  G45         0.1748
    486  C6         1.5130    8.7260  -15.9640 C.ar   45  G45         0.3023
    487  O6         2.7350    8.8120  -15.8030 O.2    45  G45        -0.2633
    488  N7         0.5390   11.0300  -15.4260 N.ar   45  G45        -0.2173
    489  C8        -0.7010   11.4440  -15.4400 C.ar   45  G45         0.1817
    490  N9        -1.5730   10.4510  -15.8050 N.ar   45  G45        -0.2693
    491  OP1       -2.7910   14.9980  -11.6320 O.3    45  G45        -0.4373
    492  OP2       -0.5450   14.6200  -12.7950 O.co2  45  G45        -0.5172
    493  P         -4.5110    9.7670  -11.4540 P.3    46  G46         0.2141
    494  C5'       -4.9370    7.4920  -12.6380 C.3    46  G46         0.1812
    495  O5'       -4.0430    8.3310  -11.9310 O.3    46  G46        -0.3114
    496  C4'       -4.3090    6.1730  -12.9720 C.3    46  G46         0.1773
    497  O4'       -3.2010    6.3720  -13.8600 O.3    46  G46        -0.3307
    498  C3'       -3.7070    5.4060  -11.8170 C.3    46  G46         0.1860
    499  O3'       -4.6810    4.7420  -11.0450 O.3    46  G46        -0.3112
    500  C2'       -2.7520    4.4620  -12.5200 C.3    46  G46         0.2309
    501  O2'       -3.4520    3.3340  -13.0120 O.3    46  G46        -0.2156
    502  C1'       -2.2890    5.3120  -13.7110 C.3    46  G46         0.2408
    503  N1         2.7590    4.5000  -13.8250 N.ar   46  G46        -0.1709
    504  C2         1.7280    3.6320  -14.1270 C.ar   46  G46         0.2606
    505  N2         2.1110    2.3930  -14.4910 N.pl3  46  G46        -0.0859
    506  N3         0.4300    3.9510  -14.0760 N.ar   46  G46        -0.1918
    507  C4         0.2570    5.2350  -13.6860 C.ar   46  G46         0.1723
    508  C5         1.2180    6.1830  -13.3610 C.ar   46  G46         0.1748
    509  C6         2.6020    5.8290  -13.4250 C.ar   46  G46         0.3023
    510  O6         3.5980    6.5370  -13.1750 O.2    46  G46        -0.2633
    511  N7         0.6190    7.3930  -13.0060 N.ar   46  G46        -0.2173
    512  C8        -0.6580    7.1600  -13.1120 C.ar   46  G46         0.1817
    513  N9        -0.9450    5.8760  -13.5050 N.ar   46  G46        -0.2693
    514  OP1       -5.7630    9.6540  -10.6750 O.3    46  G46        -0.4373
    515  OP2       -3.3630   10.5090  -10.8760 O.co2  46  G46        -0.5172
    516  P         -4.5460    4.6840   -9.4440 P.3    47  G47         0.2141
    517  C5'       -6.1320    6.7490   -9.1140 C.3    47  G47         0.1812
    518  O5'       -5.9080    5.3540   -8.9480 O.3    47  G47        -0.3114
    519  C4'       -7.5680    7.0510   -9.4620 C.3    47  G47         0.1773
    520  O4'       -7.8240    6.7270  -10.8510 O.3    47  G47        -0.3307
    521  C3'       -8.6180    6.2620   -8.7000 C.3    47  G47         0.1860
    522  O3'       -8.8790    6.7910   -7.4120 O.3    47  G47        -0.3112
    523  C2'       -9.8070    6.3300   -9.6390 C.3    47  G47         0.2309
    524  O2'      -10.4130    7.6110   -9.5820 O.3    47  G47        -0.2156
    525  C1'       -9.1120    6.1870  -10.9890 C.3    47  G47         0.2408
    526  N1       -11.4690    1.9650  -12.5340 N.ar   47  G47        -0.1709
    527  C2       -12.0100    3.2020  -12.2800 C.ar   47  G47         0.2606
    528  N2       -13.3380    3.3310  -12.4760 N.pl3  47  G47        -0.0859
    529  N3       -11.2860    4.2350  -11.8780 N.ar   47  G47        -0.1918
    530  C4        -9.9770    3.9250  -11.7560 C.ar   47  G47         0.1723
    531  C5        -9.3470    2.7220  -11.9790 C.ar   47  G47         0.1748
    532  C6       -10.1250    1.6240  -12.4070 C.ar   47  G47         0.3023
    533  O6        -9.7450    0.4750  -12.6570 O.2    47  G47        -0.2633
    534  N7        -7.9810    2.8150  -11.7290 N.ar   47  G47        -0.2173
    535  C8        -7.8010    4.0590  -11.3620 C.ar   47  G47         0.1817
    536  N9        -8.9690    4.7790  -11.3680 N.ar   47  G47        -0.2693
    537  OP1       -3.4080    5.5450   -9.0760 O.2    47  G47        -0.5172
    538  OP2       -4.5120    3.2480   -9.0680 O.co2  47  G47        -0.4373
    539  P         -9.3020    5.8120   -6.2010 P.3    48  C48         0.2141
    540  C5'      -11.7960    6.5160   -6.5570 C.3    48  C48         0.1812
    541  O5'      -10.8250    5.4890   -6.5230 O.3    48  C48        -0.3114
    542  C4'      -13.1190    5.9810   -7.0020 C.3    48  C48         0.1773
    543  O4'      -12.9960    5.4560   -8.3450 O.3    48  C48        -0.3307
    544  C3'      -13.6780    4.8160   -6.1880 C.3    48  C48         0.1860
    545  O3'      -14.3460    5.2490   -5.0100 O.3    48  C48        -0.3112
    546  C2'      -14.6000    4.1410   -7.1890 C.3    48  C48         0.2309
    547  O2'      -15.8260    4.8540   -7.2840 O.3    48  C48        -0.2156
    548  C1'      -13.8270    4.3330   -8.5010 C.3    48  C48         0.2420
    549  N1       -12.9800    3.1770   -8.8200 N.ar   48  C48        -0.2535
    550  C2       -13.5630    2.0480   -9.3810 C.ar   48  C48         0.3532
    551  O2       -14.7780    2.0570   -9.6040 O.2    48  C48        -0.2443
    552  N3       -12.7830    0.9850   -9.6670 N.ar   48  C48        -0.1739
    553  C4       -11.4720    1.0270   -9.4110 C.ar   48  C48         0.1759
    554  N4       -10.7450   -0.0490   -9.7070 N.pl3  48  C48        -0.1070
    555  C5       -10.8490    2.1680   -8.8370 C.ar   48  C48         0.0566
    556  C6       -11.6390    3.2140   -8.5560 C.ar   48  C48         0.0850
    557  OP1       -9.2070    6.6080   -4.9550 O.3    48  C48        -0.4373
    558  OP2       -8.4950    4.5770   -6.3260 O.co2  48  C48        -0.5172
    559  P        -14.6100    4.2420   -3.7770 P.3    49  U49         0.2141
    560  C5'      -16.9790    3.3560   -4.4280 C.3    49  U49         0.1812
    561  O5'      -15.5770    3.1470   -4.3960 O.3    49  U49        -0.3114
    562  C4'      -17.6960    2.1660   -5.0060 C.3    49  U49         0.1773
    563  O4'      -17.1440    1.8490   -6.3080 O.3    49  U49        -0.3307
    564  C3'      -17.5740    0.8690   -4.2180 C.3    49  U49         0.1860
    565  O3'      -18.5070    0.7940   -3.1460 O.3    49  U49        -0.3112
    566  C2'      -17.7890   -0.1960   -5.2890 C.3    49  U49         0.2309
    567  O2'      -19.1730   -0.3760   -5.5500 O.3    49  U49        -0.2156
    568  C1'      -17.1420    0.4550   -6.5110 C.3    49  U49         0.2420
    569  N1       -15.7510    0.0090   -6.6970 N.ar   49  U49        -0.2534
    570  C2       -15.5850   -1.2270   -7.2800 C.ar   49  U49         0.3546
    571  O2       -16.5380   -1.9000   -7.6340 O.2    49  U49        -0.2443
    572  N3       -14.2850   -1.6440   -7.4330 N.ar   49  U49        -0.1530
    573  C4       -13.1650   -0.9420   -7.0690 C.ar   49  U49         0.2846
    574  O4       -12.0630   -1.4390   -7.2820 O.2    49  U49        -0.2650
    575  C5       -13.4120    0.3350   -6.4710 C.ar   49  U49         0.0814
    576  C6       -14.6690    0.7620   -6.3050 C.ar   49  U49         0.0870
    577  OP1      -15.3370    5.0130   -2.7550 O.3    49  U49        -0.4373
    578  OP2      -13.3080    3.6230   -3.4130 O.co2  49  U49        -0.5172
    579  P        -18.1010    0.1250   -1.7350 P.3    50  A50         0.2141
    580  C5'      -18.1690   -2.0650   -3.0920 C.3    50  A50         0.1812
    581  O5'      -18.5470   -1.3830   -1.9270 O.3    50  A50        -0.3114
    582  C4'      -19.0150   -3.2670   -3.3620 C.3    50  A50         0.1773
    583  O4'      -18.8400   -3.6320   -4.7550 O.3    50  A50        -0.3307
    584  C3'      -18.6270   -4.5090   -2.5500 C.3    50  A50         0.1860
    585  O3'      -19.5370   -4.7730   -1.4910 O.3    50  A50        -0.3112
    586  C2'      -18.5490   -5.6280   -3.5790 C.3    50  A50         0.2309
    587  O2'      -19.8230   -6.2220   -3.7570 O.3    50  A50        -0.2156
    588  C1'      -18.1840   -4.8560   -4.8420 C.3    50  A50         0.2408
    589  N1       -13.2410   -6.4060   -5.6780 N.ar   50  A50        -0.2040
    590  C2       -14.3950   -7.0840   -5.7360 C.ar   50  A50         0.2016
    591  N3       -15.6430   -6.6670   -5.5160 N.ar   50  A50        -0.2048
    592  C4       -15.6550   -5.3640   -5.2030 C.ar   50  A50         0.1692
    593  C5       -14.5410   -4.5430   -5.0950 C.ar   50  A50         0.1518
    594  C6       -13.2830   -5.1010   -5.3480 C.ar   50  A50         0.1919
    595  N6       -12.1450   -4.4080   -5.2760 N.pl3  50  A50        -0.1054
    596  N7       -14.9040   -3.2600   -4.7410 N.ar   50  A50        -0.2193
    597  C8       -16.2020   -3.3270   -4.6550 C.ar   50  A50         0.1816
    598  N9       -16.7380   -4.5640   -4.9090 N.ar   50  A50        -0.2693
    599  OP1      -18.9410    0.7690   -0.6960 O.3    50  A50        -0.4373
    600  OP2      -16.6180    0.2030   -1.6170 O.co2  50  A50        -0.5172
    601  P        -19.0100   -5.2370   -0.0410 P.3    51  C51         0.2141
    602  C5'      -18.8750   -7.6350   -1.0970 C.3    51  C51         0.1812
    603  O5'      -18.2460   -6.6000   -0.3480 O.3    51  C51        -0.3114
    604  C4'      -17.8770   -8.6620   -1.5750 C.3    51  C51         0.1773
    605  O4'      -17.0770   -8.1110   -2.6540 O.3    51  C51        -0.3307
    606  C3'      -16.8520   -9.1150   -0.5470 C.3    51  C51         0.1860
    607  O3'      -17.3510  -10.1120    0.3260 O.3    51  C51        -0.3112
    608  C2'      -15.6930   -9.5870   -1.4100 C.3    51  C51         0.2309
    609  O2'      -15.9520  -10.8820   -1.9200 O.3    51  C51        -0.2156
    610  C1'      -15.7540   -8.5950   -2.5670 C.3    51  C51         0.2420
    611  N1       -14.8370   -7.4500   -2.3720 N.ar   51  C51        -0.2535
    612  C2       -13.4840   -7.6770   -2.5960 C.ar   51  C51         0.3532
    613  O2       -13.1450   -8.8170   -2.9180 O.2    51  C51        -0.2443
    614  N3       -12.5820   -6.6820   -2.4480 N.ar   51  C51        -0.1739
    615  C4       -13.0060   -5.4720   -2.0950 C.ar   51  C51         0.1759
    616  N4       -12.0860   -4.5070   -1.9600 N.pl3  51  C51        -0.1070
    617  C5       -14.3930   -5.2090   -1.8590 C.ar   51  C51         0.0566
    618  C6       -15.2720   -6.2100   -2.0100 C.ar   51  C51         0.0850
    619  OP1      -20.2150   -5.5120    0.7830 O.3    51  C51        -0.4373
    620  OP2      -18.0490   -4.2130    0.4210 O.co2  51  C51        -0.5172
    621  P        -16.4260  -10.6830    1.5090 P.3    52  U52         0.2141
    622  C5'      -14.3450  -12.2750    1.3810 C.3    52  U52         0.1812
    623  O5'      -15.2070  -11.3520    0.7260 O.3    52  U52        -0.3114
    624  C4'      -12.9230  -12.1780    0.8810 C.3    52  U52         0.1773
    625  O4'      -12.8160  -11.1550   -0.1460 O.3    52  U52        -0.3307
    626  C3'      -11.8870  -11.7800    1.9200 C.3    52  U52         0.1860
    627  O3'      -11.4700  -12.8690    2.7260 O.3    52  U52        -0.3112
    628  C2'      -10.7700  -11.1830    1.0750 C.3    52  U52         0.2309
    629  O2'       -9.9480  -12.2050    0.5340 O.3    52  U52        -0.2156
    630  C1'      -11.5580  -10.5210   -0.0660 C.3    52  U52         0.2420
    631  N1       -11.7700   -9.0810    0.1890 N.ar   52  U52        -0.2534
    632  C2       -10.6410   -8.2830    0.1650 C.ar   52  U52         0.3546
    633  O2        -9.5230   -8.7170   -0.0840 O.2    52  U52        -0.2443
    634  N3       -10.8630   -6.9550    0.4370 N.ar   52  U52        -0.1530
    635  C4       -12.0730   -6.3580    0.7260 C.ar   52  U52         0.2846
    636  O4       -12.0990   -5.1410    0.9430 O.2    52  U52        -0.2650
    637  C5       -13.1940   -7.2530    0.7320 C.ar   52  U52         0.0814
    638  C6       -13.0060   -8.5530    0.4780 C.ar   52  U52         0.0870
    639  OP1      -17.2130  -11.7250    2.2010 O.2    52  U52        -0.5172
    640  OP2      -15.9400   -9.5180    2.2910 O.co2  52  U52        -0.4373
    641  P        -10.8370  -12.6030    4.1790 P.3    53  G53         0.2141
    642  C5'       -8.3280  -12.3780    3.5110 C.3    53  G53         0.1812
    643  O5'       -9.5460  -11.7480    3.8540 O.3    53  G53        -0.3114
    644  C4'       -7.2810  -11.3560    3.2040 C.3    53  G53         0.1773
    645  O4'       -7.8560  -10.3530    2.3380 O.3    53  G53        -0.3307
    646  C3'       -6.7720  -10.5690    4.4000 C.3    53  G53         0.1860
    647  O3'       -5.7350  -11.2400    5.0950 O.3    53  G53        -0.3112
    648  C2'       -6.3360   -9.2510    3.7820 C.3    53  G53         0.2309
    649  O2'       -5.0590   -9.3830    3.1880 O.3    53  G53        -0.2156
    650  C1'       -7.3650   -9.0800    2.6710 C.3    53  G53         0.2408
    651  N1        -8.8290   -4.3450    3.4250 N.ar   53  G53        -0.1709
    652  C2        -7.6190   -4.8490    3.0340 C.ar   53  G53         0.2606
    653  N2        -6.6350   -3.9720    2.8060 N.pl3  53  G53        -0.0859
    654  N3        -7.3740   -6.1290    2.8780 N.ar   53  G53        -0.1918
    655  C4        -8.4580   -6.8730    3.1470 C.ar   53  G53         0.1723
    656  C5        -9.7090   -6.4850    3.5520 C.ar   53  G53         0.1748
    657  C6        -9.9520   -5.1060    3.7200 C.ar   53  G53         0.3023
    658  O6       -10.9930   -4.5540    4.0750 O.2    53  G53        -0.2633
    659  N7       -10.5370   -7.5850    3.7220 N.ar   53  G53        -0.2173
    660  C8        -9.7770   -8.6080    3.4240 C.ar   53  G53         0.1817
    661  N9        -8.4990   -8.2340    3.0800 N.ar   53  G53        -0.2693
    662  OP1      -10.4380  -13.9210    4.7340 O.2    53  G53        -0.5172
    663  OP2      -11.8060  -11.7760    4.9320 O.co2  53  G53        -0.4373
    664  P         -5.8900  -11.5600    6.6620 P.3    54  A54         0.2141
    665  C5'       -7.3820  -13.7840    6.5800 C.3    54  A54         0.1517
    666  O5'       -7.2890  -12.3570    6.7440 O.3    54  A54        -0.3140
    667  C4'       -7.4960  -14.5090    7.9160 C.3    54  A54         0.0650
    668  C3'       -8.5180  -13.9450    8.9020 C.3    54  A54         0.1517
    669  O3'       -9.8660  -14.3600    8.5940 O.3    54  A54        -0.3140
    670  OP1       -6.0200  -10.2630    7.3770 O.3    54  A54        -0.4373
    671  OP2       -4.8060  -12.5000    7.0420 O.co2  54  A54        -0.5172
    672  P        -11.1180  -13.3940    8.9230 P.3    55  C55         0.2140
    673  C5'      -10.3770  -14.2090   11.3560 C.3    55  C55         0.1517
    674  O5'      -11.0830  -13.2580   10.5260 O.3    55  C55        -0.3140
    675  C4'      -11.0860  -14.5250   12.6620 C.3    55  C55         0.0650
    676  C3'      -11.0500  -13.4460   13.7320 C.3    55  C55         0.1517
    677  O3'      -12.3610  -12.9180   13.8970 O.3    55  C55        -0.3140
    678  OP1      -12.3620  -14.0950    8.5180 O.3    55  C55        -0.4373
    679  OP2      -10.8300  -12.0620    8.3490 O.co2  55  C55        -0.5172
    680  P        -12.5990  -11.6130   14.8010 P.3    56  C56         0.2140
    681  C5'      -14.5350  -10.0280   13.9840 C.3    56  C56         0.1517
    682  O5'      -14.1480  -11.2700   14.5700 O.3    56  C56        -0.3140
    683  C4'      -14.7250  -10.1410   12.4760 C.3    56  C56         0.0650
    684  C3'      -15.7250   -9.1320   11.9210 C.3    56  C56         0.1517
    685  O3'      -15.1320   -8.2790   10.9510 O.3    56  C56        -0.3140
    686  OP1      -11.7960  -10.5130   14.2300 O.2    56  C56        -0.5172
    687  OP2      -12.3940  -11.9990   16.2100 O.co2  56  C56        -0.4373
    688  P        -14.3870   -6.9230   11.4000 P.3    57  C57         0.2141
    689  C5'      -15.8990   -4.8580   11.9930 C.3    57  C57         0.1812
    690  O5'      -15.4760   -6.1800   12.3070 O.3    57  C57        -0.3114
    691  C4'      -15.7090   -3.8890   13.1470 C.3    57  C57         0.1773
    692  O4'      -14.5130   -4.2150   13.9070 O.3    57  C57        -0.3307
    693  C3'      -15.4890   -2.4370   12.7600 C.3    57  C57         0.1860
    694  O3'      -16.6710   -1.7790   12.3610 O.3    57  C57        -0.3112
    695  C2'      -14.8330   -1.8530   14.0050 C.3    57  C57         0.2309
    696  O2'      -15.7970   -1.5980   15.0170 O.3    57  C57        -0.2156
    697  C1'      -13.9550   -3.0260   14.4510 C.3    57  C57         0.2420
    698  N1       -12.5640   -2.8860   13.9690 N.ar   57  C57        -0.2535
    699  C2       -11.8420   -1.7400   14.3140 C.ar   57  C57         0.3532
    700  O2       -12.3660   -0.8620   15.0040 O.2    57  C57        -0.2443
    701  N3       -10.5760   -1.5910   13.8810 N.ar   57  C57        -0.1739
    702  C4       -10.0090   -2.5290   13.1280 C.ar   57  C57         0.1759
    703  N4        -8.7500   -2.3180   12.7350 N.pl3  57  C57        -0.1070
    704  C5       -10.7170   -3.7140   12.7660 C.ar   57  C57         0.0566
    705  C6       -11.9800   -3.8510   13.1990 C.ar   57  C57         0.0850
    706  OP1      -14.1390   -6.1360   10.1600 O.2    57  C57        -0.5172
    707  OP2      -13.2290   -7.3170   12.2350 O.co2  57  C57        -0.4373
    708  P        -16.8250   -1.2870   10.8360 P.3    58  C58         0.2141
    709  C5'      -16.3980    1.1210   11.7350 C.3    58  C58         0.1812
    710  O5'      -16.0360    0.0910   10.8360 O.3    58  C58        -0.3114
    711  C4'      -15.3050    2.1360   11.8560 C.3    58  C58         0.1773
    712  O4'      -14.1850    1.5570   12.5740 O.3    58  C58        -0.3307
    713  C3'      -14.7010    2.5950   10.5470 C.3    58  C58         0.1860
    714  O3'      -15.4760    3.5760    9.8870 O.3    58  C58        -0.3112
    715  C2'      -13.3190    3.0710   10.9690 C.3    58  C58         0.2309
    716  O2'      -13.3910    4.3470   11.5940 O.3    58  C58        -0.2156
    717  C1'      -12.9710    2.0280   12.0300 C.3    58  C58         0.2420
    718  N1       -12.2460    0.8770   11.4550 N.ar   58  C58        -0.2535
    719  C2       -10.8570    0.9420   11.3910 C.ar   58  C58         0.3532
    720  O2       -10.2950    1.9680   11.8060 O.2    58  C58        -0.2443
    721  N3       -10.1750   -0.1050   10.8650 N.ar   58  C58        -0.1739
    722  C4       -10.8310   -1.1850   10.4130 C.ar   58  C58         0.1759
    723  N4       -10.1040   -2.1900    9.9010 N.pl3  58  C58        -0.1070
    724  C5       -12.2550   -1.2730   10.4720 C.ar   58  C58         0.0566
    725  C6       -12.9130   -0.2300   10.9980 C.ar   58  C58         0.0850
    726  OP1      -18.2690   -1.0420   10.6000 O.3    58  C58        -0.4373
    727  OP2      -16.1190   -2.2790    9.9760 O.co2  58  C58        -0.5172
    728  P        -15.2110    3.8760    8.3350 P.3    59  G59         0.2141
    729  C5'      -12.8660    4.0420    7.1740 C.3    59  G59         0.1812
    730  O5'      -13.6680    4.2790    8.3210 O.3    59  G59        -0.3114
    731  C4'      -11.3930    4.1110    7.5000 C.3    59  G59         0.1773
    732  O4'      -11.0470    3.0480    8.4280 O.3    59  G59        -0.3307
    733  C3'      -10.4430    3.9020    6.3260 C.3    59  G59         0.1860
    734  O3'      -10.2500    5.0750    5.5470 O.3    59  G59        -0.3112
    735  C2'       -9.1810    3.3950    7.0090 C.3    59  G59         0.2309
    736  O2'       -8.4820    4.4610    7.6300 O.3    59  G59        -0.2156
    737  C1'       -9.7800    2.5140    8.1020 C.3    59  G59         0.2408
    738  N1        -7.5820   -1.7980    6.4350 N.ar   59  G59        -0.1709
    739  C2        -6.9980   -0.6060    6.7930 C.ar   59  G59         0.2606
    740  N2        -5.6640   -0.5580    6.6880 N.pl3  59  G59        -0.0859
    741  N3        -7.6670    0.4570    7.2160 N.ar   59  G59        -0.1918
    742  C4        -9.0000    0.2260    7.2530 C.ar   59  G59         0.1723
    743  C5        -9.6820   -0.9250    6.9090 C.ar   59  G59         0.1748
    744  C6        -8.9470   -2.0530    6.4560 C.ar   59  G59         0.3023
    745  O6        -9.3580   -3.1640    6.1090 O.2    59  G59        -0.2633
    746  N7       -11.0480   -0.7550    7.0880 N.ar   59  G59        -0.2173
    747  C8       -11.1720    0.4690    7.5220 C.ar   59  G59         0.1817
    748  N9        -9.9710    1.1240    7.6440 N.ar   59  G59        -0.2693
    749  OP1      -16.0490    5.0470    7.9640 O.3    59  G59        -0.4373
    750  OP2      -15.4050    2.5960    7.6030 O.co2  59  G59        -0.5172
    751  P        -10.5020    5.0400    3.9530 P.3    60  C60         0.2141
    752  C5'       -7.9340    4.5540    3.8800 C.3    60  C60         0.1812
    753  O5'       -9.2390    4.2380    3.4250 O.3    60  C60        -0.3114
    754  C4'       -6.9840    3.4300    3.5910 C.3    60  C60         0.1773
    755  O4'       -7.3170    2.2940    4.4270 O.3    60  C60        -0.3307
    756  C3'       -7.0450    2.8740    2.1780 C.3    60  C60         0.1860
    757  O3'       -6.3090    3.6400    1.2510 O.3    60  C60        -0.3112
    758  C2'       -6.5310    1.4600    2.3480 C.3    60  C60         0.2309
    759  O2'       -5.1150    1.4550    2.4580 O.3    60  C60        -0.2156
    760  C1'       -7.1320    1.0950    3.7050 C.3    60  C60         0.2420
    761  N1        -8.4440    0.4380    3.5600 N.ar   60  C60        -0.2535
    762  C2        -8.4830   -0.9320    3.2900 C.ar   60  C60         0.3532
    763  O2        -7.4040   -1.5360    3.1940 O.2    60  C60        -0.2443
    764  N3        -9.6830   -1.5500    3.1480 N.ar   60  C60        -0.1739
    765  C4       -10.8080   -0.8350    3.2780 C.ar   60  C60         0.1759
    766  N4       -11.9810   -1.4590    3.1400 N.pl3  60  C60        -0.1070
    767  C5       -10.7930    0.5660    3.5510 C.ar   60  C60         0.0566
    768  C6        -9.5990    1.1580    3.6900 C.ar   60  C60         0.0850
    769  OP1      -10.4480    6.4380    3.4660 O.2    60  C60        -0.5172
    770  OP2      -11.7380    4.2490    3.7160 O.co2  60  C60        -0.4373
    771  P         -7.0850    4.5930    0.2200 P.3    61  C61         0.2141
    772  C5'       -5.3240    6.4790    0.6770 C.3    61  C61         0.1812
    773  O5'       -6.6730    6.0450    0.7300 O.3    61  C61        -0.3114
    774  C4'       -4.9510    7.2540    1.9090 C.3    61  C61         0.1773
    775  O4'       -4.8210    6.3460    3.0290 O.3    61  C61        -0.3307
    776  C3'       -3.6180    7.9820    1.8590 C.3    61  C61         0.1860
    777  O3'       -3.7020    9.2350    1.2020 O.3    61  C61        -0.3112
    778  C2'       -3.2350    8.0910    3.3310 C.3    61  C61         0.2309
    779  O2'       -3.9070    9.1770    3.9540 O.3    61  C61        -0.2156
    780  C1'       -3.7990    6.7860    3.8940 C.3    61  C61         0.2420
    781  N1        -2.7730    5.7280    3.9860 N.ar   61  C61        -0.2535
    782  C2        -1.5830    6.0410    4.6230 C.ar   61  C61         0.3532
    783  O2        -1.4550    7.1890    5.0580 O.2    61  C61        -0.2443
    784  N3        -0.6120    5.1030    4.7340 N.ar   61  C61        -0.1739
    785  C4        -0.8000    3.8800    4.2380 C.ar   61  C61         0.1759
    786  N4         0.1880    2.9860    4.3740 N.pl3  61  C61        -0.1070
    787  C5        -2.0170    3.5300    3.5790 C.ar   61  C61         0.0566
    788  C6        -2.9660    4.4740    3.4750 C.ar   61  C61         0.0850
    789  OP1       -8.5440    4.3730    0.4190 O.3    61  C61        -0.4373
    790  OP2       -6.5100    4.3410   -1.1210 O.co2  61  C61        -0.5172
    791  P         -2.5510    9.6940    0.1730 P.3    62  U62         0.2141
    792  C5'       -1.5660   11.6060    1.6670 C.3    62  U62         0.1812
    793  O5'       -1.4440   10.2970    1.1350 O.3    62  U62        -0.3114
    794  C4'       -0.3300   11.9860    2.4360 C.3    62  U62         0.1773
    795  O4'       -0.1610   11.0740    3.5490 O.3    62  U62        -0.3307
    796  C3'        0.9870   11.8870    1.6680 C.3    62  U62         0.1860
    797  O3'        1.2470   13.0370    0.8680 O.3    62  U62        -0.3112
    798  C2'        2.0080   11.6610    2.7810 C.3    62  U62         0.2309
    799  O2'        2.3450   12.8870    3.4110 O.3    62  U62        -0.2156
    800  C1'        1.2030   10.8210    3.7730 C.3    62  U62         0.2420
    801  N1         1.4390    9.3750    3.6120 N.ar   62  U62        -0.2534
    802  C2         2.6000    8.8640    4.1470 C.ar   62  U62         0.3546
    803  O2         3.4180    9.5700    4.7070 O.2    62  U62        -0.2443
    804  N3         2.7730    7.5090    3.9890 N.ar   62  U62        -0.1530
    805  C4         1.9130    6.6260    3.3680 C.ar   62  U62         0.2846
    806  O4         2.2130    5.4320    3.3110 O.2    62  U62        -0.2650
    807  C5         0.7230    7.2350    2.8480 C.ar   62  U62         0.0814
    808  C6         0.5250    8.5550    2.9910 C.ar   62  U62         0.0870
    809  OP1       -3.1270   10.7710   -0.6790 O.2    62  U62        -0.5172
    810  OP2       -2.0280    8.4700   -0.4820 O.co2  62  U62        -0.4373
    811  P          2.4580   13.0460   -0.1980 P.3    63  U63         0.2141
    812  C5'        4.4870   13.2890    1.4250 C.3    63  U63         0.1812
    813  O5'        3.6730   12.4480    0.6280 O.3    63  U63        -0.3114
    814  C4'        5.7830   12.6190    1.7790 C.3    63  U63         0.1773
    815  O4'        5.5200   11.4280    2.5570 O.3    63  U63        -0.3307
    816  C3'        6.6100   12.1310    0.6050 C.3    63  U63         0.1860
    817  O3'        7.3910   13.1660    0.0290 O.3    63  U63        -0.3112
    818  C2'        7.4360   11.0040    1.2170 C.3    63  U63         0.2309
    819  O2'        8.5710   11.5240    1.8900 O.3    63  U63        -0.2156
    820  C1'        6.4730   10.4360    2.2630 C.3    63  U63         0.2420
    821  N1         5.7620    9.2370    1.7810 N.ar   63  U63        -0.2534
    822  C2         6.3490    8.0070    1.9980 C.ar   63  U63         0.3546
    823  O2         7.4260    7.8900    2.5580 O.2    63  U63        -0.2443
    824  N3         5.6350    6.9320    1.5330 N.ar   63  U63        -0.1530
    825  C4         4.4140    6.9770    0.8850 C.ar   63  U63         0.2846
    826  O4         3.8780    5.9310    0.5120 O.2    63  U63        -0.2650
    827  C5         3.8720    8.2890    0.7070 C.ar   63  U63         0.0814
    828  C6         4.5460    9.3490    1.1570 C.ar   63  U63         0.0870
    829  OP1        2.7320   14.4630   -0.5320 O.3    63  U63        -0.4373
    830  OP2        2.0870   12.1180   -1.2980 O.co2  63  U63        -0.5172
    831  P          7.9000   13.0540   -1.4870 P.3    64  C64         0.2141
    832  C5'       10.3240   12.4450   -0.7320 C.3    64  C64         0.1812
    833  O5'        9.1230   12.0490   -1.3710 O.3    64  C64        -0.3114
    834  C4'       11.2460   11.2760   -0.5300 C.3    64  C64         0.1773
    835  O4'       10.6130   10.3020    0.3380 O.3    64  C64        -0.3307
    836  C3'       11.5790   10.4730   -1.7740 C.3    64  C64         0.1860
    837  O3'       12.5640   11.0770   -2.5900 O.3    64  C64        -0.3112
    838  C2'       12.0040    9.1440   -1.1870 C.3    64  C64         0.2309
    839  O2'       13.3020    9.2510   -0.6200 O.3    64  C64        -0.2156
    840  C1'       10.9910    9.0000   -0.0510 C.3    64  C64         0.2420
    841  N1         9.7860    8.2770   -0.4860 N.ar   64  C64        -0.2535
    842  C2         9.7130    6.9080   -0.2700 C.ar   64  C64         0.3532
    843  O2        10.6580    6.3580    0.2990 O.2    64  C64        -0.2443
    844  N3         8.6240    6.2250   -0.6810 N.ar   64  C64        -0.1739
    845  C4         7.6270    6.8630   -1.2900 C.ar   64  C64         0.1759
    846  N4         6.5650    6.1530   -1.6710 N.pl3  64  C64        -0.1070
    847  C5         7.6720    8.2640   -1.5320 C.ar   64  C64         0.0566
    848  C6         8.7650    8.9230   -1.1200 C.ar   64  C64         0.0850
    849  OP1        8.3930   14.4000   -1.8840 O.3    64  C64        -0.4373
    850  OP2        6.8060   12.4340   -2.2680 O.co2  64  C64        -0.5172
    851  P         12.5410   10.8240   -4.1750 P.3    65  A65         0.2141
    852  C5'       14.1620    8.8070   -3.8480 C.3    65  A65         0.1812
    853  O5'       12.9070    9.2820   -4.2900 O.3    65  A65        -0.3114
    854  C4'       14.2360    7.3080   -3.9140 C.3    65  A65         0.1773
    855  O4'       13.2550    6.7230   -3.0160 O.3    65  A65        -0.3307
    856  C3'       13.9100    6.6790   -5.2590 C.3    65  A65         0.1860
    857  O3'       14.9830    6.7630   -6.1960 O.3    65  A65        -0.3112
    858  C2'       13.5470    5.2550   -4.8620 C.3    65  A65         0.2309
    859  O2'       14.7110    4.4940   -4.5850 O.3    65  A65        -0.2156
    860  C1'       12.8080    5.4910   -3.5470 C.3    65  A65         0.2408
    861  N1         8.8160    2.6020   -4.6340 N.ar   65  A65        -0.2040
    862  C2        10.1120    2.3510   -4.4340 C.ar   65  A65         0.2016
    863  N3        11.0990    3.1940   -4.1440 N.ar   65  A65        -0.2048
    864  C4        10.6320    4.4450   -4.0590 C.ar   65  A65         0.1692
    865  C5         9.3410    4.8700   -4.2310 C.ar   65  A65         0.1518
    866  C6         8.3940    3.8770   -4.5380 C.ar   65  A65         0.1919
    867  N6         7.0990    4.1140   -4.7380 N.pl3  65  A65        -0.1054
    868  N7         9.2690    6.2450   -4.0520 N.ar   65  A65        -0.2193
    869  C8        10.4990    6.6150   -3.7810 C.ar   65  A65         0.1816
    870  N9        11.3590    5.5570   -3.7630 N.ar   65  A65        -0.2693
    871  OP1       13.6260   11.6470   -4.7700 O.2    65  A65        -0.5172
    872  OP2       11.1490   11.0440   -4.6250 O.co2  65  A65        -0.4373
    873  P         14.6780    6.8520   -7.7800 P.3    66  A66         0.2141
    874  C5'       15.5930    4.3910   -7.7940 C.3    66  A66         0.1812
    875  O5'       14.6040    5.3180   -8.2120 O.3    66  A66        -0.3114
    876  C4'       15.1640    2.9720   -8.0560 C.3    66  A66         0.1773
    877  O4'       14.1910    2.5580   -7.0570 O.3    66  A66        -0.3307
    878  C3'       14.4600    2.7190   -9.3860 C.3    66  A66         0.1860
    879  O3'       15.3590    2.5750  -10.4750 O.3    66  A66        -0.3112
    880  C2'       13.6510    1.4630   -9.0900 C.3    66  A66         0.2309
    881  O2'       14.4840    0.3110   -9.0890 O.3    66  A66        -0.2156
    882  C1'       13.2060    1.7360   -7.6580 C.3    66  A66         0.2408
    883  N1         8.0770    1.3510   -8.2130 N.ar   66  A66        -0.2040
    884  C2         9.0670    0.4540   -8.3060 C.ar   66  A66         0.2016
    885  N3        10.3830    0.6190   -8.1510 N.ar   66  A66        -0.2048
    886  C4        10.6740    1.8980   -7.8570 C.ar   66  A66         0.1692
    887  C5         9.7650    2.9370   -7.7180 C.ar   66  A66         0.1518
    888  C6         8.3960    2.6350   -7.9120 C.ar   66  A66         0.1919
    889  N6         7.4100    3.5400   -7.8140 N.pl3  66  A66        -0.1054
    890  N7        10.4320    4.1200   -7.4010 N.ar   66  A66        -0.2193
    891  C8        11.7000    3.7780   -7.3690 C.ar   66  A66         0.1816
    892  N9        11.9170    2.4470   -7.6240 N.ar   66  A66        -0.2693
    893  OP1       15.8480    7.5040   -8.4200 O.2    66  A66        -0.5172
    894  OP2       13.3390    7.4850   -7.9350 O.co2  66  A66        -0.4373
    895  P         15.0360    3.2410  -11.9120 P.3    67  A67         0.2141
    896  C5'       14.4900    0.8220  -12.7770 C.3    67  A67         0.1812
    897  O5'       14.0660    2.1700  -12.5970 O.3    67  A67        -0.3114
    898  C4'       13.3330   -0.1520  -12.7450 C.3    67  A67         0.1773
    899  O4'       12.5470    0.0510  -11.5440 O.3    67  A67        -0.3307
    900  C3'       12.3170   -0.0250  -13.8610 C.3    67  A67         0.1860
    901  O3'       12.7330   -0.6390  -15.0590 O.3    67  A67        -0.3112
    902  C2'       11.0830   -0.6650  -13.2500 C.3    67  A67         0.2309
    903  O2'       11.2220   -2.0800  -13.2140 O.3    67  A67        -0.2156
    904  C1'       11.1760   -0.1470  -11.8240 C.3    67  A67         0.2408
    905  N1         6.7170    2.3130  -11.0120 N.ar   67  A67        -0.2040
    906  C2         7.0070    1.0110  -11.1610 C.ar   67  A67         0.2016
    907  N3         8.1780    0.4240  -11.3830 N.ar   67  A67        -0.2048
    908  C4         9.1480    1.3530  -11.4450 C.ar   67  A67         0.1692
    909  C5         9.0050    2.7300  -11.3140 C.ar   67  A67         0.1518
    910  C6         7.7050    3.2300  -11.0840 C.ar   67  A67         0.1919
    911  N6         7.3940    4.5300  -10.9390 N.pl3  67  A67        -0.1054
    912  N7        10.2420    3.3570  -11.4430 N.ar   67  A67        -0.2193
    913  C8        11.0850    2.3750  -11.6440 C.ar   67  A67         0.1816
    914  N9        10.4870    1.1400  -11.6540 N.ar   67  A67        -0.2693
    915  OP1       16.3190    3.3060  -12.6450 O.2    67  A67        -0.5172
    916  OP2       14.2950    4.5080  -11.6600 O.co2  67  A67        -0.4373
    917  P         12.3970    0.0560  -16.4570 P.3    68  C68         0.2141
    918  C5'        9.9150    0.1410  -17.2670 C.3    68  C68         0.1812
    919  O5'       10.8730    0.4670  -16.2830 O.3    68  C68        -0.3114
    920  C4'        8.6140   -0.2910  -16.6480 C.3    68  C68         0.1773
    921  O4'        8.4520    0.3300  -15.3490 O.3    68  C68        -0.3307
    922  C3'        7.3660    0.0970  -17.4170 C.3    68  C68         0.1860
    923  O3'        7.0660   -0.8260  -18.4470 O.3    68  C68        -0.3112
    924  C2'        6.2920    0.1660  -16.3410 C.3    68  C68         0.2309
    925  O2'        5.7560   -1.1240  -16.1060 O.3    68  C68        -0.2156
    926  C1'        7.0930    0.6040  -15.1040 C.3    68  C68         0.2420
    927  N1         6.9480    2.0590  -14.8100 N.ar   68  C68        -0.2535
    928  C2         5.7070    2.5720  -14.4270 C.ar   68  C68         0.3532
    929  O2         4.7410    1.8060  -14.3500 O.2    68  C68        -0.2443
    930  N3         5.5840    3.8920  -14.1580 N.ar   68  C68        -0.1739
    931  C4         6.6330    4.7080  -14.2450 C.ar   68  C68         0.1759
    932  N4         6.4540    6.0080  -13.9680 N.pl3  68  C68        -0.1070
    933  C5         7.9120    4.2150  -14.6180 C.ar   68  C68         0.0566
    934  C6         8.0200    2.9060  -14.8820 C.ar   68  C68         0.0850
    935  OP1       12.5230   -0.9860  -17.5090 O.2    68  C68        -0.5172
    936  OP2       13.2430    1.2760  -16.5400 O.co2  68  C68        -0.4373
    937  P          6.8200   -0.3160  -19.9450 P.3    69  C69         0.2141
    938  C5'        4.2870   -0.7470  -19.4040 C.3    69  C69         0.1812
    939  O5'        5.2880    0.1080  -19.9290 O.3    69  C69        -0.3114
    940  C4'        3.0100    0.0130  -19.1900 C.3    69  C69         0.1773
    941  O4'        3.1970    0.9740  -18.1350 O.3    69  C69        -0.3307
    942  C3'        2.5340    0.8160  -20.3930 C.3    69  C69         0.1860
    943  O3'        1.5840    0.0970  -21.1470 O.3    69  C69        -0.3112
    944  C2'        1.9630    2.1140  -19.8250 C.3    69  C69         0.2309
    945  O2'        0.5480    2.1040  -19.9060 O.3    69  C69        -0.2156
    946  C1'        2.3780    2.0840  -18.3490 C.3    69  C69         0.2420
    947  N1         3.0890    3.3040  -17.9230 N.ar   69  C69        -0.2535
    948  C2         2.3030    4.3520  -17.4540 C.ar   69  C69         0.3532
    949  O2         1.0790    4.2300  -17.4330 O.2    69  C69        -0.2443
    950  N3         2.8840    5.4820  -17.0280 N.ar   69  C69        -0.1739
    951  C4         4.2040    5.5930  -17.0460 C.ar   69  C69         0.1759
    952  N4         4.7250    6.7460  -16.6020 N.pl3  69  C69        -0.1070
    953  C5         5.0220    4.5300  -17.5120 C.ar   69  C69         0.0566
    954  C6         4.4360    3.4100  -17.9280 C.ar   69  C69         0.0850
    955  OP1        7.0210   -1.4870  -20.8280 O.2    69  C69        -0.5172
    956  OP2        7.6660    0.8840  -20.1530 O.co2  69  C69        -0.4373
    957  P          1.3560    0.4060  -22.7120 P.3    70  U70         0.2141
    958  C5'       -1.1710    0.0620  -22.0940 C.3    70  U70         0.1812
    959  O5'       -0.0840   -0.2150  -22.9630 O.3    70  U70        -0.3114
    960  C4'       -2.4730   -0.1810  -22.7960 C.3    70  U70         0.1773
    961  O4'       -2.2550   -1.1190  -23.8790 O.3    70  U70        -0.3307
    962  C3'       -3.5800   -0.8180  -21.9680 C.3    70  U70         0.1860
    963  O3'       -4.3040    0.1230  -21.1990 O.3    70  U70        -0.3112
    964  C2'       -4.4250   -1.5170  -23.0280 C.3    70  U70         0.2309
    965  O2'       -5.2390   -0.5780  -23.7220 O.3    70  U70        -0.2156
    966  C1'       -3.3420   -2.0070  -23.9860 C.3    70  U70         0.2420
    967  N1        -2.8620   -3.3640  -23.6410 N.ar   70  U70        -0.2534
    968  C2        -3.6630   -4.4600  -23.8970 C.ar   70  U70         0.3546
    969  O2        -4.7720   -4.3680  -24.3860 O.2    70  U70        -0.2443
    970  N3        -3.1400   -5.6760  -23.5690 N.ar   70  U70        -0.1530
    971  C4        -1.9110   -5.8810  -23.0100 C.ar   70  U70         0.2846
    972  O4        -1.5600   -7.0240  -22.7450 O.2    70  U70        -0.2650
    973  C5        -1.1450   -4.7040  -22.7740 C.ar   70  U70         0.0814
    974  C6        -1.6260   -3.5100  -23.0980 C.ar   70  U70         0.0870
    975  OP1        2.3760   -0.3680  -23.4510 O.2    70  U70        -0.5172
    976  OP2        1.3120    1.8960  -22.8970 O.co2  70  U70        -0.4373
    977  P         -5.4700   -0.3650  -20.2110 P.3    71  A71         0.2141
    978  C5'       -4.0100    0.7640  -18.3510 C.3    71  A71         0.1812
    979  O5'       -5.2850    0.6010  -18.9610 O.3    71  A71        -0.3114
    980  C4'       -4.1370    1.2250  -16.9260 C.3    71  A71         0.1773
    981  O4'       -4.6240    2.5950  -16.9070 O.3    71  A71        -0.3307
    982  C3'       -5.1050    0.4110  -16.0690 C.3    71  A71         0.1860
    983  O3'       -4.6160    0.3360  -14.7380 O.3    71  A71        -0.3112
    984  C2'       -6.3650    1.2540  -16.0840 C.3    71  A71         0.2309
    985  O2'       -7.2020    1.0620  -14.9600 O.3    71  A71        -0.2156
    986  C1'       -5.7950    2.6690  -16.1250 C.3    71  A71         0.2408
    987  N1        -8.5020    7.0100  -15.4930 N.ar   71  A71        -0.2040
    988  C2        -7.6810    6.3200  -14.6930 C.ar   71  A71         0.2016
    989  N3        -7.0030    5.2000  -14.9190 N.ar   71  A71        -0.2048
    990  C4        -7.2220    4.7620  -16.1520 C.ar   71  A71         0.1692
    991  C5        -8.0390    5.3540  -17.1010 C.ar   71  A71         0.1518
    992  C6        -8.7070    6.5430  -16.7370 C.ar   71  A71         0.1919
    993  N6        -9.5280    7.2380  -17.5200 N.pl3  71  A71        -0.1054
    994  N7        -8.0190    4.6040  -18.2600 N.ar   71  A71        -0.2193
    995  C8        -7.2220    3.5980  -18.0020 C.ar   71  A71         0.1816
    996  N9        -6.6960    3.6410  -16.7360 N.ar   71  A71        -0.2693
    997  OP1       -5.1570   -1.7600  -19.8220 O.3    71  A71        -0.4373
    998  OP2       -6.7680   -0.0880  -20.8890 O.co2  71  A71        -0.5172
    999  P         -3.8630   -0.9810  -14.2170 P.3    72  U72         0.2141
   1000  C5'       -1.4310   -0.0660  -13.9790 C.3    72  U72         0.1812
   1001  O5'       -2.6800   -0.3560  -13.3730 O.3    72  U72        -0.3114
   1002  C4'       -0.3580   -0.8730  -13.3300 C.3    72  U72         0.1773
   1003  O4'        0.8040   -0.0310  -13.0890 O.3    72  U72        -0.3307
   1004  C3'       -0.7590   -1.4390  -11.9680 C.3    72  U72         0.1860
   1005  O3'       -0.1120   -2.6920  -11.7740 O.3    72  U72        -0.3112
   1006  C2'       -0.1850   -0.4090  -11.0050 C.3    72  U72         0.2309
   1007  O2'        0.0230   -0.8920   -9.7050 O.3    72  U72        -0.2156
   1008  C1'        1.1240   -0.0750  -11.7110 C.3    72  U72         0.2420
   1009  N1         1.7360    1.2110  -11.3390 N.ar   72  U72        -0.2534
   1010  C2         3.1000    1.1080  -11.3250 C.ar   72  U72         0.3546
   1011  O2         3.6320    0.0440  -11.5590 O.2    72  U72        -0.2443
   1012  N3         3.7860    2.2440  -11.0140 N.ar   72  U72        -0.1530
   1013  C4         3.2360    3.4680  -10.7270 C.ar   72  U72         0.2846
   1014  O4         3.9950    4.4040  -10.4590 O.2    72  U72        -0.2650
   1015  C5         1.7960    3.4990  -10.7690 C.ar   72  U72         0.0814
   1016  C6         1.0960    2.3940  -11.0730 C.ar   72  U72         0.0870
   1017  OP1       -3.3200   -1.6890  -15.4000 O.2    72  U72        -0.5172
   1018  OP2       -4.7900   -1.7030  -13.3310 O.co2  72  U72        -0.4373
   1019  P         -0.6280   -3.7000  -10.6430 P.3    73  U73         0.2141
   1020  C5'        0.8990   -4.5350   -8.6720 C.3    73  U73         0.1812
   1021  O5'        0.4160   -3.4600   -9.4620 O.3    73  U73        -0.3114
   1022  C4'        2.4060   -4.5990   -8.6970 C.3    73  U73         0.1773
   1023  O4'        2.9300   -3.5750   -9.5730 O.3    73  U73        -0.3307
   1024  C3'        3.1200   -4.3200   -7.3920 C.3    73  U73         0.1860
   1025  O3'        3.0740   -5.4000   -6.4860 O.3    73  U73        -0.3112
   1026  C2'        4.5240   -3.9880   -7.8730 C.3    73  U73         0.2309
   1027  O2'        5.2120   -5.1640   -8.2630 O.3    73  U73        -0.2156
   1028  C1'        4.2110   -3.1870   -9.1280 C.3    73  U73         0.2420
   1029  N1         4.2080   -1.7510   -8.8630 N.ar   73  U73        -0.2534
   1030  C2         5.4600   -1.2190   -8.8230 C.ar   73  U73         0.3546
   1031  O2         6.4340   -1.9180   -9.0130 O.2    73  U73        -0.2443
   1032  N3         5.5200    0.1200   -8.5730 N.ar   73  U73        -0.1530
   1033  C4         4.4560    0.9540   -8.3600 C.ar   73  U73         0.2846
   1034  O4         4.6740    2.1470   -8.1480 O.2    73  U73        -0.2650
   1035  C5         3.1750    0.3150   -8.4130 C.ar   73  U73         0.0814
   1036  C6         3.0880   -0.9960   -8.6570 C.ar   73  U73         0.0870
   1037  OP1       -0.4810   -5.0750  -11.1980 O.2    73  U73        -0.5172
   1038  OP2       -1.9740   -3.2380  -10.2190 O.co2  73  U73        -0.4373
   1039  P          3.3580   -5.1480   -4.9270 P.3    74  U74         0.2141
   1040  C5'        5.9060   -5.7220   -5.0360 C.3    74  U74         0.1812
   1041  O5'        4.8960   -4.7390   -4.9000 O.3    74  U74        -0.3114
   1042  C4'        7.2770   -5.1130   -4.9980 C.3    74  U74         0.1773
   1043  O4'        7.3820   -4.0710   -6.0050 O.3    74  U74        -0.3307
   1044  C3'        7.6650   -4.4170   -3.7040 C.3    74  U74         0.1860
   1045  O3'        8.0740   -5.3280   -2.6900 O.3    74  U74        -0.3112
   1046  C2'        8.7720   -3.4810   -4.1720 C.3    74  U74         0.2309
   1047  O2'        9.9870   -4.1960   -4.3640 O.3    74  U74        -0.2156
   1048  C1'        8.2400   -3.0530   -5.5470 C.3    74  U74         0.2420
   1049  N1         7.4750   -1.8060   -5.4610 N.ar   74  U74        -0.2534
   1050  C2         8.2120   -0.6570   -5.3340 C.ar   74  U74         0.3546
   1051  O2         9.4230   -0.6570   -5.3270 O.2    74  U74        -0.2443
   1052  N3         7.4840    0.4900   -5.2160 N.ar   74  U74        -0.1530
   1053  C4         6.1120    0.5910   -5.2170 C.ar   74  U74         0.2846
   1054  O4         5.6160    1.7090   -5.1170 O.2    74  U74        -0.2650
   1055  C5         5.4060   -0.6490   -5.3440 C.ar   74  U74         0.0814
   1056  C6         6.1000   -1.7870   -5.4510 C.ar   74  U74         0.0870
   1057  OP1        3.1700   -6.4500   -4.2440 O.3    74  U74        -0.4373
   1058  OP2        2.5280   -3.9920   -4.5080 O.co2  74  U74        -0.5172
   1059  P          7.9930   -4.9270   -1.1240 P.3    75  G75         0.2141
   1060  C5'       10.5440   -4.3590   -1.0960 C.3    75  G75         0.1812
   1061  O5'        9.2050   -3.9070   -0.9600 O.3    75  G75        -0.3114
   1062  C4'       11.5310   -3.2450   -0.8880 C.3    75  G75         0.1773
   1063  O4'       11.3890   -2.2610   -1.9480 O.3    75  G75        -0.3307
   1064  C3'       11.3510   -2.4230    0.3760 C.3    75  G75         0.1860
   1065  O3'       11.8330   -3.0530    1.5470 O.3    75  G75        -0.3112
   1066  C2'       12.0720   -1.1390    0.0120 C.3    75  G75         0.2309
   1067  O2'       13.4760   -1.3440   -0.0260 O.3    75  G75        -0.2156
   1068  C1'       11.5760   -0.9640   -1.4180 C.3    75  G75         0.2408
   1069  N1         9.2990    3.5140   -1.0470 N.ar   75  G75        -0.1709
   1070  C2        10.6410    3.1890   -1.0050 C.ar   75  G75         0.2606
   1071  N2        11.5040    4.2040   -0.8470 N.pl3  75  G75        -0.0859
   1072  N3        11.1130    1.9580   -1.1210 N.ar   75  G75        -0.1918
   1073  C4        10.1120    1.0710   -1.2810 C.ar   75  G75         0.1723
   1074  C5         8.7490    1.2800   -1.3230 C.ar   75  G75         0.1748
   1075  C6         8.2590    2.6040   -1.2070 C.ar   75  G75         0.3023
   1076  O6         7.0880    3.0010   -1.2340 O.2    75  G75        -0.2633
   1077  N7         8.0770    0.0780   -1.4890 N.ar   75  G75        -0.2173
   1078  C8         9.0260   -0.8190   -1.5410 C.ar   75  G75         0.1817
   1079  N9        10.2820   -0.2720   -1.4400 N.ar   75  G75        -0.2693
   1080  OP1        8.2710   -6.1580   -0.3500 O.3    75  G75        -0.4373
   1081  OP2        6.6970   -4.2270   -0.9010 O.co2  75  G75        -0.5172
   1082  P         10.9850   -2.9420    2.9120 P.3    76  G76         0.2141
   1083  C5'       12.7700   -1.2690    3.8370 C.3    76  G76         0.1812
   1084  O5'       11.4220   -1.5170    3.4800 O.3    76  G76        -0.3114
   1085  C4'       13.0460    0.2010    4.0220 C.3    76  G76         0.1773
   1086  O4'       12.7600    0.9300    2.7950 O.3    76  G76        -0.3307
   1087  C3'       12.2050    0.9290    5.0540 C.3    76  G76         0.1860
   1088  O3'       12.5660    0.6450    6.3990 O.3    76  G76        -0.3112
   1089  C2'       12.4160    2.3790    4.6410 C.3    76  G76         0.2309
   1090  O2'       13.7340    2.8110    4.9670 O.3    76  G76        -0.2156
   1091  C1'       12.3150    2.2410    3.1190 C.3    76  G76         0.2408
   1092  N1         8.4260    5.4890    2.4790 N.ar   76  G76        -0.1709
   1093  C2         9.7010    5.7370    2.9320 C.ar   76  G76         0.2606
   1094  N2         9.9690    7.0130    3.2620 N.pl3  76  G76        -0.0859
   1095  N3        10.6320    4.7990    3.0470 N.ar   76  G76        -0.1918
   1096  C4        10.1830    3.5760    2.6660 C.ar   76  G76         0.1723
   1097  C5         8.9220    3.2300    2.2020 C.ar   76  G76         0.1748
   1098  C6         7.9280    4.2480    2.0810 C.ar   76  G76         0.3023
   1099  O6         6.7500    4.1530    1.6830 O.2    76  G76        -0.2633
   1100  N7         8.8580    1.8670    1.9190 N.ar   76  G76        -0.2173
   1101  C8        10.0550    1.4160    2.2140 C.ar   76  G76         0.1817
   1102  N9        10.9160    2.3980    2.6630 N.ar   76  G76        -0.2693
   1103  OP1       11.4670   -4.0160    3.8170 O.3    76  G76        -0.4373
   1104  OP2        9.5460   -2.9210    2.5350 O.co2  76  G76        -0.5172
   1105  P         11.4300    0.5800    7.5410 P.3    77  A77         0.2141
   1106  C5'       11.9270    3.0830    8.1240 C.3    77  A77         0.1812
   1107  O5'       10.9940    2.1040    7.6920 O.3    77  A77        -0.3114
   1108  C4'       11.3670    4.4740    8.0020 C.3    77  A77         0.1773
   1109  O4'       10.9620    4.7200    6.6290 O.3    77  A77        -0.3307
   1110  C3'       10.1130    4.7670    8.8160 C.3    77  A77         0.1860
   1111  O3'       10.3910    5.0590   10.1820 O.3    77  A77        -0.3112
   1112  C2'        9.5080    5.9370    8.0530 C.3    77  A77         0.2309
   1113  O2'       10.2190    7.1370    8.3270 O.3    77  A77        -0.2156
   1114  C1'        9.8020    5.5250    6.6070 C.3    77  A77         0.2408
   1115  N1         5.0050    5.7060    4.7800 N.ar   77  A77        -0.2040
   1116  C2         5.8370    6.6500    5.2320 C.ar   77  A77         0.2016
   1117  N3         7.0800    6.5190    5.6830 N.ar   77  A77        -0.2048
   1118  C4         7.4730    5.2390    5.6490 C.ar   77  A77         0.1692
   1119  C5         6.7350    4.1600    5.2140 C.ar   77  A77         0.1518
   1120  C6         5.4320    4.4250    4.7550 C.ar   77  A77         0.1919
   1121  N6         4.5930    3.4900    4.2980 N.pl3  77  A77        -0.1054
   1122  N7         7.4750    2.9910    5.3220 N.ar   77  A77        -0.2193
   1123  C8         8.6240    3.3850    5.8190 C.ar   77  A77         0.1816
   1124  N9         8.6920    4.7380    6.0340 N.ar   77  A77        -0.2693
   1125  OP1       12.0890    0.1190    8.7920 O.3    77  A77        -0.4373
   1126  OP2       10.3060   -0.2160    6.9970 O.co2  77  A77        -0.5172
   1127  P          9.5900    4.3110   11.3720 P.3    78  G78         0.2141
   1128  C5'        7.1610    5.1700   11.7970 C.3    78  G78         0.1812
   1129  O5'        8.0690    4.4900   10.9550 O.3    78  G78        -0.3114
   1130  C4'        6.6740    6.4520   11.1690 C.3    78  G78         0.1773
   1131  O4'        6.8820    6.4150    9.7250 O.3    78  G78        -0.3307
   1132  C3'        5.1880    6.7240   11.3180 C.3    78  G78         0.1860
   1133  O3'        4.8470    7.2710   12.5750 O.3    78  G78        -0.3112
   1134  C2'        4.8970    7.6320   10.1360 C.3    78  G78         0.2309
   1135  O2'        5.4080    8.9360   10.3730 O.3    78  G78        -0.2156
   1136  C1'        5.7560    6.9640    9.0640 C.3    78  G78         0.2408
   1137  N1         1.6770    5.4330    6.3350 N.ar   78  G78        -0.1709
   1138  C2         1.9890    6.6920    6.7840 C.ar   78  G78         0.2606
   1139  N2         1.1070    7.6540    6.4660 N.pl3  78  G78        -0.0859
   1140  N3         3.0760    6.9850    7.4850 N.ar   78  G78        -0.1918
   1141  C4         3.8420    5.8920    7.7040 C.ar   78  G78         0.1723
   1142  C5         3.6100    4.5880    7.3000 C.ar   78  G78         0.1748
   1143  C6         2.4440    4.2930    6.5480 C.ar   78  G78         0.3023
   1144  O6         2.0710    3.2030    6.0950 O.2    78  G78        -0.2633
   1145  N7         4.6210    3.7440    7.7230 N.ar   78  G78        -0.2173
   1146  C8         5.4350    4.5370    8.3610 C.ar   78  G78         0.1817
   1147  N9         5.0350    5.8560    8.3940 N.ar   78  G78        -0.2693
   1148  OP1        9.8600    5.0700   12.6130 O.3    78  G78        -0.4373
   1149  OP2        9.9580    2.8720   11.3250 O.co2  78  G78        -0.5172
   1150  P          3.8330    6.4780   13.5290 P.3    79  A79         0.2141
   1151  C5'        2.3100    8.5240   12.9540 C.3    79  A79         0.1812
   1152  O5'        2.4290    7.1250   13.1510 O.3    79  A79        -0.3114
   1153  C4'        1.1080    8.8700   12.1130 C.3    79  A79         0.1773
   1154  O4'        1.3330    8.4710   10.7360 O.3    79  A79        -0.3307
   1155  C3'       -0.1910    8.1780   12.4830 C.3    79  A79         0.1860
   1156  O3'       -0.8270    8.7610   13.6090 O.3    79  A79        -0.3112
   1157  C2'       -0.9920    8.2890   11.1860 C.3    79  A79         0.2309
   1158  O2'       -1.5240    9.5980   11.0260 O.3    79  A79        -0.2156
   1159  C1'        0.1070    8.0950   10.1420 C.3    79  A79         0.2408
   1160  N1        -2.2950    4.1130    7.9020 N.ar   79  A79        -0.2040
   1161  C2        -2.6990    5.3600    8.1720 C.ar   79  A79         0.2016
   1162  N3        -2.0200    6.3460    8.7550 N.ar   79  A79        -0.2048
   1163  C4        -0.7750    5.9540    9.0830 C.ar   79  A79         0.1692
   1164  C5        -0.2200    4.7110    8.8660 C.ar   79  A79         0.1518
   1165  C6        -1.0300    3.7520    8.2360 C.ar   79  A79         0.1919
   1166  N6        -0.6070    2.5130    7.9570 N.pl3  79  A79        -0.1054
   1167  N7         1.0850    4.6640    9.3300 N.ar   79  A79        -0.2193
   1168  C8         1.2930    5.8620    9.8140 C.ar   79  A79         0.1816
   1169  N9         0.2090    6.6920    9.6990 N.ar   79  A79        -0.2693
   1170  OP1        4.1950    6.8170   14.9270 O.3    79  A79        -0.4373
   1171  OP2        3.8600    5.0550   13.1080 O.co2  79  A79        -0.5172
   1172  P         -1.7650    7.8720   14.5700 P.3    80  C80         0.2141
   1173  C5'       -3.8400    8.2810   13.0390 C.3    80  C80         0.1812
   1174  O5'       -2.9010    7.3700   13.5800 O.3    80  C80        -0.3114
   1175  C4'       -5.0400    7.5650   12.4770 C.3    80  C80         0.1773
   1176  O4'       -4.6630    6.8170   11.2930 O.3    80  C80        -0.3307
   1177  C3'       -5.6560    6.5050   13.3600 C.3    80  C80         0.1860
   1178  O3'       -6.4380    7.0290   14.4090 O.3    80  C80        -0.3112
   1179  C2'       -6.4370    5.6750   12.3590 C.3    80  C80         0.2309
   1180  O2'       -7.5970    6.3720   11.9260 O.3    80  C80        -0.2156
   1181  C1'       -5.4490    5.6420   11.2070 C.3    80  C80         0.2420
   1182  N1        -4.5550    4.4690   11.2770 N.ar   80  C80        -0.2535
   1183  C2        -5.0910    3.2270   10.9160 C.ar   80  C80         0.3532
   1184  O2        -6.2860    3.1630   10.5940 O.2    80  C80        -0.2443
   1185  N3        -4.2970    2.1300   10.9400 N.ar   80  C80        -0.1739
   1186  C4        -3.0180    2.2470   11.3030 C.ar   80  C80         0.1759
   1187  N4        -2.2800    1.1330   11.3120 N.pl3  80  C80        -0.1070
   1188  C5        -2.4480    3.5050   11.6720 C.ar   80  C80         0.0566
   1189  C6        -3.2380    4.5870   11.6420 C.ar   80  C80         0.0850
   1190  OP1       -2.3520    8.7870   15.5820 O.3    80  C80        -0.4373
   1191  OP2       -0.9520    6.7220   15.0370 O.co2  80  C80        -0.5172
   1192  P         -6.3080    6.3930   15.8710 P.3    81  U81         0.2141
   1193  C5'       -8.3970    4.8600   15.5170 C.3    81  U81         0.1812
   1194  O5'       -7.0000    4.9720   15.6960 O.3    81  U81        -0.3114
   1195  C4'       -8.7790    3.4630   15.1280 C.3    81  U81         0.1773
   1196  O4'       -8.0740    3.0920   13.9170 O.3    81  U81        -0.3307
   1197  C3'       -8.3880    2.3720   16.1050 C.3    81  U81         0.1860
   1198  O3'       -9.2600    2.2610   17.2080 O.3    81  U81        -0.3112
   1199  C2'       -8.3670    1.1440   15.2190 C.3    81  U81         0.2309
   1200  O2'       -9.6930    0.7440   14.8980 O.3    81  U81        -0.2156
   1201  C1'       -7.7220    1.7240   13.9670 C.3    81  U81         0.2420
   1202  N1        -6.2450    1.6220   14.0240 N.ar   81  U81        -0.2534
   1203  C2        -5.6690    0.4240   13.6460 C.ar   81  U81         0.3546
   1204  O2        -6.3140   -0.5320   13.2470 O.2    81  U81        -0.2443
   1205  N3        -4.3010    0.3910   13.7450 N.ar   81  U81        -0.1530
   1206  C4        -3.4670    1.4030   14.1790 C.ar   81  U81         0.2846
   1207  O4        -2.2500    1.2080   14.1990 O.2    81  U81        -0.2650
   1208  C5        -4.1350    2.6090   14.5630 C.ar   81  U81         0.0814
   1209  C6        -5.4680    2.6690   14.4730 C.ar   81  U81         0.0870
   1210  OP1       -7.1130    7.2380   16.7830 O.3    81  U81        -0.4373
   1211  OP2       -4.8500    6.2210   16.1450 O.co2  81  U81        -0.5172
   1212  P         -8.7080    1.6620   18.5910 P.3    82  A82         0.2141
   1213  C5'       -9.8810   -0.5480   17.7960 C.3    82  A82         0.1812
   1214  O5'       -8.7410    0.0890   18.3410 O.3    82  A82        -0.3114
   1215  C4'       -9.5330   -1.9230   17.2950 C.3    82  A82         0.1773
   1216  O4'       -8.5860   -1.8150   16.2040 O.3    82  A82        -0.3307
   1217  C3'       -8.8410   -2.8320   18.2970 C.3    82  A82         0.1860
   1218  O3'       -9.7540   -3.4810   19.1560 O.3    82  A82        -0.3112
   1219  C2'       -8.0600   -3.7940   17.4120 C.3    82  A82         0.2309
   1220  O2'       -8.9020   -4.8350   16.9300 O.3    82  A82        -0.2156
   1221  C1'       -7.6820   -2.8960   16.2370 C.3    82  A82         0.2408
   1222  N1        -2.7230   -3.9040   15.6100 N.ar   82  A82        -0.2040
   1223  C2        -3.8310   -4.6390   15.4130 C.ar   82  A82         0.2016
   1224  N3        -5.1060   -4.3080   15.6040 N.ar   82  A82        -0.2048
   1225  C4        -5.1870   -3.0460   16.0500 C.ar   82  A82         0.1692
   1226  C5        -4.1490   -2.1690   16.2990 C.ar   82  A82         0.1518
   1227  C6        -2.8550   -2.6360   16.0620 C.ar   82  A82         0.1919
   1228  N6        -1.7700   -1.8910   16.2590 N.pl3  82  A82        -0.1054
   1229  N7        -4.6210   -0.9520   16.7560 N.ar   82  A82        -0.2193
   1230  C8        -5.9260   -1.1180   16.7720 C.ar   82  A82         0.1816
   1231  N9        -6.3230   -2.3630   16.3630 N.ar   82  A82        -0.2693
   1232  OP1       -9.6860    2.0340   19.6500 O.3    82  A82        -0.4373
   1233  OP2       -7.2950    2.1140   18.7300 O.co2  82  A82        -0.5172
   1234  P         -9.4590   -3.5820   20.7330 P.3    83  U83         0.2141
   1235  C5'       -9.0460   -6.1620   20.4750 C.3    83  U83         0.1812
   1236  O5'       -8.5450   -4.8820   20.8350 O.3    83  U83        -0.3114
   1237  C4'       -7.9350   -7.0730   20.0180 C.3    83  U83         0.1773
   1238  O4'       -7.1800   -6.4160   18.9720 O.3    83  U83        -0.3307
   1239  C3'       -6.8830   -7.4200   21.0620 C.3    83  U83         0.1860
   1240  O3'       -7.2860   -8.4650   21.9340 O.3    83  U83        -0.3112
   1241  C2'       -5.6590   -7.7570   20.2110 C.3    83  U83         0.2309
   1242  O2'       -5.7540   -9.0730   19.6790 O.3    83  U83        -0.2156
   1243  C1'       -5.8160   -6.7690   19.0590 C.3    83  U83         0.2420
   1244  N1        -5.0200   -5.5400   19.2540 N.ar   83  U83        -0.2534
   1245  C2        -3.6900   -5.6190   18.9100 C.ar   83  U83         0.3546
   1246  O2        -3.1870   -6.6470   18.4950 O.2    83  U83        -0.2443
   1247  N3        -2.9750   -4.4600   19.0850 N.ar   83  U83        -0.1530
   1248  C4        -3.4530   -3.2480   19.5470 C.ar   83  U83         0.2846
   1249  O4        -2.6750   -2.2910   19.6450 O.2    83  U83        -0.2650
   1250  C5        -4.8500   -3.2460   19.8660 C.ar   83  U83         0.0814
   1251  C6        -5.5690   -4.3640   19.7110 C.ar   83  U83         0.0870
   1252  OP1      -10.7690   -3.8220   21.3960 O.3    83  U83        -0.4373
   1253  OP2       -8.6690   -2.3780   21.1150 O.co2  83  U83        -0.5172
   1254  P         -7.1080   -8.3080   23.5240 P.3    84  A84         0.2141
   1255  C5'       -5.2820  -10.1760   23.4350 C.3    84  A84         0.1812
   1256  O5'       -5.6310   -8.8440   23.7610 O.3    84  A84        -0.3114
   1257  C4'       -3.7900  -10.3640   23.4420 C.3    84  A84         0.1773
   1258  O4'       -3.2130   -9.7370   22.2690 O.3    84  A84        -0.3307
   1259  C3'       -3.0380   -9.7080   24.5880 C.3    84  A84         0.1860
   1260  O3'       -3.1160  -10.4190   25.8070 O.3    84  A84        -0.3112
   1261  C2'       -1.6310   -9.6030   24.0250 C.3    84  A84         0.2309
   1262  O2'       -0.9960  -10.8730   24.0020 O.3    84  A84        -0.2156
   1263  C1'       -1.9410   -9.2040   22.5930 C.3    84  A84         0.2408
   1264  N1         0.8350   -4.9350   22.0890 N.ar   84  A84        -0.2040
   1265  C2         1.1740   -6.2270   22.2250 C.ar   84  A84         0.2016
   1266  N3         0.3930   -7.2980   22.3530 N.ar   84  A84        -0.2048
   1267  C4        -0.9000   -6.9280   22.3400 C.ar   84  A84         0.1692
   1268  C5        -1.4070   -5.6520   22.2170 C.ar   84  A84         0.1518
   1269  C6        -0.4800   -4.6100   22.0830 C.ar   84  A84         0.1919
   1270  N6        -0.8400   -3.3310   21.9540 N.pl3  84  A84        -0.1054
   1271  N7        -2.7920   -5.6640   22.2460 N.ar   84  A84        -0.2193
   1272  C8        -3.0950   -6.9310   22.3870 C.ar   84  A84         0.1816
   1273  N9        -1.9940   -7.7430   22.4440 N.ar   84  A84        -0.2693
   1274  OP1       -8.0890   -9.2140   24.1660 O.3    84  A84        -0.4373
   1275  OP2       -7.1730   -6.8570   23.8300 O.co2  84  A84        -0.5172
   1276  P         -3.0330   -9.6130   27.1960 P.3    85  A85         0.2141
   1277  C5'       -0.5580  -10.4510   27.4040 C.3    85  A85         0.1812
   1278  O5'       -1.4680   -9.3670   27.3670 O.3    85  A85        -0.3114
   1279  C4'        0.8620   -9.9690   27.2920 C.3    85  A85         0.1773
   1280  O4'        1.0400   -9.2790   26.0260 O.3    85  A85        -0.3307
   1281  C3'        1.2940   -8.9410   28.3260 C.3    85  A85         0.1860
   1282  O3'        1.6380   -9.5060   29.5820 O.3    85  A85        -0.3112
   1283  C2'        2.4450   -8.2310   27.6260 C.3    85  A85         0.2309
   1284  O2'        3.6240   -9.0240   27.6500 O.3    85  A85        -0.2156
   1285  C1'        1.9210   -8.1840   26.1920 C.3    85  A85         0.2408
   1286  N1         2.2960   -3.1290   25.2020 N.ar   85  A85        -0.2040
   1287  C2         3.2140   -4.0810   25.3920 C.ar   85  A85         0.2016
   1288  N3         3.0430   -5.3790   25.6420 N.ar   85  A85        -0.2048
   1289  C4         1.7360   -5.6960   25.6910 C.ar   85  A85         0.1692
   1290  C5         0.6770   -4.8290   25.5250 C.ar   85  A85         0.1518
   1291  C6         0.9940   -3.4850   25.2630 C.ar   85  A85         0.1919
   1292  N6         0.0740   -2.5420   25.0760 N.pl3  85  A85        -0.1054
   1293  N7        -0.5310   -5.5020   25.6560 N.ar   85  A85        -0.2193
   1294  C8        -0.1820   -6.7440   25.9000 C.ar   85  A85         0.1816
   1295  N9         1.1780   -6.9350   25.9260 N.ar   85  A85        -0.2693
   1296  OP1       -3.5310  -10.5180   28.2630 O.3    85  A85        -0.4373
   1297  OP2       -3.7250   -8.3180   26.9850 O.co2  85  A85        -0.5172
   1298  P          1.1640   -8.7840   30.9460 P.3    86  G86         0.2141
   1299  C5'        3.4540   -7.5470   31.3120 C.3    86  G86         0.1812
   1300  O5'        2.0720   -7.4680   30.9870 O.3    86  G86        -0.3114
   1301  C4'        4.2250   -6.3370   30.8300 C.3    86  G86         0.1773
   1302  O4'        3.8630   -6.0180   29.4560 O.3    86  G86        -0.3307
   1303  C3'        3.9640   -5.0310   31.5530 C.3    86  G86         0.1860
   1304  O3'        4.5480   -4.9540   32.8330 O.3    86  G86        -0.3112
   1305  C2'        4.5050   -4.0180   30.5590 C.3    86  G86         0.2309
   1306  O2'        5.9280   -4.0610   30.5160 O.3    86  G86        -0.2156
   1307  C1'        3.9680   -4.6140   29.2580 C.3    86  G86         0.2408
   1308  N1         1.5610   -0.4350   27.8190 N.ar   86  G86        -0.1709
   1309  C2         2.9000   -0.6730   28.0520 C.ar   86  G86         0.2606
   1310  N2         3.7560    0.3490   27.8740 N.pl3  86  G86        -0.0859
   1311  N3         3.3790   -1.8420   28.4340 N.ar   86  G86        -0.1918
   1312  C4         2.4140   -2.7730   28.5610 C.ar   86  G86         0.1723
   1313  C5         1.0580   -2.6530   28.3620 C.ar   86  G86         0.1748
   1314  C6         0.5410   -1.3840   27.9520 C.ar   86  G86         0.3023
   1315  O6        -0.6360   -1.0580   27.7140 O.2    86  G86        -0.2633
   1316  N7         0.4330   -3.8710   28.6180 N.ar   86  G86        -0.2173
   1317  C8         1.4010   -4.6840   28.9560 C.ar   86  G86         0.1817
   1318  N9         2.6330   -4.0730   28.9300 N.ar   86  G86        -0.2693
   1319  OP1        1.5310   -9.6860   32.0700 O.3    86  G86        -0.4373
   1320  OP2       -0.2640   -8.4110   30.7700 O.co2  86  G86        -0.5172
   1321  P          3.6710   -4.3940   34.0490 P.3    87  G87         0.2141
   1322  C5'        5.3550   -2.4220   33.9180 C.3    87  G87         0.1812
   1323  O5'        4.0190   -2.8480   34.0440 O.3    87  G87        -0.3114
   1324  C4'        5.4420   -1.0710   33.2750 C.3    87  G87         0.1773
   1325  O4'        4.8650   -1.1140   31.9520 O.3    87  G87        -0.3307
   1326  C3'        4.6720    0.0480   33.9440 C.3    87  G87         0.1860
   1327  O3'        5.2890    0.5280   35.1160 O.3    87  G87        -0.3112
   1328  C2'        4.6240    1.0710   32.8320 C.3    87  G87         0.2309
   1329  O2'        5.9030    1.6610   32.6530 O.3    87  G87        -0.2156
   1330  C1'        4.3470    0.1640   31.6350 C.3    87  G87         0.2408
   1331  N1         0.3000    2.6980   30.0840 N.ar   87  G87        -0.1709
   1332  C2         1.6130    3.1080   30.2230 C.ar   87  G87         0.2606
   1333  N2         1.8900    4.3840   29.9040 N.pl3  87  G87        -0.0859
   1334  N3         2.5860    2.3270   30.6470 N.ar   87  G87        -0.1918
   1335  C4         2.1340    1.0880   30.9210 C.ar   87  G87         0.1723
   1336  C5         0.8600    0.5770   30.8210 C.ar   87  G87         0.1748
   1337  C6        -0.1790    1.4210   30.3670 C.ar   87  G87         0.3023
   1338  O6        -1.3710    1.1410   30.2180 O.2    87  G87        -0.2633
   1339  N7         0.8310   -0.7540   31.2080 N.ar   87  G87        -0.2173
   1340  C8         2.0670   -1.0300   31.5400 C.ar   87  G87         0.1817
   1341  N9         2.9020    0.0480   31.3760 N.ar   87  G87        -0.2693
   1342  OP1        4.1780   -5.0270   35.2860 O.3    87  G87        -0.4373
   1343  OP2        2.2430   -4.5870   33.6780 O.co2  87  G87        -0.5172
   1344  P          4.4040    0.9370   36.3960 P.3    88  U88         0.2141
   1345  C5'        4.6850    3.2600   35.2200 C.3    88  U88         0.1813
   1346  O5'        3.9080    2.4020   36.0380 O.3    88  U88        -0.3114
   1347  C4'        3.8680    4.4350   34.7730 C.3    88  U88         0.1801
   1348  O4'        3.1000    4.0800   33.5950 O.3    88  U88        -0.3306
   1349  C3'        2.8420    4.9160   35.7850 C.3    88  U88         0.2161
   1350  O3'        3.3970    5.8460   36.6930 O.3    88  U88        -0.2175
   1351  C2'        1.7190    5.4950   34.9320 C.3    88  U88         0.2338
   1352  O2'        1.9830    6.8540   34.6140 O.3    88  U88        -0.2155
   1353  C1'        1.8180    4.6620   33.6500 C.3    88  U88         0.2421
   1354  N1         0.8220    3.5780   33.5900 N.ar   88  U88        -0.2534
   1355  C2        -0.4400    3.8540   33.0950 C.ar   88  U88         0.3546
   1356  O2        -0.7860    4.9700   32.7640 O.2    88  U88        -0.2443
   1357  N3        -1.2890    2.7780   33.0320 N.ar   88  U88        -0.1530
   1358  C4        -0.9890    1.4790   33.3900 C.ar   88  U88         0.2846
   1359  O4        -1.8490    0.6080   33.2870 O.2    88  U88        -0.2650
   1360  C5         0.3460    1.2710   33.8680 C.ar   88  U88         0.0814
   1361  C6         1.1900    2.3020   33.9410 C.ar   88  U88         0.0870
   1362  OP1        5.3270    0.9920   37.5600 O.3    88  U88        -0.4373
   1363  OP2        3.2510    0.0060   36.4470 O.co2  88  U88        -0.5172
@<TRIPOS>BOND
     1   969   968    2
     2   427   406    2
     3   966   961    1
     4   966   967    1
     5   966   964    1
     6   968   967   ar
     7   968   970   ar
     8   961   960    1
     9   426   406    1
    10   965   964    1
    11   394   393    1
    12   967   974   ar
    13   970   971   ar
    14   975   957    2
    15   406   392    1
    16   406   408    1
    17   974   973   ar
    18   964   962    1
    19   392   391    1
    20   971   973   ar
    21   971   972    2
    22   959   957    1
    23   959   958    1
    24   976   957    1
    25   960   958    1
    26   960   962    1
    27   957   943    1
    28   393   391    1
    29   393   395    1
    30   391   389    1
    31   449   428    2
    32   408   407    1
    33   962   963    1
    34   407   409    1
    35   448   428    1
    36   404   386    2
    37   428   430    1
    38   428   412    1
    39   395   396    1
    40   395   390    1
    41   963   977    1
    42   398   397    2
    43   943   942    1
    44   405   386    1
    45   389   387    1
    46   389   390    1
    47   998   977    2
    48   955   937    2
    49   436   435    1
    50   397   396   ar
    51   397   399   ar
    52   396   403   ar
    53   388   386    1
    54   388   387    1
    55   386   370    1
    56   430   429    1
    57   444   443    1
    58   409   411    1
    59   409   410    1
    60   942   944    1
    61   942   940    1
    62   403   402   ar
    63   423   424   ar
    64   423   420   ar
    65   412   411    1
    66   399   400   ar
    67   435   433    1
    68   435   437    1
    69   424   425   ar
    70   468   450    2
    71   977   997    1
    72   977   979    1
    73   411   413    1
    74   956   937    1
    75   443   442   ar
    76   443   438   ar
    77   445   442   ar
    78   445   446   ar
    79   937   939    1
    80   937   923    1
    81   939   938    1
    82   384   364    2
    83   945   944    1
    84   442   441   ar
    85   402   400   ar
    86   438   439   ar
    87   400   401    2
    88   944   946    1
    89   446   447   ar
    90   410   415    1
    91   433   434    1
    92   433   431    1
    93   441   447   ar
    94   441   440   ar
    95   439   440   ar
    96   447   437    1
    97   469   450    1
    98   938   940    1
    99   422   421    1
   100   385   364    1
   101   420   421   ar
   102   420   419   ar
   103   450   434    1
   104   450   452    1
   105   940   941    1
   106   465   464    2
   107   429   431    1
   108   425   415    1
   109   425   419   ar
   110   370   369    1
   111   437   432    1
   112   979   978    1
   113   364   366    1
   114   364   350    1
   115   415   413    1
   116   413   414    1
   117   421   416   ar
   118   431   432    1
   119   923   922    1
   120   419   418   ar
   121   464   466   ar
   122   464   463   ar
   123   978   980    1
   124   946   941    1
   125   946   947    1
   126   466   467   ar
   127   366   365    1
   128   994   995   ar
   129   994   991   ar
   130   369   367    1
   131   369   371    1
   132   362   344    2
   133   365   367    1
   134   995   996   ar
   135   954   947   ar
   136   954   953   ar
   137   947   948   ar
   138   452   451    1
   139   350   349    1
   140   416   417   ar
   141   993   992    1
   142   953   951   ar
   143   935   917    2
   144   463   461   ar
   145   467   460   ar
   146   948   949    2
   147   948   950   ar
   148   922   920    1
   149   922   924    1
   150   367   368    1
   151   418   417   ar
   152   918   920    1
   153   918   919    1
   154   371   372    1
   155   371   373    1
   156   991   992   ar
   157   991   990   ar
   158   363   344    1
   159   344   346    1
   160   344   327    1
   161   951   950   ar
   162   951   952    1
   163   482   481    1
   164   346   345    1
   165   980   981    1
   166   980   982    1
   167   981   986    1
   168   992   987   ar
   169   996   990   ar
   170   996   986    1
   171   381   382   ar
   172   381   378   ar
   173   920   921    1
   174   382   383   ar
   175   349   347    1
   176   349   351    1
   177   460   461   ar
   178   460   459    1
   179   481   483   ar
   180   481   480   ar
   181   461   462    2
   182   451   453    1
   183   345   347    1
   184   936   917    1
   185   917   919    1
   186   917   901    1
   187   483   484   ar
   188   342   321    2
   189   480   486   ar
   190   924   925    1
   191   924   926    1
   192   368   373    1
   193   378   379   ar
   194   378   377   ar
   195   383   373    1
   196   383   377   ar
   197   380   379    1
   198   990   989   ar
   199   986   984    1
   200   457   458    1
   201   457   459    1
   202   457   455    1
   203   984   982    1
   204   984   985    1
   205   982   983    1
   206   484   490   ar
   207   484   485   ar
   208   379   374   ar
   209   486   487    2
   210   486   485   ar
   211   479   490    1
   212   479   474    1
   213   479   477    1
   214   377   376   ar
   215   347   348    1
   216   490   489   ar
   217   474   473    1
   218   485   488   ar
   219   327   326    1
   220   459   454    1
   221   374   375   ar
   222   987   988   ar
   223   376   375   ar
   224   351   352    1
   225   351   353    1
   226   489   488   ar
   227  1017   999    2
   228   454   453    1
   229   478   477    1
   230   453   455    1
   231   921   926    1
   232   455   456    1
   233   926   927    1
   234   321   343    1
   235   321   323    1
   236   321   305    1
   237   901   900    1
   238   989   988   ar
   239   934   927   ar
   240   934   933   ar
   241   477   475    1
   242   927   928   ar
   243   361   360   ar
   244   361   354   ar
   245   983   999    1
   246   360   358   ar
   247   348   353    1
   248   933   931   ar
   249   473   471    1
   250   473   475    1
   251   326   324    1
   252   326   328    1
   253   322   323    1
   254   322   324    1
   255   505   504    1
   256   928   929    2
   257   928   930   ar
   258   353   354    1
   259   354   355   ar
   260   931   930   ar
   261   931   932    1
   262   999  1001    1
   263   999  1018    1
   264   358   359    1
   265   358   357   ar
   266   504   506   ar
   267   504   503   ar
   268   305   304    1
   269   506   507   ar
   270  1000  1001    1
   271  1000  1002    1
   272   324   325    1
   273   471   472    1
   274   456   470    1
   275   900   902    1
   276   900   898    1
   277   497   502    1
   278   497   496    1
   279   503   509   ar
   280   475   476    1
   281   355   357   ar
   282   355   356    2
   283   319   299    2
   284   502   513    1
   285   502   500    1
   286   507   513   ar
   287   507   508   ar
   288   472   470    1
   289   513   512   ar
   290   328   329    1
   291   328   330    1
   292   509   508   ar
   293   509   510    2
   294   508   511   ar
   295  1002  1003    1
   296  1002  1004    1
   297   902   903    1
   298   902   904    1
   299   512   511   ar
   300  1003  1008    1
   301   501   500    1
   302   496   494    1
   303   496   498    1
   304   470   492    2
   305   470   491    1
   306   476   493    1
   307   304   302    1
   308   304   306    1
   309   896   898    1
   310   896   897    1
   311   898   899    1
   312   533   532    2
   313   915   895    2
   314   494   495    1
   315   897   895    1
   316   325   330    1
   317   526   532   ar
   318   526   527   ar
   319   299   320    1
   320   299   301    1
   321   299   285    1
   322   500   498    1
   323   300   301    1
   324   300   302    1
   325   528   527    1
   326   340   339   ar
   327   340   341   ar
   328   532   531   ar
   329   330   341    1
   330   527   529   ar
   331   339   336   ar
   332   341   335   ar
   333   302   303    1
   334   531   530   ar
   335   531   534   ar
   336  1004  1005    1
   337  1004  1006    1
   338   495   493    1
   339   895   916    1
   340   895   879    1
   341   529   530   ar
   342   307   306    1
   343   306   308    1
   344   904   914    1
   345   904   899    1
   346   498   499    1
   347  1005  1019    1
   348   530   536   ar
   349   534   535   ar
   350   336   335   ar
   351   336   337   ar
   352  1008  1009    1
   353  1008  1006    1
   354   335   334   ar
   355   914   913   ar
   356   914   908   ar
   357   913   912   ar
   358  1011  1010    2
   359   493   515    2
   360   493   514    1
   361   908   907   ar
   362   908   909   ar
   363   912   909   ar
   364   907   906   ar
   365   536   535   ar
   366   536   525    1
   367  1009  1010   ar
   368  1009  1016   ar
   369  1010  1012   ar
   370   334   332   ar
   371   909   910   ar
   372   337   338    2
   373   337   331   ar
   374   285   284    1
   375  1037  1019    2
   376   906   905   ar
   377   910   905   ar
   378   910   911    1
   379  1016  1015   ar
   380   499   516    1
   381  1012  1013   ar
   382  1006  1007    1
   383   525   520    1
   384   525   523    1
   385   332   331   ar
   386   332   333    1
   387   520   519    1
   388  1015  1013   ar
   389  1013  1014    2
   390   303   308    1
   391  1019  1038    1
   392  1019  1021    1
   393   308   318    1
   394   879   878    1
   395   297   279    2
   396   317   318   ar
   397   317   316   ar
   398   318   312   ar
   399   284   286    1
   400   284   282    1
   401   554   553    1
   402   316   313   ar
   403   552   553   ar
   404   552   550   ar
   405   523   524    1
   406   523   521    1
   407   312   311   ar
   408   312   313   ar
   409   551   550    2
   410  1023  1028    1
   411  1023  1022    1
   412   519   517    1
   413   519   521    1
   414  1021  1020    1
   415   516   537    2
   416   516   538    1
   417   516   518    1
   418   553   555   ar
   419   311   310   ar
   420   287   286    1
   421   878   880    1
   422   878   876    1
   423   550   549   ar
   424   313   314   ar
   425   286   288    1
   426   298   279    1
   427   281   279    1
   428   281   280    1
   429   279   262    1
   430  1028  1029    1
   431  1028  1026    1
   432   517   518    1
   433   880   881    1
   434   880   882    1
   435   280   282    1
   436  1031  1030    2
   437   282   283    1
   438   310   309   ar
   439  1029  1030   ar
   440  1029  1036   ar
   441   555   556   ar
   442  1030  1032   ar
   443   314   309   ar
   444   314   315    1
   445   549   556   ar
   446   549   548    1
   447   521   522    1
   448  1022  1020    1
   449  1022  1024    1
   450  1036  1035   ar
   451  1032  1033   ar
   452   548   543    1
   453   548   546    1
   454   893   873    2
   455  1035  1033   ar
   456  1033  1034    2
   457   543   542    1
   458   884   883   ar
   459   884   885   ar
   460  1027  1026    1
   461   883   888   ar
   462   875   874    1
   463   875   873    1
   464   885   886   ar
   465   876   874    1
   466   876   877    1
   467   894   873    1
   468   888   889    1
   469   888   887   ar
   470   296   295   ar
   471   296   289   ar
   472  1026  1024    1
   473   288   283    1
   474   288   289    1
   475   886   887   ar
   476   886   892   ar
   477   873   857    1
   478   277   256    2
   479   262   261    1
   480   887   890   ar
   481   882   892    1
   482   882   877    1
   483   571   570    2
   484   892   891   ar
   485   295   293   ar
   486   289   290   ar
   487   572   570   ar
   488   572   573   ar
   489   522   539    1
   490   890   891   ar
   491  1024  1025    1
   492   547   546    1
   493   574   573    2
   494   570   569   ar
   495   546   544    1
   496   573   575   ar
   497   542   540    1
   498   542   544    1
   499   293   292   ar
   500   293   294    2
   501   290   292   ar
   502   290   291    2
   503   569   568    1
   504   569   576   ar
   505   278   256    1
   506   261   259    1
   507   261   263    1
   508   256   258    1
   509   256   239    1
   510   540   541    1
   511   541   539    1
   512   568   563    1
   513   568   566    1
   514  1025  1039    1
   515   575   576   ar
   516   258   257    1
   517   558   539    2
   518   563   562    1
   519   539   557    1
   520   857   856    1
   521   544   545    1
   522   257   259    1
   523  1043  1048    1
   524  1043  1042    1
   525   590   589   ar
   526   590   591   ar
   527   259   260    1
   528   263   264    1
   529   263   265    1
   530   589   594   ar
   531   567   566    1
   532  1048  1049    1
   533  1048  1046    1
   534   591   592   ar
   535  1049  1056   ar
   536  1049  1050   ar
   537  1056  1055   ar
   538   594   595    1
   539   594   593   ar
   540  1055  1053   ar
   541  1050  1051    2
   542  1050  1052   ar
   543   255   233    2
   544   239   238    1
   545   566   564    1
   546   856   858    1
   547   856   854    1
   548  1053  1052   ar
   549  1053  1054    2
   550   592   593   ar
   551   592   598   ar
   552   593   596   ar
   553  1040  1042    1
   554  1040  1041    1
   555   545   559    1
   556   562   560    1
   557   562   564    1
   558  1042  1044    1
   559  1039  1041    1
   560  1039  1058    2
   561  1039  1057    1
   562   598   588    1
   563   598   597   ar
   564   858   859    1
   565   858   860    1
   566   588   583    1
   567   588   586    1
   568   871   851    2
   569   583   582    1
   570   596   597   ar
   571   867   866    1
   572   861   866   ar
   573   861   862   ar
   574   872   851    1
   575   866   865   ar
   576   862   863   ar
   577   560   561    1
   578   260   265    1
   579   561   559    1
   580   265   276    1
   581  1047  1046    1
   582   853   851    1
   583   853   852    1
   584   865   864   ar
   585   865   868   ar
   586   564   565    1
   587   233   235    1
   588   233   254    1
   589   233   216    1
   590   851   837    1
   591  1046  1044    1
   592   276   275   ar
   593   276   270   ar
   594   863   864   ar
   595   235   234    1
   596   269   270   ar
   597   269   267   ar
   598   238   236    1
   599   238   240    1
   600   864   870   ar
   601   868   869   ar
   602   275   274   ar
   603   270   271   ar
   604   268   267    1
   605   267   266   ar
   606   854   852    1
   607   854   855    1
   608   234   236    1
   609   274   271   ar
   610   271   272   ar
   611   869   870   ar
   612   559   578    2
   613   559   577    1
   614   870   860    1
   615   587   586    1
   616   266   272   ar
   617  1044  1045    1
   618   272   273    2
   619   586   584    1
   620   860   855    1
   621   218   217    1
   622   236   237    1
   623   582   580    1
   624   582   584    1
   625   565   579    1
   626   580   581    1
   627   240   241    1
   628   240   242    1
   629   613   612    2
   630   216   215    1
   631  1045  1059    1
   632   605   610    1
   633   605   604    1
   634   217   215    1
   635   217   219    1
   636   612   614   ar
   637   612   611   ar
   638   837   836    1
   639   610   611    1
   640   610   608    1
   641   215   213    1
   642   584   585    1
   643   614   615   ar
   644   611   618   ar
   645   850   831    2
   646   615   616    1
   647   615   617   ar
   648   618   617   ar
   649   237   242    1
   650  1063  1068    1
   651  1063  1062    1
   652   581   579    1
   653   609   608    1
   654   849   831    1
   655   836   838    1
   656   836   834    1
   657   242   253    1
   658   579   600    2
   659   579   599    1
   660   846   845    1
   661   252   253   ar
   662   252   251   ar
   663   604   602    1
   664   604   606    1
   665  1078  1077   ar
   666  1078  1079   ar
   667   847   845   ar
   668   847   848   ar
   669   253   247   ar
   670   585   601    1
   671  1077  1074   ar
   672   831   833    1
   673   831   817    1
   674  1079  1068    1
   675  1079  1073   ar
   676  1068  1066    1
   677   608   606    1
   678   833   832    1
   679   251   248   ar
   680  1074  1073   ar
   681  1074  1075   ar
   682   830   811    2
   683   845   844   ar
   684  1073  1072   ar
   685  1076  1075    2
   686  1075  1069   ar
   687   219   230    1
   688   219   214    1
   689   247   248   ar
   690   247   246   ar
   691   838   839    1
   692   838   840    1
   693   213   211    1
   694   213   214    1
   695  1059  1061    1
   696  1059  1081    2
   697  1059  1080    1
   698   790   771    2
   699  1072  1070   ar
   700   848   841   ar
   701   602   603    1
   702  1060  1061    1
   703  1060  1062    1
   704   248   249   ar
   705  1069  1070   ar
   706   246   244   ar
   707  1070  1071    1
   708   211   212    1
   709   196   195    1
   710   229   230   ar
   711   229   228   ar
   712   230   224   ar
   713  1062  1064    1
   714   249   243   ar
   715   249   250    2
   716   244   243   ar
   717   244   245    1
   718   832   834    1
   719   228   225   ar
   720   844   842   ar
   721   809   791    2
   722   224   223   ar
   723   224   225   ar
   724   606   607    1
   725   829   811    1
   726   834   835    1
   727   841   842   ar
   728   841   840    1
   729   810   791    1
   730   223   221   ar
   731   225   226   ar
   732   603   601    1
   733   842   843    2
   734   811   813    1
   735   811   797    1
   736   221   220   ar
   737   221   222    1
   738   625   630    1
   739   625   624    1
   740   226   220   ar
   741   226   227    2
   742   633   632    2
   743   630   631    1
   744   630   628    1
   745   840   835    1
   746   601   620    2
   747   601   619    1
   748  1067  1066    1
   749  1066  1064    1
   750   817   816    1
   751   195   197    1
   752   195   193    1
   753   632   631   ar
   754   632   634   ar
   755   791   793    1
   756   791   777    1
   757   631   638   ar
   758   771   789    1
   759   771   773    1
   760   771   757    1
   761   607   621    1
   762   194   193    1
   763   194   210    1
   764  1064  1065    1
   765   212   210    1
   766   634   635   ar
   767   638   637   ar
   768   826   825    2
   769   629   628    1
   770   816   818    1
   771   816   814    1
   772   813   812    1
   773   772   773    1
   774   772   774    1
   775   827   825   ar
   776   827   828   ar
   777   623   622    1
   778   623   621    1
   779   635   637   ar
   780   635   636    2
   781   797   796    1
   782   624   622    1
   783   624   626    1
   784   825   824   ar
   785   197   207    1
   786   197   192    1
   787   231   210    2
   788   193   191    1
   789   628   626    1
   790   793   792    1
   791   828   821   ar
   792   210   232    1
   793   777   776    1
   794   818   819    1
   795   818   820    1
   796   207   206   ar
   797   207   201   ar
   798   757   756    1
   799   206   205   ar
   800   201   200   ar
   801   201   202   ar
   802   200   199   ar
   803   812   814    1
   804   621   639    2
   805   621   640    1
   806   205   202   ar
   807   824   822   ar
   808  1065  1082    1
   809   202   203   ar
   810   199   198   ar
   811   792   794    1
   812   796   794    1
   813   796   798    1
   814  1099  1098    2
   815   814   815    1
   816   821   822   ar
   817   821   820    1
   818   203   198   ar
   819   203   204    1
   820   776   774    1
   821   776   778    1
   822   774   775    1
   823  1100  1097   ar
   824  1100  1101   ar
   825   626   627    1
   826   822   823    2
   827   191   192    1
   828   191   189    1
   829  1098  1097   ar
   830  1098  1092   ar
   831   756   758    1
   832   756   754    1
   833  1097  1096   ar
   834  1101  1102   ar
   835   820   815    1
   836   645   650    1
   837   645   644    1
   838   758   759    1
   839   758   760    1
   840   794   795    1
   841  1092  1093   ar
   842  1104  1082    2
   843  1102  1096   ar
   844  1102  1091    1
   845  1096  1095   ar
   846   650   661    1
   847   650   648    1
   848   627   641    1
   849   798   799    1
   850   798   800    1
   851  1086  1091    1
   852  1086  1085    1
   853   653   652    1
   854   807   808   ar
   855   807   805   ar
   856   654   652   ar
   857   654   655   ar
   858  1082  1084    1
   859  1082  1103    1
   860  1093  1095   ar
   861  1093  1094    1
   862   808   801   ar
   863   775   780    1
   864   652   651   ar
   865   661   655   ar
   866   661   660   ar
   867  1091  1089    1
   868   766   765    1
   869   655   656   ar
   870   764   765   ar
   871   764   762   ar
   872   649   648    1
   873   763   762    2
   874   644   642    1
   875   644   646    1
   876   765   767   ar
   877   762   761   ar
   878   806   805    2
   879   778   780    1
   880   778   779    1
   881   805   804   ar
   882   189   190    1
   883   660   659   ar
   884   651   657   ar
   885   753   752    1
   886   753   751    1
   887   769   751    2
   888   788   787   ar
   889   788   781   ar
   890  1084  1083    1
   891   642   643    1
   892   795   800    1
   893   767   768   ar
   894   656   657   ar
   895   656   659   ar
   896   761   768   ar
   897   761   760    1
   898   787   785   ar
   899   754   752    1
   900   754   755    1
   901   801   800    1
   902   801   802   ar
   903   760   755    1
   904   770   751    1
   905   657   658    2
   906   648   646    1
   907  1083  1085    1
   908   643   641    1
   909   780   781    1
   910   751   734    1
   911   781   782   ar
   912   804   802   ar
   913  1085  1087    1
   914   802   803    2
   915   190   188    1
   916   641   662    2
   917   641   663    1
   918   785   786    1
   919   785   784   ar
   920  1121  1120    1
   921   646   647    1
   922   782   784   ar
   923   782   783    2
   924  1089  1090    1
   925  1089  1087    1
   926  1120  1115   ar
   927  1120  1119   ar
   928  1115  1116   ar
   929   172   171    1
   930   172   177    1
   931  1087  1088    1
   932   647   664    1
   933   174   188    1
   934   174   173    1
   935  1119  1122   ar
   936  1119  1118   ar
   937  1116  1117   ar
   938   171   169    1
   939   171   173    1
   940  1122  1123   ar
   941   177   178    1
   942   177   175    1
   943   186   168    2
   944   188   208    2
   945   188   209    1
   946   734   733    1
   947   178   185   ar
   948   178   179   ar
   949   185   184   ar
   950  1118  1117   ar
   951  1118  1124   ar
   952   180   179    2
   953   179   181   ar
   954   184   182   ar
   955  1123  1124   ar
   956   181   182   ar
   957   182   183    1
   958   169   170    1
   959  1124  1114    1
   960   173   175    1
   961  1144  1143    2
   962   745   744    2
   963   733   735    1
   964   733   731    1
   965  1137  1143   ar
   966  1137  1138   ar
   967  1088  1105    1
   968   738   744   ar
   969   738   739   ar
   970   744   743   ar
   971  1139  1138    1
   972  1143  1142   ar
   973   168   187    1
   974   168   170    1
   975   168   152    1
   976   665   666    1
   977   665   667    1
   978   175   176    1
   979  1114  1109    1
   980  1114  1112    1
   981  1109  1108    1
   982   664   666    1
   983   664   671    2
   984   664   670    1
   985   740   739    1
   986  1138  1140   ar
   987   739   741   ar
   988   743   746   ar
   989   743   742   ar
   990  1126  1105    2
   991   735   736    1
   992   735   737    1
   993   746   747   ar
   994   729   731    1
   995   729   730    1
   996   741   742   ar
   997   742   748   ar
   998  1142  1141   ar
   999  1142  1145   ar
  1000  1140  1141   ar
  1001   731   732    1
  1002   747   748   ar
  1003  1105  1107    1
  1004  1105  1125    1
  1005   750   728    2
  1006   748   737    1
  1007  1107  1106    1
  1008  1141  1147   ar
  1009  1145  1146   ar
  1010   152   151    1
  1011  1160  1161   ar
  1012  1160  1165   ar
  1013   667   668    1
  1014  1166  1165    1
  1015   749   728    1
  1016  1108  1106    1
  1017  1108  1110    1
  1018  1112  1113    1
  1019  1112  1110    1
  1020   737   732    1
  1021  1161  1162   ar
  1022  1165  1164   ar
  1023   730   728    1
  1024   728   714    1
  1025   679   672    2
  1026  1146  1147   ar
  1027  1147  1136    1
  1028   678   672    1
  1029   669   668    1
  1030   669   672    1
  1031  1162  1163   ar
  1032  1110  1111    1
  1033  1164  1163   ar
  1034  1164  1167   ar
  1035   672   674    1
  1036   151   153    1
  1037   151   149    1
  1038  1136  1131    1
  1039  1136  1134    1
  1040   154   153    1
  1041  1163  1169   ar
  1042  1167  1168   ar
  1043   153   155    1
  1044   166   146    2
  1045  1169  1168   ar
  1046  1169  1159    1
  1047  1131  1130    1
  1048   714   713    1
  1049   723   722    1
  1050   727   708    2
  1051  1134  1135    1
  1052  1134  1132    1
  1053  1159  1154    1
  1054  1159  1157    1
  1055   706   688    2
  1056  1111  1127    1
  1057   149   147    1
  1058   149   150    1
  1059   167   146    1
  1060   722   724   ar
  1061   722   721   ar
  1062   148   146    1
  1063   148   147    1
  1064   146   132    1
  1065   724   725   ar
  1066   674   673    1
  1067   713   715    1
  1068   713   711    1
  1069  1184  1183    2
  1070   726   708    1
  1071  1154  1153    1
  1072   710   708    1
  1073   710   709    1
  1074   708   694    1
  1075   721   719   ar
  1076   155   165    1
  1077   155   150    1
  1078  1183  1185   ar
  1079  1183  1182   ar
  1080  1185  1186   ar
  1081   685   688    1
  1082   685   684    1
  1083  1129  1127    1
  1084  1129  1128    1
  1085   715   716    1
  1086   715   717    1
  1087   725   718   ar
  1088  1158  1157    1
  1089  1130  1132    1
  1090  1130  1128    1
  1091  1157  1155    1
  1092  1181  1182    1
  1093  1181  1176    1
  1094  1181  1179    1
  1095  1182  1189   ar
  1096  1176  1175    1
  1097  1186  1187    1
  1098  1186  1188   ar
  1099   165   164   ar
  1100   165   159   ar
  1101  1132  1133    1
  1102  1149  1127    2
  1103   164   163   ar
  1104   673   675    1
  1105  1127  1148    1
  1106   719   718   ar
  1107   719   720    2
  1108   688   707    1
  1109   688   690    1
  1110   718   717    1
  1111  1189  1188   ar
  1112   159   158   ar
  1113   159   160   ar
  1114   709   711    1
  1115   163   160   ar
  1116   711   712    1
  1117   158   157   ar
  1118   684   683    1
  1119  1180  1179    1
  1120   132   131    1
  1121   689   690    1
  1122   689   691    1
  1123   160   161   ar
  1124   717   712    1
  1125  1153  1155    1
  1126  1153  1151    1
  1127   157   156   ar
  1128  1179  1177    1
  1129   694   693    1
  1130   161   156   ar
  1131   161   162    1
  1132   683   681    1
  1133  1175  1173    1
  1134  1175  1177    1
  1135  1155  1156    1
  1136  1133  1150    1
  1137   675   676    1
  1138   703   702    1
  1139   693   691    1
  1140   693   695    1
  1141   704   702   ar
  1142   704   705   ar
  1143  1151  1152    1
  1144  1173  1174    1
  1145   131   133    1
  1146   131   129    1
  1147  1171  1150    2
  1148   702   701   ar
  1149   691   692    1
  1150  1152  1150    1
  1151   705   698   ar
  1152  1204  1203    2
  1153  1177  1178    1
  1154   133   134    1
  1155   133   135    1
  1156  1150  1170    1
  1157  1174  1172    1
  1158   144   126    2
  1159  1156  1172    1
  1160  1203  1205   ar
  1161  1203  1202   ar
  1162   676   677    1
  1163  1205  1206   ar
  1164   701   699   ar
  1165   677   680    1
  1166   692   697    1
  1167  1196  1201    1
  1168  1196  1195    1
  1169  1201  1202    1
  1170  1201  1199    1
  1171   698   699   ar
  1172   698   697    1
  1173   681   682    1
  1174   695   697    1
  1175   695   696    1
  1176  1202  1209   ar
  1177  1206  1207    2
  1178  1206  1208   ar
  1179   686   680    2
  1180   128   127    1
  1181   128   126    1
  1182   699   700    2
  1183   145   126    1
  1184   129   127    1
  1185   129   130    1
  1186  1178  1192    1
  1187   126   110    1
  1188  1209  1208   ar
  1189  1172  1191    2
  1190  1172  1190    1
  1191   682   680    1
  1192   680   687    1
  1193   143   142   ar
  1194   143   136   ar
  1195  1200  1199    1
  1196   135   136    1
  1197   135   130    1
  1198   142   140   ar
  1199   136   137   ar
  1200  1195  1193    1
  1201  1195  1197    1
  1202  1199  1197    1
  1203   140   141    2
  1204   140   139   ar
  1205   137   139   ar
  1206   137   138    2
  1207  1223  1224   ar
  1208  1223  1222   ar
  1209  1193  1194    1
  1210  1224  1225   ar
  1211  1222  1227   ar
  1212  1194  1192    1
  1213  1192  1211    2
  1214  1192  1210    1
  1215   110   109    1
  1216  1225  1226   ar
  1217  1225  1231   ar
  1218  1227  1228    1
  1219  1227  1226   ar
  1220  1197  1198    1
  1221  1216  1221    1
  1222  1216  1215    1
  1223  1221  1231    1
  1224  1221  1219    1
  1225  1226  1229   ar
  1226  1231  1230   ar
  1227  1229  1230   ar
  1228  1220  1219    1
  1229   124   104    2
  1230   109   111    1
  1231   109   107    1
  1232   125   104    1
  1233  1198  1212    1
  1234  1215  1213    1
  1235  1215  1217    1
  1236  1219  1217    1
  1237   111   112    1
  1238   111   113    1
  1239   104   106    1
  1240   104    90    1
  1241   106   105    1
  1242  1213  1214    1
  1243  1217  1218    1
  1244   107   105    1
  1245   107   108    1
  1246  1214  1212    1
  1247   121   122   ar
  1248   121   118   ar
  1249   120   119    1
  1250  1246  1245    2
  1251   122   123   ar
  1252  1212  1233    2
  1253  1212  1232    1
  1254   118   119   ar
  1255   118   117   ar
  1256   119   114   ar
  1257   123   117   ar
  1258   123   113    1
  1259   117   116   ar
  1260   113   108    1
  1261   114   115   ar
  1262  1245  1247   ar
  1263  1245  1244   ar
  1264  1238  1243    1
  1265  1238  1237    1
  1266   116   115   ar
  1267  1243  1244    1
  1268  1243  1241    1
  1269  1247  1248   ar
  1270  1218  1234    1
  1271    90    89    1
  1272  1244  1251   ar
  1273   102    84    2
  1274   103    84    1
  1275  1248  1249    2
  1276  1248  1250   ar
  1277  1242  1241    1
  1278  1251  1250   ar
  1279  1237  1235    1
  1280  1237  1239    1
  1281    89    91    1
  1282    89    87    1
  1283    84    86    1
  1284    84    70    1
  1285  1241  1239    1
  1286    86    85    1
  1287  1235  1236    1
  1288  1234  1236    1
  1289  1234  1253    2
  1290  1234  1252    1
  1291    91    92    1
  1292    91    93    1
  1293    85    87    1
  1294  1239  1240    1
  1295   100   101   ar
  1296   100    98   ar
  1297    99    98    2
  1298    82    64    2
  1299    87    88    1
  1300   101    94   ar
  1301    98    97   ar
  1302    70    69    1
  1303    94    93    1
  1304    94    95   ar
  1305    97    95   ar
  1306    83    64    1
  1307  1240  1254    1
  1308  1270  1269    1
  1309    93    88    1
  1310    95    96    2
  1311  1269  1264   ar
  1312  1269  1268   ar
  1313  1264  1265   ar
  1314    64    66    1
  1315    64    50    1
  1316    66    65    1
  1317  1268  1271   ar
  1318  1268  1267   ar
  1319  1265  1266   ar
  1320  1271  1272   ar
  1321  1258  1263    1
  1322  1258  1257    1
  1323  1267  1266   ar
  1324  1267  1273   ar
  1325  1272  1273   ar
  1326  1273  1263    1
  1327    69    71    1
  1328    69    67    1
  1329  1263  1261    1
  1330    62    44    2
  1331    63    44    1
  1332    65    67    1
  1333    71    72    1
  1334    71    73    1
  1335    42    24    2
  1336  1255  1257    1
  1337  1255  1256    1
  1338    80    81   ar
  1339    80    78   ar
  1340  1257  1259    1
  1341  1254  1256    1
  1342  1254  1275    2
  1343  1254  1274    1
  1344    44    46    1
  1345    44    30    1
  1346    67    68    1
  1347    81    74   ar
  1348    50    49    1
  1349    79    78    2
  1350    78    77   ar
  1351  1262  1261    1
  1352  1261  1259    1
  1353    46    45    1
  1354    74    73    1
  1355    74    75   ar
  1356    73    68    1
  1357    49    47    1
  1358    49    51    1
  1359    43    24    1
  1360    77    75   ar
  1361  1259  1260    1
  1362    24    26    1
  1363    24     7    1
  1364    45    47    1
  1365    75    76    2
  1366    30    29    1
  1367    26    25    1
  1368  1292  1291    1
  1369    22     1    1
  1370  1286  1291   ar
  1371  1286  1287   ar
  1372  1291  1290   ar
  1373    47    48    1
  1374  1287  1288   ar
  1375    25    27    1
  1376  1290  1293   ar
  1377  1290  1289   ar
  1378    51    52    1
  1379    51    53    1
  1380    60    61   ar
  1381    60    58   ar
  1382  1288  1289   ar
  1383  1293  1294   ar
  1384  1289  1295   ar
  1385  1260  1276    1
  1386    29    27    1
  1387    29    31    1
  1388    61    54   ar
  1389     7     6    1
  1390  1294  1295   ar
  1391    59    58    1
  1392  1295  1285    1
  1393  1280  1285    1
  1394  1280  1279    1
  1395    58    57   ar
  1396  1285  1283    1
  1397    27    28    1
  1398    54    53    1
  1399    54    55   ar
  1400     1    23    1
  1401     1     3    1
  1402    48    53    1
  1403    57    55   ar
  1404    55    56    2
  1405     2     3    1
  1406     2     4    1
  1407  1297  1276    2
  1408     6     4    1
  1409     6     8    1
  1410    31    32    1
  1411    31    33    1
  1412  1276  1278    1
  1413  1276  1296    1
  1414  1279  1277    1
  1415  1279  1281    1
  1416  1278  1277    1
  1417    41    40   ar
  1418    41    34   ar
  1419    40    38   ar
  1420     4     5    1
  1421    28    33    1
  1422  1283  1284    1
  1423  1283  1281    1
  1424  1315  1314    2
  1425  1308  1314   ar
  1426  1308  1309   ar
  1427  1310  1309    1
  1428  1314  1313   ar
  1429    33    34    1
  1430    34    35   ar
  1431  1309  1311   ar
  1432    38    39    1
  1433    38    37   ar
  1434     8     9    1
  1435     8    10    1
  1436  1281  1282    1
  1437  1313  1312   ar
  1438  1313  1316   ar
  1439  1311  1312   ar
  1440  1312  1318   ar
  1441  1316  1317   ar
  1442    35    37   ar
  1443    35    36    2
  1444     5    10    1
  1445  1318  1317   ar
  1446  1318  1307    1
  1447  1307  1302    1
  1448  1307  1305    1
  1449    10    21    1
  1450    20    21   ar
  1451    20    19   ar
  1452  1302  1301    1
  1453  1282  1298    1
  1454    21    15   ar
  1455    19    16   ar
  1456  1333  1332    1
  1457  1331  1332   ar
  1458  1331  1337   ar
  1459  1338  1337    2
  1460  1332  1334   ar
  1461  1337  1336   ar
  1462    15    16   ar
  1463    15    14   ar
  1464    16    17   ar
  1465  1306  1305    1
  1466  1305  1303    1
  1467  1334  1335   ar
  1468  1320  1298    2
  1469  1336  1335   ar
  1470  1336  1339   ar
  1471  1301  1299    1
  1472  1301  1303    1
  1473  1335  1341   ar
  1474    14    12   ar
  1475  1298  1300    1
  1476  1298  1319    1
  1477  1300  1299    1
  1478    17    18    2
  1479    17    11   ar
  1480  1339  1340   ar
  1481  1341  1340   ar
  1482  1341  1330    1
  1483    12    11   ar
  1484    12    13    1
  1485  1303  1304    1
  1486  1330  1325    1
  1487  1330  1328    1
  1488  1325  1324    1
  1489  1329  1328    1
  1490  1356  1355    2
  1491  1328  1326    1
  1492  1304  1321    1
  1493  1357  1355   ar
  1494  1357  1358   ar
  1495  1355  1354   ar
  1496  1324  1322    1
  1497  1324  1326    1
  1498  1359  1358    2
  1499  1358  1360   ar
  1500  1354  1353    1
  1501  1354  1361   ar
  1502  1348  1353    1
  1503  1348  1347    1
  1504  1353  1351    1
  1505  1343  1321    2
  1506  1360  1361   ar
  1507  1322  1323    1
  1508  1326  1327    1
  1509  1323  1321    1
  1510  1321  1342    1
  1511  1352  1351    1
  1512  1347  1345    1
  1513  1347  1349    1
  1514  1351  1349    1
  1515  1327  1344    1
  1516  1345  1346    1
  1517  1349  1350    1
  1518  1346  1344    1
  1519  1344  1363    2
  1520  1344  1362    1
