ligand
 OpenBabel11021811513D
libRbt.so/2013.1/901 2013/11/27
 44 50  0  0  0  0  0  0  0  0999 V2000
   -5.9526   34.8832  -12.9914 P   0  0  2  0  0  0  0  0  0  0  0  0
   -9.3079   35.3853  -17.1980 P   0  0  1  0  0  0  0  0  0  0  0  0
   -5.4446   36.0173  -12.1046 O   0  5  0  0  0  0  0  0  0  0  0  0
   -8.7298   34.4870  -18.2642 O   0  5  0  0  0  0  0  0  0  0  0  0
   -4.9093   33.7943  -12.9181 O   0  0  0  0  0  0  0  0  0  0  0  0
  -10.7347   35.7749  -17.6470 O   0  0  0  0  0  0  0  0  0  0  0  0
   -6.4169   36.9183  -14.4350 C   0  0  0  0  0  0  0  0  0  0  0  0
   -9.5411   35.2974  -14.6277 C   0  0  0  0  0  0  0  0  0  0  0  0
   -6.1082   35.5182  -14.4110 O   0  0  0  0  0  0  0  0  0  0  0  0
   -9.1346   34.5364  -15.8000 O   0  0  0  0  0  0  0  0  0  0  0  0
   -6.4931   37.4149  -15.8748 C   0  0  1  0  0  0  0  0  0  0  0  0
   -9.4477   34.3070  -13.4062 C   0  0  1  0  0  0  0  0  0  0  0  0
   -5.2911   37.7049  -16.2665 O   0  0  0  0  0  0  0  0  0  0  0  0
  -10.0989   33.2760  -13.7625 O   0  0  0  0  0  0  0  0  0  0  0  0
   -7.0233   36.3763  -16.8363 C   0  0  1  0  0  0  0  0  0  0  0  0
   -8.0148   33.7610  -13.2468 C   0  0  1  0  0  0  0  0  0  0  0  0
   -8.3322   36.6758  -17.0493 O   0  0  0  0  0  0  0  0  0  0  0  0
   -7.3596   34.3895  -12.2632 O   0  0  0  0  0  0  0  0  0  0  0  0
   -6.1889   36.6225  -18.1414 C   0  0  1  0  0  0  0  0  0  0  0  0
   -8.1394   32.2477  -12.9575 C   0  0  1  0  0  0  0  0  0  0  0  0
   -6.9992   37.3838  -19.1300 O   0  0  0  0  0  0  0  0  0  0  0  0
   -7.9325   31.9736  -11.4990 O   0  0  0  0  0  0  0  0  0  0  0  0
   -5.1374   37.2903  -17.7890 C   0  0  2  0  0  0  0  0  0  0  0  0
   -9.3482   31.9451  -13.2865 C   0  0  2  0  0  0  0  0  0  0  0  0
   -0.5742   35.8894  -20.2458 N   0  0  0  0  0  0  0  0  0  0  0  0
   -1.3761   36.9346  -20.5947 C   0  0  0  0  0  0  0  0  0  0  0  0
   -2.5255   37.2110  -19.8990 N   0  0  0  0  0  0  0  0  0  0  0  0
   -2.8669   36.4169  -18.8392 C   0  0  0  0  0  0  0  0  0  0  0  0
   -2.0921   35.3810  -18.4886 C   0  0  0  0  0  0  0  0  0  0  0  0
   -0.9209   35.1128  -19.1950 C   0  0  0  0  0  0  0  0  0  0  0  0
   -0.0231   34.0599  -18.9295 N   0  0  0  0  0  0  0  0  0  0  0  0
   -2.6599   34.7827  -17.4200 N   0  0  0  0  0  0  0  0  0  0  0  0
   -3.8038   35.4610  -17.1189 C   0  0  0  0  0  0  0  0  0  0  0  0
   -3.9243   36.4788  -17.9812 N   0  0  0  0  0  0  0  0  0  0  0  0
  -10.5380   27.1238  -14.8551 N   0  0  0  0  0  0  0  0  0  0  0  0
  -10.6516   27.6218  -13.5959 C   0  0  0  0  0  0  0  0  0  0  0  0
  -10.2876   28.9151  -13.3464 N   0  0  0  0  0  0  0  0  0  0  0  0
   -9.8195   29.7015  -14.3528 C   0  0  0  0  0  0  0  0  0  0  0  0
   -9.7082   29.2154  -15.6056 C   0  0  0  0  0  0  0  0  0  0  0  0
  -10.0776   27.8959  -15.8501 C   0  0  0  0  0  0  0  0  0  0  0  0
  -10.0248   27.1704  -17.0935 N   0  0  0  0  0  0  0  0  0  0  0  0
   -9.2188   30.2102  -16.3840 N   0  0  0  0  0  0  0  0  0  0  0  0
   -9.0350   31.3129  -15.6030 C   0  0  0  0  0  0  0  0  0  0  0  0
   -9.4121   30.9891  -14.3496 N   0  0  0  0  0  0  0  0  0  0  0  0
  1  3  1  1  0  0  0
  1  5  2  0  0  0  0
  1  9  1  0  0  0  0
  1 18  1  0  0  0  0
  2  4  1  6  0  0  0
  2  6  2  0  0  0  0
  2 10  1  0  0  0  0
  2 17  1  0  0  0  0
  7  9  1  0  0  0  0
  8 10  1  0  0  0  0
 11  7  1  1  0  0  0
 11 13  1  0  0  0  0
 11 15  1  0  0  0  0
 12  8  1  6  0  0  0
 12 14  1  0  0  0  0
 12 16  1  0  0  0  0
 13 23  1  0  0  0  0
 14 24  1  0  0  0  0
 15 17  1  6  0  0  0
 15 19  1  0  0  0  0
 16 18  1  1  0  0  0
 16 20  1  0  0  0  0
 19 21  1  6  0  0  0
 19 23  1  0  0  0  0
 20 22  1  1  0  0  0
 20 24  1  0  0  0  0
 23 34  1  1  0  0  0
 24 44  1  6  0  0  0
 25 26  2  0  0  0  0
 25 30  1  0  0  0  0
 26 27  1  0  0  0  0
 27 28  2  0  0  0  0
 28 29  1  0  0  0  0
 28 34  1  0  0  0  0
 29 30  2  0  0  0  0
 29 32  1  0  0  0  0
 30 31  1  0  0  0  0
 32 33  2  0  0  0  0
 33 34  1  0  0  0  0
 35 36  2  0  0  0  0
 35 40  1  0  0  0  0
 36 37  1  0  0  0  0
 37 38  2  0  0  0  0
 38 39  1  0  0  0  0
 38 44  1  0  0  0  0
 39 40  2  0  0  0  0
 39 42  1  0  0  0  0
 40 41  1  0  0  0  0
 42 43  2  0  0  0  0
 43 44  1  0  0  0  0
M  CHG  2   3  -1   4  -1
M  END
>  <CHROM.1>
-133.69080201,-128.29676386,-6.94082825,34.04577510,-15.84929820,0.40756453
0.76157893,0.42738720

>  <Name>
ligand

>  <RI>
0

>  <Rbt.Current_Directory>
/home/itssahil/PROJECTS/Mol_Feturizer/New_Systems/rnas/4QLM

>  <Rbt.Executable>
rbdock ($Id: //depot/dev/client3/rdock/2013.1/src/exe/rbdock.cxx#4 $)

>  <Rbt.Library>
libRbt.so (2013.1, Build901 2013/11/27)

>  <Rbt.Parameter_File>
/export/apps/rDock/src/rDock_2013.1_src/data/scripts/dock_solv.prm

>  <Rbt.Receptor>
prm/pocket_docking_2.prm

>  <SCORE>
-9.64398

>  <SCORE.INTER>
-9.94582

>  <SCORE.INTER.CONST>
1

>  <SCORE.INTER.POLAR>
0

>  <SCORE.INTER.ROT>
2

>  <SCORE.INTER.SOLV>
34.0029

>  <SCORE.INTER.VDW>
-22.8982

>  <SCORE.INTER.norm>
-0.226041

>  <SCORE.INTRA>
0.173017

>  <SCORE.INTRA.DIHEDRAL>
0.0131083

>  <SCORE.INTRA.DIHEDRAL.0>
2.32994

>  <SCORE.INTRA.POLAR>
0

>  <SCORE.INTRA.POLAR.0>
0

>  <SCORE.INTRA.REPUL>
0

>  <SCORE.INTRA.REPUL.0>
0

>  <SCORE.INTRA.SOLV>
-0.00188254

>  <SCORE.INTRA.SOLV.lig_0>
-117.703

>  <SCORE.INTRA.VDW>
0.167404

>  <SCORE.INTRA.VDW.0>
-1.59997

>  <SCORE.INTRA.norm>
0.0039322

>  <SCORE.RESTR>
0.12883

>  <SCORE.RESTR.CAVITY>
0.12883

>  <SCORE.RESTR.norm>
0.00292795

>  <SCORE.SYSTEM>
0

>  <SCORE.SYSTEM.CONST>
0

>  <SCORE.SYSTEM.DIHEDRAL>
0

>  <SCORE.SYSTEM.SOLV>
0

>  <SCORE.SYSTEM.norm>
0

>  <SCORE.heavy>
44

>  <SCORE.norm>
-0.219181

>  <RMSD>
0.432

$$$$
ligand
 OpenBabel11021811513D
libRbt.so/2013.1/901 2013/11/27
 44 50  0  0  0  0  0  0  0  0999 V2000
   -5.6586   34.8098  -12.6621 P   0  0  2  0  0  0  0  0  0  0  0  0
   -8.9323   36.1014  -16.7633 P   0  0  1  0  0  0  0  0  0  0  0  0
   -5.0252   35.7860  -11.6740 O   0  5  0  0  0  0  0  0  0  0  0  0
   -8.4598   35.2527  -17.9185 O   0  5  0  0  0  0  0  0  0  0  0  0
   -4.7462   33.6077  -12.7069 O   0  0  0  0  0  0  0  0  0  0  0  0
  -10.3051   36.6927  -17.1569 O   0  0  0  0  0  0  0  0  0  0  0  0
   -5.8870   37.0167  -13.8944 C   0  0  0  0  0  0  0  0  0  0  0  0
   -9.1755   35.7878  -14.2117 C   0  0  0  0  0  0  0  0  0  0  0  0
   -5.7400   35.5951  -14.0110 O   0  0  0  0  0  0  0  0  0  0  0  0
   -8.8578   35.1048  -15.4572 O   0  0  0  0  0  0  0  0  0  0  0  0
   -5.9052   37.6581  -15.2779 C   0  0  1  0  0  0  0  0  0  0  0  0
   -9.1964   34.6778  -13.0941 C   0  0  1  0  0  0  0  0  0  0  0  0
   -4.6778   37.8470  -15.6520 O   0  0  0  0  0  0  0  0  0  0  0  0
   -9.9606   33.7675  -13.5427 O   0  0  0  0  0  0  0  0  0  0  0  0
   -6.5499   36.7862  -16.3307 C   0  0  1  0  0  0  0  0  0  0  0  0
   -7.8351   33.9596  -13.0042 C   0  0  1  0  0  0  0  0  0  0  0  0
   -7.8160   37.2519  -16.4994 O   0  0  0  0  0  0  0  0  0  0  0  0
   -7.1131   34.4098  -11.9708 O   0  0  0  0  0  0  0  0  0  0  0  0
   -5.6921   37.0635  -17.6143 C   0  0  1  0  0  0  0  0  0  0  0  0
   -8.1316   32.4492  -12.8632 C   0  0  1  0  0  0  0  0  0  0  0  0
   -6.4097   38.0054  -18.5148 O   0  0  0  0  0  0  0  0  0  0  0  0
   -7.9581   32.0110  -11.4408 O   0  0  0  0  0  0  0  0  0  0  0  0
   -4.5715   37.5696  -17.2094 C   0  0  2  0  0  0  0  0  0  0  0  0
   -9.3668   32.3195  -13.2073 C   0  0  2  0  0  0  0  0  0  0  0  0
   -0.5133   35.6150  -20.1303 N   0  0  0  0  0  0  0  0  0  0  0  0
   -1.2801   36.6934  -20.4566 C   0  0  0  0  0  0  0  0  0  0  0  0
   -2.2968   37.1156  -19.6383 N   0  0  0  0  0  0  0  0  0  0  0  0
   -2.5405   36.4349  -18.4775 C   0  0  0  0  0  0  0  0  0  0  0  0
   -1.7996   35.3681  -18.1467 C   0  0  0  0  0  0  0  0  0  0  0  0
   -0.7622   34.9515  -18.9791 C   0  0  0  0  0  0  0  0  0  0  0  0
    0.0868   33.8512  -18.7475 N   0  0  0  0  0  0  0  0  0  0  0  0
   -2.2516   34.9013  -16.9635 N   0  0  0  0  0  0  0  0  0  0  0  0
   -3.2901   35.6925  -16.5702 C   0  0  0  0  0  0  0  0  0  0  0  0
   -3.4586   36.6486  -17.4930 N   0  0  0  0  0  0  0  0  0  0  0  0
  -10.4025   27.6035  -15.1583 N   0  0  0  0  0  0  0  0  0  0  0  0
  -10.3304   27.9434  -13.8447 C   0  0  0  0  0  0  0  0  0  0  0  0
  -10.0393   29.2323  -13.4963 N   0  0  0  0  0  0  0  0  0  0  0  0
   -9.8284   30.1711  -14.4578 C   0  0  0  0  0  0  0  0  0  0  0  0
   -9.9029   29.8420  -15.7633 C   0  0  0  0  0  0  0  0  0  0  0  0
  -10.1960   28.5261  -16.1094 C   0  0  0  0  0  0  0  0  0  0  0  0
  -10.3056   27.9531  -17.4265 N   0  0  0  0  0  0  0  0  0  0  0  0
   -9.6481   30.9636  -16.4789 N   0  0  0  0  0  0  0  0  0  0  0  0
   -9.4219   31.9859  -15.6051 C   0  0  0  0  0  0  0  0  0  0  0  0
   -9.5387   31.4863  -14.3581 N   0  0  0  0  0  0  0  0  0  0  0  0
  1  3  1  1  0  0  0
  1  5  2  0  0  0  0
  1  9  1  0  0  0  0
  1 18  1  0  0  0  0
  2  4  1  6  0  0  0
  2  6  2  0  0  0  0
  2 10  1  0  0  0  0
  2 17  1  0  0  0  0
  7  9  1  0  0  0  0
  8 10  1  0  0  0  0
 11  7  1  1  0  0  0
 11 13  1  0  0  0  0
 11 15  1  0  0  0  0
 12  8  1  6  0  0  0
 12 14  1  0  0  0  0
 12 16  1  0  0  0  0
 13 23  1  0  0  0  0
 14 24  1  0  0  0  0
 15 17  1  6  0  0  0
 15 19  1  0  0  0  0
 16 18  1  1  0  0  0
 16 20  1  0  0  0  0
 19 21  1  6  0  0  0
 19 23  1  0  0  0  0
 20 22  1  1  0  0  0
 20 24  1  0  0  0  0
 23 34  1  1  0  0  0
 24 44  1  6  0  0  0
 25 26  2  0  0  0  0
 25 30  1  0  0  0  0
 26 27  1  0  0  0  0
 27 28  2  0  0  0  0
 28 29  1  0  0  0  0
 28 34  1  0  0  0  0
 29 30  2  0  0  0  0
 29 32  1  0  0  0  0
 30 31  1  0  0  0  0
 32 33  2  0  0  0  0
 33 34  1  0  0  0  0
 35 36  2  0  0  0  0
 35 40  1  0  0  0  0
 36 37  1  0  0  0  0
 37 38  2  0  0  0  0
 38 39  1  0  0  0  0
 38 44  1  0  0  0  0
 39 40  2  0  0  0  0
 39 42  1  0  0  0  0
 40 41  1  0  0  0  0
 42 43  2  0  0  0  0
 43 44  1  0  0  0  0
M  CHG  2   3  -1   4  -1
M  END
>  <CHROM.1>
-146.71866171,-143.87577276,-6.70254014,34.33668406,-15.59084891,2.79674025
-0.71944335,-2.64037247

>  <Name>
ligand

>  <RI>
0

>  <Rbt.Current_Directory>
/home/itssahil/PROJECTS/Mol_Feturizer/New_Systems/rnas/4QLM

>  <Rbt.Executable>
rbdock ($Id: //depot/dev/client3/rdock/2013.1/src/exe/rbdock.cxx#4 $)

>  <Rbt.Library>
libRbt.so (2013.1, Build901 2013/11/27)

>  <Rbt.Parameter_File>
/export/apps/rDock/src/rDock_2013.1_src/data/scripts/dock_solv.prm

>  <Rbt.Receptor>
prm/pocket_docking_2.prm

>  <SCORE>
-19.1633

>  <SCORE.INTER>
-19.1598

>  <SCORE.INTER.CONST>
1

>  <SCORE.INTER.POLAR>
0

>  <SCORE.INTER.ROT>
2

>  <SCORE.INTER.SOLV>
35.7342

>  <SCORE.INTER.VDW>
-29.6179

>  <SCORE.INTER.norm>
-0.435449

>  <SCORE.INTRA>
-0.0806307

>  <SCORE.INTRA.DIHEDRAL>
-0.0207529

>  <SCORE.INTRA.DIHEDRAL.0>
2.32994

>  <SCORE.INTRA.POLAR>
0

>  <SCORE.INTRA.POLAR.0>
0

>  <SCORE.INTRA.REPUL>
0

>  <SCORE.INTRA.REPUL.0>
0

>  <SCORE.INTRA.SOLV>
0.0021443

>  <SCORE.INTRA.SOLV.lig_0>
-117.703

>  <SCORE.INTRA.VDW>
-0.0713264

>  <SCORE.INTRA.VDW.0>
-1.59997

>  <SCORE.INTRA.norm>
-0.00183252

>  <SCORE.RESTR>
0.0770959

>  <SCORE.RESTR.CAVITY>
0.0770959

>  <SCORE.RESTR.norm>
0.00175218

>  <SCORE.SYSTEM>
0

>  <SCORE.SYSTEM.CONST>
0

>  <SCORE.SYSTEM.DIHEDRAL>
0

>  <SCORE.SYSTEM.SOLV>
0

>  <SCORE.SYSTEM.norm>
0

>  <SCORE.heavy>
44

>  <SCORE.norm>
-0.43553

>  <RMSD>
0.479

$$$$
ligand
 OpenBabel11021811513D
libRbt.so/2013.1/901 2013/11/27
 44 50  0  0  0  0  0  0  0  0999 V2000
   -5.6684   34.8248  -12.6614 P   0  0  2  0  0  0  0  0  0  0  0  0
   -8.9065   36.0531  -16.8102 P   0  0  1  0  0  0  0  0  0  0  0  0
   -5.0634   35.8137  -11.6682 O   0  5  0  0  0  0  0  0  0  0  0  0
   -8.4055   35.2083  -17.9562 O   0  5  0  0  0  0  0  0  0  0  0  0
   -4.7372   33.6367  -12.6900 O   0  0  0  0  0  0  0  0  0  0  0  0
  -10.2828   36.6219  -17.2240 O   0  0  0  0  0  0  0  0  0  0  0  0
   -5.9142   37.0241  -13.9039 C   0  0  0  0  0  0  0  0  0  0  0  0
   -9.1789   35.7436  -14.2610 C   0  0  0  0  0  0  0  0  0  0  0  0
   -5.7439   35.6045  -14.0138 O   0  0  0  0  0  0  0  0  0  0  0  0
   -8.8341   35.0618  -15.4999 O   0  0  0  0  0  0  0  0  0  0  0  0
   -5.9238   37.6609  -15.2896 C   0  0  1  0  0  0  0  0  0  0  0  0
   -9.1977   34.6369  -13.1401 C   0  0  1  0  0  0  0  0  0  0  0  0
   -4.6945   37.8675  -15.6480 O   0  0  0  0  0  0  0  0  0  0  0  0
   -9.9418   33.7135  -13.5959 O   0  0  0  0  0  0  0  0  0  0  0  0
   -6.5408   36.7759  -16.3481 C   0  0  1  0  0  0  0  0  0  0  0  0
   -7.8268   33.9401  -13.0297 C   0  0  1  0  0  0  0  0  0  0  0  0
   -7.8115   37.2214  -16.5351 O   0  0  0  0  0  0  0  0  0  0  0  0
   -7.1258   34.4045  -11.9883 O   0  0  0  0  0  0  0  0  0  0  0  0
   -5.6703   37.0623  -17.6210 C   0  0  1  0  0  0  0  0  0  0  0  0
   -8.1020   32.4257  -12.8877 C   0  0  1  0  0  0  0  0  0  0  0  0
   -6.3902   37.9904  -18.5341 O   0  0  0  0  0  0  0  0  0  0  0  0
   -7.9409   31.9947  -11.4617 O   0  0  0  0  0  0  0  0  0  0  0  0
   -4.5632   37.5869  -17.2028 C   0  0  2  0  0  0  0  0  0  0  0  0
   -9.3303   32.2760  -13.2479 C   0  0  2  0  0  0  0  0  0  0  0  0
   -0.5261   35.5930  -20.1265 N   0  0  0  0  0  0  0  0  0  0  0  0
   -1.3303   36.6326  -20.4867 C   0  0  0  0  0  0  0  0  0  0  0  0
   -2.3377   37.0692  -19.6645 N   0  0  0  0  0  0  0  0  0  0  0  0
   -2.5335   36.4428  -18.4647 C   0  0  0  0  0  0  0  0  0  0  0  0
   -1.7554   35.4143  -18.0998 C   0  0  0  0  0  0  0  0  0  0  0  0
   -0.7278   34.9831  -18.9370 C   0  0  0  0  0  0  0  0  0  0  0  0
    0.1569   33.9190  -18.6724 N   0  0  0  0  0  0  0  0  0  0  0  0
   -2.1648   34.9970  -16.8831 N   0  0  0  0  0  0  0  0  0  0  0  0
   -3.2147   35.7797  -16.5033 C   0  0  0  0  0  0  0  0  0  0  0  0
   -3.4326   36.6823  -17.4686 N   0  0  0  0  0  0  0  0  0  0  0  0
  -10.4193   27.5740  -15.2039 N   0  0  0  0  0  0  0  0  0  0  0  0
  -10.3981   27.9250  -13.8914 C   0  0  0  0  0  0  0  0  0  0  0  0
  -10.0838   29.2079  -13.5409 N   0  0  0  0  0  0  0  0  0  0  0  0
   -9.7993   30.1299  -14.4998 C   0  0  0  0  0  0  0  0  0  0  0  0
   -9.8228   29.7899  -15.8044 C   0  0  0  0  0  0  0  0  0  0  0  0
  -10.1401   28.4801  -16.1522 C   0  0  0  0  0  0  0  0  0  0  0  0
  -10.2056   27.8973  -17.4679 N   0  0  0  0  0  0  0  0  0  0  0  0
   -9.5002   30.8959  -16.5170 N   0  0  0  0  0  0  0  0  0  0  0  0
   -9.2836   31.9197  -15.6425 C   0  0  0  0  0  0  0  0  0  0  0  0
   -9.4739   31.4367  -14.3981 N   0  0  0  0  0  0  0  0  0  0  0  0
  1  3  1  1  0  0  0
  1  5  2  0  0  0  0
  1  9  1  0  0  0  0
  1 18  1  0  0  0  0
  2  4  1  6  0  0  0
  2  6  2  0  0  0  0
  2 10  1  0  0  0  0
  2 17  1  0  0  0  0
  7  9  1  0  0  0  0
  8 10  1  0  0  0  0
 11  7  1  1  0  0  0
 11 13  1  0  0  0  0
 11 15  1  0  0  0  0
 12  8  1  6  0  0  0
 12 14  1  0  0  0  0
 12 16  1  0  0  0  0
 13 23  1  0  0  0  0
 14 24  1  0  0  0  0
 15 17  1  6  0  0  0
 15 19  1  0  0  0  0
 16 18  1  1  0  0  0
 16 20  1  0  0  0  0
 19 21  1  6  0  0  0
 19 23  1  0  0  0  0
 20 22  1  1  0  0  0
 20 24  1  0  0  0  0
 23 34  1  1  0  0  0
 24 44  1  6  0  0  0
 25 26  2  0  0  0  0
 25 30  1  0  0  0  0
 26 27  1  0  0  0  0
 27 28  2  0  0  0  0
 28 29  1  0  0  0  0
 28 34  1  0  0  0  0
 29 30  2  0  0  0  0
 29 32  1  0  0  0  0
 30 31  1  0  0  0  0
 32 33  2  0  0  0  0
 33 34  1  0  0  0  0
 35 36  2  0  0  0  0
 35 40  1  0  0  0  0
 36 37  1  0  0  0  0
 37 38  2  0  0  0  0
 38 39  1  0  0  0  0
 38 44  1  0  0  0  0
 39 40  2  0  0  0  0
 39 42  1  0  0  0  0
 40 41  1  0  0  0  0
 42 43  2  0  0  0  0
 43 44  1  0  0  0  0
M  CHG  2   3  -1   4  -1
M  END
>  <CHROM.1>
-150.31282305,-140.58723109,-6.68344973,34.32291937,-15.60681139,2.80640381
-0.72624071,-2.61092755

>  <Name>
ligand

>  <RI>
0

>  <Rbt.Current_Directory>
/home/itssahil/PROJECTS/Mol_Feturizer/New_Systems/rnas/4QLM

>  <Rbt.Executable>
rbdock ($Id: //depot/dev/client3/rdock/2013.1/src/exe/rbdock.cxx#4 $)

>  <Rbt.Library>
libRbt.so (2013.1, Build901 2013/11/27)

>  <Rbt.Parameter_File>
/export/apps/rDock/src/rDock_2013.1_src/data/scripts/dock_solv.prm

>  <Rbt.Receptor>
prm/pocket_docking_2.prm

>  <SCORE>
-19.2342

>  <SCORE.INTER>
-19.2131

>  <SCORE.INTER.CONST>
1

>  <SCORE.INTER.POLAR>
0

>  <SCORE.INTER.ROT>
2

>  <SCORE.INTER.SOLV>
35.7884

>  <SCORE.INTER.VDW>
-29.6715

>  <SCORE.INTER.norm>
-0.436661

>  <SCORE.INTRA>
-0.102892

>  <SCORE.INTRA.DIHEDRAL>
-0.0247073

>  <SCORE.INTRA.DIHEDRAL.0>
2.32994

>  <SCORE.INTRA.POLAR>
0

>  <SCORE.INTRA.POLAR.0>
0

>  <SCORE.INTRA.REPUL>
0

>  <SCORE.INTRA.REPUL.0>
0

>  <SCORE.INTRA.SOLV>
0.00255153

>  <SCORE.INTRA.SOLV.lig_0>
-117.703

>  <SCORE.INTRA.VDW>
-0.0918141

>  <SCORE.INTRA.VDW.0>
-1.59997

>  <SCORE.INTRA.norm>
-0.00233846

>  <SCORE.RESTR>
0.0817825

>  <SCORE.RESTR.CAVITY>
0.0817825

>  <SCORE.RESTR.norm>
0.00185869

>  <SCORE.SYSTEM>
0

>  <SCORE.SYSTEM.CONST>
0

>  <SCORE.SYSTEM.DIHEDRAL>
0

>  <SCORE.SYSTEM.SOLV>
0

>  <SCORE.SYSTEM.norm>
0

>  <SCORE.heavy>
44

>  <SCORE.norm>
-0.437141

>  <RMSD>
0.491

$$$$
ligand
 OpenBabel11021811513D
libRbt.so/2013.1/901 2013/11/27
 44 50  0  0  0  0  0  0  0  0999 V2000
   -5.6619   34.8379  -12.6592 P   0  0  2  0  0  0  0  0  0  0  0  0
   -8.8924   36.0574  -16.8164 P   0  0  1  0  0  0  0  0  0  0  0  0
   -5.0600   35.8288  -11.6660 O   0  5  0  0  0  0  0  0  0  0  0  0
   -8.3881   35.2116  -17.9603 O   0  5  0  0  0  0  0  0  0  0  0  0
   -4.7293   33.6508  -12.6843 O   0  0  0  0  0  0  0  0  0  0  0  0
  -10.2684   36.6243  -17.2338 O   0  0  0  0  0  0  0  0  0  0  0  0
   -5.9074   37.0354  -13.9051 C   0  0  0  0  0  0  0  0  0  0  0  0
   -9.1699   35.7510  -14.2674 C   0  0  0  0  0  0  0  0  0  0  0  0
   -5.7353   35.6158  -14.0128 O   0  0  0  0  0  0  0  0  0  0  0  0
   -8.8217   35.0679  -15.5047 O   0  0  0  0  0  0  0  0  0  0  0  0
   -5.9147   37.6703  -15.2916 C   0  0  1  0  0  0  0  0  0  0  0  0
   -9.1899   34.6457  -13.1452 C   0  0  1  0  0  0  0  0  0  0  0  0
   -4.6848   37.8778  -15.6477 O   0  0  0  0  0  0  0  0  0  0  0  0
   -9.9321   33.7210  -13.6013 O   0  0  0  0  0  0  0  0  0  0  0  0
   -6.5285   36.7833  -16.3503 C   0  0  1  0  0  0  0  0  0  0  0  0
   -7.8186   33.9504  -13.0309 C   0  0  1  0  0  0  0  0  0  0  0  0
   -7.7993   37.2273  -16.5406 O   0  0  0  0  0  0  0  0  0  0  0  0
   -7.1202   34.4170  -11.9886 O   0  0  0  0  0  0  0  0  0  0  0  0
   -5.6556   37.0690  -17.6217 C   0  0  1  0  0  0  0  0  0  0  0  0
   -8.0924   32.4360  -12.8875 C   0  0  1  0  0  0  0  0  0  0  0  0
   -6.3746   37.9951  -18.5376 O   0  0  0  0  0  0  0  0  0  0  0  0
   -7.9338   32.0070  -11.4606 O   0  0  0  0  0  0  0  0  0  0  0  0
   -4.5499   37.5953  -17.2019 C   0  0  2  0  0  0  0  0  0  0  0  0
   -9.3198   32.2845  -13.2501 C   0  0  2  0  0  0  0  0  0  0  0  0
   -0.4926   35.6145  -20.1064 N   0  0  0  0  0  0  0  0  0  0  0  0
   -1.2937   36.6563  -20.4671 C   0  0  0  0  0  0  0  0  0  0  0  0
   -2.3069   37.0892  -19.6500 N   0  0  0  0  0  0  0  0  0  0  0  0
   -2.5116   36.4567  -18.4549 C   0  0  0  0  0  0  0  0  0  0  0  0
   -1.7366   35.4260  -18.0897 C   0  0  0  0  0  0  0  0  0  0  0  0
   -0.7032   34.9986  -18.9216 C   0  0  0  0  0  0  0  0  0  0  0  0
    0.1791   33.9328  -18.6560 N   0  0  0  0  0  0  0  0  0  0  0  0
   -2.1550   35.0027  -16.8781 N   0  0  0  0  0  0  0  0  0  0  0  0
   -3.2074   35.7838  -16.5019 C   0  0  0  0  0  0  0  0  0  0  0  0
   -3.4178   36.6916  -17.4641 N   0  0  0  0  0  0  0  0  0  0  0  0
  -10.4196   27.5840  -15.2036 N   0  0  0  0  0  0  0  0  0  0  0  0
  -10.4053   27.9376  -13.8917 C   0  0  0  0  0  0  0  0  0  0  0  0
  -10.0869   29.2196  -13.5418 N   0  0  0  0  0  0  0  0  0  0  0  0
   -9.7914   30.1382  -14.5007 C   0  0  0  0  0  0  0  0  0  0  0  0
   -9.8081   29.7957  -15.8047 C   0  0  0  0  0  0  0  0  0  0  0  0
  -10.1297   28.4867  -16.1520 C   0  0  0  0  0  0  0  0  0  0  0  0
  -10.1895   27.9015  -17.4669 N   0  0  0  0  0  0  0  0  0  0  0  0
   -9.4753   30.8985  -16.5175 N   0  0  0  0  0  0  0  0  0  0  0  0
   -9.2592   31.9230  -15.6437 C   0  0  0  0  0  0  0  0  0  0  0  0
   -9.4601   31.4435  -14.3995 N   0  0  0  0  0  0  0  0  0  0  0  0
  1  3  1  1  0  0  0
  1  5  2  0  0  0  0
  1  9  1  0  0  0  0
  1 18  1  0  0  0  0
  2  4  1  6  0  0  0
  2  6  2  0  0  0  0
  2 10  1  0  0  0  0
  2 17  1  0  0  0  0
  7  9  1  0  0  0  0
  8 10  1  0  0  0  0
 11  7  1  1  0  0  0
 11 13  1  0  0  0  0
 11 15  1  0  0  0  0
 12  8  1  6  0  0  0
 12 14  1  0  0  0  0
 12 16  1  0  0  0  0
 13 23  1  0  0  0  0
 14 24  1  0  0  0  0
 15 17  1  6  0  0  0
 15 19  1  0  0  0  0
 16 18  1  1  0  0  0
 16 20  1  0  0  0  0
 19 21  1  6  0  0  0
 19 23  1  0  0  0  0
 20 22  1  1  0  0  0
 20 24  1  0  0  0  0
 23 34  1  1  0  0  0
 24 44  1  6  0  0  0
 25 26  2  0  0  0  0
 25 30  1  0  0  0  0
 26 27  1  0  0  0  0
 27 28  2  0  0  0  0
 28 29  1  0  0  0  0
 28 34  1  0  0  0  0
 29 30  2  0  0  0  0
 29 32  1  0  0  0  0
 30 31  1  0  0  0  0
 32 33  2  0  0  0  0
 33 34  1  0  0  0  0
 35 36  2  0  0  0  0
 35 40  1  0  0  0  0
 36 37  1  0  0  0  0
 37 38  2  0  0  0  0
 38 39  1  0  0  0  0
 38 44  1  0  0  0  0
 39 40  2  0  0  0  0
 39 42  1  0  0  0  0
 40 41  1  0  0  0  0
 42 43  2  0  0  0  0
 43 44  1  0  0  0  0
M  CHG  2   3  -1   4  -1
M  END
>  <CHROM.1>
-149.83184441,-140.15273165,-6.67084222,34.33242217,-15.60571612,2.80540341
-0.72456100,-2.61139828

>  <Name>
ligand

>  <RI>
0

>  <Rbt.Current_Directory>
/home/itssahil/PROJECTS/Mol_Feturizer/New_Systems/rnas/4QLM

>  <Rbt.Executable>
rbdock ($Id: //depot/dev/client3/rdock/2013.1/src/exe/rbdock.cxx#4 $)

>  <Rbt.Library>
libRbt.so (2013.1, Build901 2013/11/27)

>  <Rbt.Parameter_File>
/export/apps/rDock/src/rDock_2013.1_src/data/scripts/dock_solv.prm

>  <Rbt.Receptor>
prm/pocket_docking_2.prm

>  <SCORE>
-19.3185

>  <SCORE.INTER>
-19.3097

>  <SCORE.INTER.CONST>
1

>  <SCORE.INTER.POLAR>
0

>  <SCORE.INTER.ROT>
2

>  <SCORE.INTER.SOLV>
35.8273

>  <SCORE.INTER.VDW>
-29.7489

>  <SCORE.INTER.norm>
-0.438857

>  <SCORE.INTRA>
-0.103652

>  <SCORE.INTRA.DIHEDRAL>
-0.0246049

>  <SCORE.INTRA.DIHEDRAL.0>
2.32994

>  <SCORE.INTRA.POLAR>
0

>  <SCORE.INTRA.POLAR.0>
0

>  <SCORE.INTRA.REPUL>
0

>  <SCORE.INTRA.REPUL.0>
0

>  <SCORE.INTRA.SOLV>
0.00238157

>  <SCORE.INTRA.SOLV.lig_0>
-117.703

>  <SCORE.INTRA.VDW>
-0.0925401

>  <SCORE.INTRA.VDW.0>
-1.59997

>  <SCORE.INTRA.norm>
-0.00235572

>  <SCORE.RESTR>
0.0948803

>  <SCORE.RESTR.CAVITY>
0.0948803

>  <SCORE.RESTR.norm>
0.00215637

>  <SCORE.SYSTEM>
0

>  <SCORE.SYSTEM.CONST>
0

>  <SCORE.SYSTEM.DIHEDRAL>
0

>  <SCORE.SYSTEM.SOLV>
0

>  <SCORE.SYSTEM.norm>
0

>  <SCORE.heavy>
44

>  <SCORE.norm>
-0.439057

>  <RMSD>
0.505

$$$$
ligand
 OpenBabel11021811513D
libRbt.so/2013.1/901 2013/11/27
 44 50  0  0  0  0  0  0  0  0999 V2000
   -5.6744   34.8518  -12.6553 P   0  0  2  0  0  0  0  0  0  0  0  0
   -8.8760   36.0259  -16.8477 P   0  0  1  0  0  0  0  0  0  0  0  0
   -5.0823   35.8530  -11.6666 O   0  5  0  0  0  0  0  0  0  0  0  0
   -8.3612   35.1709  -17.9800 O   0  5  0  0  0  0  0  0  0  0  0  0
   -4.7391   33.6666  -12.6625 O   0  0  0  0  0  0  0  0  0  0  0  0
  -10.2501   36.5858  -17.2807 O   0  0  0  0  0  0  0  0  0  0  0  0
   -5.9153   37.0372  -13.9230 C   0  0  0  0  0  0  0  0  0  0  0  0
   -9.1722   35.7422  -14.2982 C   0  0  0  0  0  0  0  0  0  0  0  0
   -5.7393   35.6171  -14.0164 O   0  0  0  0  0  0  0  0  0  0  0  0
   -8.8131   35.0486  -15.5265 O   0  0  0  0  0  0  0  0  0  0  0  0
   -5.9135   37.6594  -15.3153 C   0  0  1  0  0  0  0  0  0  0  0  0
   -9.1982   34.6471  -13.1661 C   0  0  1  0  0  0  0  0  0  0  0  0
   -4.6815   37.8665  -15.6639 O   0  0  0  0  0  0  0  0  0  0  0  0
   -9.9349   33.7165  -13.6194 O   0  0  0  0  0  0  0  0  0  0  0  0
   -6.5173   36.7614  -16.3704 C   0  0  1  0  0  0  0  0  0  0  0  0
   -7.8263   33.9560  -13.0352 C   0  0  1  0  0  0  0  0  0  0  0  0
   -7.7876   37.2008  -16.5744 O   0  0  0  0  0  0  0  0  0  0  0  0
   -7.1368   34.4336  -11.9919 O   0  0  0  0  0  0  0  0  0  0  0  0
   -5.6354   37.0375  -17.6377 C   0  0  1  0  0  0  0  0  0  0  0  0
   -8.0978   32.4423  -12.8800 C   0  0  1  0  0  0  0  0  0  0  0  0
   -6.3495   37.9536  -18.5675 O   0  0  0  0  0  0  0  0  0  0  0  0
   -7.9492   32.0267  -11.4481 O   0  0  0  0  0  0  0  0  0  0  0  0
   -4.5341   37.5702  -17.2144 C   0  0  2  0  0  0  0  0  0  0  0  0
   -9.3222   32.2847  -13.2504 C   0  0  2  0  0  0  0  0  0  0  0  0
   -0.4923   35.5272  -20.0973 N   0  0  0  0  0  0  0  0  0  0  0  0
   -1.3048   36.5513  -20.4823 C   0  0  0  0  0  0  0  0  0  0  0  0
   -2.3127   37.0026  -19.6687 N   0  0  0  0  0  0  0  0  0  0  0  0
   -2.5005   36.4069  -18.4521 C   0  0  0  0  0  0  0  0  0  0  0  0
   -1.7140   35.3939  -18.0626 C   0  0  0  0  0  0  0  0  0  0  0  0
   -0.6861   34.9476  -18.8915 C   0  0  0  0  0  0  0  0  0  0  0  0
    0.2068   33.8971  -18.6015 N   0  0  0  0  0  0  0  0  0  0  0  0
   -2.1168   35.0062  -16.8339 N   0  0  0  0  0  0  0  0  0  0  0  0
   -3.1710   35.7914  -16.4716 C   0  0  0  0  0  0  0  0  0  0  0  0
   -3.3981   36.6666  -17.4598 N   0  0  0  0  0  0  0  0  0  0  0  0
  -10.2999   27.5405  -15.1626 N   0  0  0  0  0  0  0  0  0  0  0  0
  -10.2784   27.9021  -13.8529 C   0  0  0  0  0  0  0  0  0  0  0  0
   -9.9958   29.1955  -13.5146 N   0  0  0  0  0  0  0  0  0  0  0  0
   -9.7431   30.1173  -14.4825 C   0  0  0  0  0  0  0  0  0  0  0  0
   -9.7672   29.7667  -15.7843 C   0  0  0  0  0  0  0  0  0  0  0  0
  -10.0520   28.4463  -16.1198 C   0  0  0  0  0  0  0  0  0  0  0  0
  -10.1118   27.8517  -17.4305 N   0  0  0  0  0  0  0  0  0  0  0  0
   -9.4795   30.8753  -16.5077 N   0  0  0  0  0  0  0  0  0  0  0  0
   -9.2837   31.9112  -15.6426 C   0  0  0  0  0  0  0  0  0  0  0  0
   -9.4519   31.4330  -14.3932 N   0  0  0  0  0  0  0  0  0  0  0  0
  1  3  1  1  0  0  0
  1  5  2  0  0  0  0
  1  9  1  0  0  0  0
  1 18  1  0  0  0  0
  2  4  1  6  0  0  0
  2  6  2  0  0  0  0
  2 10  1  0  0  0  0
  2 17  1  0  0  0  0
  7  9  1  0  0  0  0
  8 10  1  0  0  0  0
 11  7  1  1  0  0  0
 11 13  1  0  0  0  0
 11 15  1  0  0  0  0
 12  8  1  6  0  0  0
 12 14  1  0  0  0  0
 12 16  1  0  0  0  0
 13 23  1  0  0  0  0
 14 24  1  0  0  0  0
 15 17  1  6  0  0  0
 15 19  1  0  0  0  0
 16 18  1  1  0  0  0
 16 20  1  0  0  0  0
 19 21  1  6  0  0  0
 19 23  1  0  0  0  0
 20 22  1  1  0  0  0
 20 24  1  0  0  0  0
 23 34  1  1  0  0  0
 24 44  1  6  0  0  0
 25 26  2  0  0  0  0
 25 30  1  0  0  0  0
 26 27  1  0  0  0  0
 27 28  2  0  0  0  0
 28 29  1  0  0  0  0
 28 34  1  0  0  0  0
 29 30  2  0  0  0  0
 29 32  1  0  0  0  0
 30 31  1  0  0  0  0
 32 33  2  0  0  0  0
 33 34  1  0  0  0  0
 35 36  2  0  0  0  0
 35 40  1  0  0  0  0
 36 37  1  0  0  0  0
 37 38  2  0  0  0  0
 38 39  1  0  0  0  0
 38 44  1  0  0  0  0
 39 40  2  0  0  0  0
 39 42  1  0  0  0  0
 40 41  1  0  0  0  0
 42 43  2  0  0  0  0
 43 44  1  0  0  0  0
M  CHG  2   3  -1   4  -1
M  END
>  <CHROM.1>
-151.51063936,-142.25457721,-6.65531602,34.31219434,-15.60576043,2.78796247
-0.71969880,-2.64050229

>  <Name>
ligand

>  <RI>
0

>  <Rbt.Current_Directory>
/home/itssahil/PROJECTS/Mol_Feturizer/New_Systems/rnas/4QLM

>  <Rbt.Executable>
rbdock ($Id: //depot/dev/client3/rdock/2013.1/src/exe/rbdock.cxx#4 $)

>  <Rbt.Library>
libRbt.so (2013.1, Build901 2013/11/27)

>  <Rbt.Parameter_File>
/export/apps/rDock/src/rDock_2013.1_src/data/scripts/dock_solv.prm

>  <Rbt.Receptor>
prm/pocket_docking_2.prm

>  <SCORE>
-19.2224

>  <SCORE.INTER>
-19.2206

>  <SCORE.INTER.CONST>
1

>  <SCORE.INTER.POLAR>
0

>  <SCORE.INTER.ROT>
2

>  <SCORE.INTER.SOLV>
35.713

>  <SCORE.INTER.VDW>
-29.6514

>  <SCORE.INTER.norm>
-0.436831

>  <SCORE.INTRA>
-0.0984671

>  <SCORE.INTRA.DIHEDRAL>
-0.0245629

>  <SCORE.INTRA.DIHEDRAL.0>
2.32994

>  <SCORE.INTRA.POLAR>
0

>  <SCORE.INTRA.POLAR.0>
0

>  <SCORE.INTRA.REPUL>
0

>  <SCORE.INTRA.REPUL.0>
0

>  <SCORE.INTRA.SOLV>
0.00306176

>  <SCORE.INTRA.SOLV.lig_0>
-117.703

>  <SCORE.INTRA.VDW>
-0.0877165

>  <SCORE.INTRA.VDW.0>
-1.59997

>  <SCORE.INTRA.norm>
-0.00223789

>  <SCORE.RESTR>
0.0966236

>  <SCORE.RESTR.CAVITY>
0.0966236

>  <SCORE.RESTR.norm>
0.00219599

>  <SCORE.SYSTEM>
0

>  <SCORE.SYSTEM.CONST>
0

>  <SCORE.SYSTEM.DIHEDRAL>
0

>  <SCORE.SYSTEM.SOLV>
0

>  <SCORE.SYSTEM.norm>
0

>  <SCORE.heavy>
44

>  <SCORE.norm>
-0.436873

>  <RMSD>
0.507

$$$$
ligand
 OpenBabel11021811513D
libRbt.so/2013.1/901 2013/11/27
 44 50  0  0  0  0  0  0  0  0999 V2000
   -5.6600   34.8438  -12.6554 P   0  0  2  0  0  0  0  0  0  0  0  0
   -8.8921   36.0771  -16.8072 P   0  0  1  0  0  0  0  0  0  0  0  0
   -5.0511   35.8322  -11.6640 O   0  5  0  0  0  0  0  0  0  0  0  0
   -8.3944   35.2280  -17.9514 O   0  5  0  0  0  0  0  0  0  0  0  0
   -4.7336   33.6519  -12.6814 O   0  0  0  0  0  0  0  0  0  0  0  0
  -10.2660   36.6508  -17.2224 O   0  0  0  0  0  0  0  0  0  0  0  0
   -5.8965   37.0417  -13.9023 C   0  0  0  0  0  0  0  0  0  0  0  0
   -9.1663   35.7739  -14.2575 C   0  0  0  0  0  0  0  0  0  0  0  0
   -5.7319   35.6212  -14.0093 O   0  0  0  0  0  0  0  0  0  0  0  0
   -8.8240   35.0881  -15.4949 O   0  0  0  0  0  0  0  0  0  0  0  0
   -5.9032   37.6757  -15.2892 C   0  0  1  0  0  0  0  0  0  0  0  0
   -9.1899   34.6695  -13.1344 C   0  0  1  0  0  0  0  0  0  0  0  0
   -4.6730   37.8766  -15.6478 O   0  0  0  0  0  0  0  0  0  0  0  0
   -9.9377   33.7483  -13.5885 O   0  0  0  0  0  0  0  0  0  0  0  0
   -6.5236   36.7911  -16.3461 C   0  0  1  0  0  0  0  0  0  0  0  0
   -7.8219   33.9672  -13.0224 C   0  0  1  0  0  0  0  0  0  0  0  0
   -7.7924   37.2415  -16.5343 O   0  0  0  0  0  0  0  0  0  0  0  0
   -7.1191   34.4308  -11.9817 O   0  0  0  0  0  0  0  0  0  0  0  0
   -5.6516   37.0715  -17.6194 C   0  0  1  0  0  0  0  0  0  0  0  0
   -8.1033   32.4543  -12.8774 C   0  0  1  0  0  0  0  0  0  0  0  0
   -6.3676   38.0006  -18.5345 O   0  0  0  0  0  0  0  0  0  0  0  0
   -7.9442   32.0254  -11.4505 O   0  0  0  0  0  0  0  0  0  0  0  0
   -4.5425   37.5924  -17.2020 C   0  0  2  0  0  0  0  0  0  0  0  0
   -9.3322   32.3089  -13.2375 C   0  0  2  0  0  0  0  0  0  0  0  0
   -0.4856   35.6047  -20.1025 N   0  0  0  0  0  0  0  0  0  0  0  0
   -1.2777   36.6548  -20.4590 C   0  0  0  0  0  0  0  0  0  0  0  0
   -2.2916   37.0887  -19.6434 N   0  0  0  0  0  0  0  0  0  0  0  0
   -2.5064   36.4487  -18.4541 C   0  0  0  0  0  0  0  0  0  0  0  0
   -1.7404   35.4099  -18.0930 C   0  0  0  0  0  0  0  0  0  0  0  0
   -0.7061   34.9814  -18.9233 C   0  0  0  0  0  0  0  0  0  0  0  0
    0.1674   33.9074  -18.6617 N   0  0  0  0  0  0  0  0  0  0  0  0
   -2.1674   34.9805  -16.8866 N   0  0  0  0  0  0  0  0  0  0  0  0
   -3.2160   35.7662  -16.5094 C   0  0  0  0  0  0  0  0  0  0  0  0
   -3.4155   36.6826  -17.4658 N   0  0  0  0  0  0  0  0  0  0  0  0
  -10.2913   27.5721  -15.1775 N   0  0  0  0  0  0  0  0  0  0  0  0
  -10.2414   27.9197  -13.8648 C   0  0  0  0  0  0  0  0  0  0  0  0
   -9.9686   29.2133  -13.5192 N   0  0  0  0  0  0  0  0  0  0  0  0
   -9.7537   30.1492  -14.4828 C   0  0  0  0  0  0  0  0  0  0  0  0
   -9.8062   29.8125  -15.7874 C   0  0  0  0  0  0  0  0  0  0  0  0
  -10.0807   28.4918  -16.1304 C   0  0  0  0  0  0  0  0  0  0  0  0
  -10.1656   27.9108  -17.4458 N   0  0  0  0  0  0  0  0  0  0  0  0
   -9.5528   30.9329  -16.5054 N   0  0  0  0  0  0  0  0  0  0  0  0
   -9.3496   31.9621  -15.6339 C   0  0  0  0  0  0  0  0  0  0  0  0
   -9.4790   31.4679  -14.3861 N   0  0  0  0  0  0  0  0  0  0  0  0
  1  3  1  1  0  0  0
  1  5  2  0  0  0  0
  1  9  1  0  0  0  0
  1 18  1  0  0  0  0
  2  4  1  6  0  0  0
  2  6  2  0  0  0  0
  2 10  1  0  0  0  0
  2 17  1  0  0  0  0
  7  9  1  0  0  0  0
  8 10  1  0  0  0  0
 11  7  1  1  0  0  0
 11 13  1  0  0  0  0
 11 15  1  0  0  0  0
 12  8  1  6  0  0  0
 12 14  1  0  0  0  0
 12 16  1  0  0  0  0
 13 23  1  0  0  0  0
 14 24  1  0  0  0  0
 15 17  1  6  0  0  0
 15 19  1  0  0  0  0
 16 18  1  1  0  0  0
 16 20  1  0  0  0  0
 19 21  1  6  0  0  0
 19 23  1  0  0  0  0
 20 22  1  1  0  0  0
 20 24  1  0  0  0  0
 23 34  1  1  0  0  0
 24 44  1  6  0  0  0
 25 26  2  0  0  0  0
 25 30  1  0  0  0  0
 26 27  1  0  0  0  0
 27 28  2  0  0  0  0
 28 29  1  0  0  0  0
 28 34  1  0  0  0  0
 29 30  2  0  0  0  0
 29 32  1  0  0  0  0
 30 31  1  0  0  0  0
 32 33  2  0  0  0  0
 33 34  1  0  0  0  0
 35 36  2  0  0  0  0
 35 40  1  0  0  0  0
 36 37  1  0  0  0  0
 37 38  2  0  0  0  0
 38 39  1  0  0  0  0
 38 44  1  0  0  0  0
 39 40  2  0  0  0  0
 39 42  1  0  0  0  0
 40 41  1  0  0  0  0
 42 43  2  0  0  0  0
 43 44  1  0  0  0  0
M  CHG  2   3  -1   4  -1
M  END
>  <CHROM.1>
-149.22080338,-143.80860349,-6.66317760,34.33947874,-15.59825820,2.78417165
-0.71814092,-2.64794723

>  <Name>
ligand

>  <RI>
0

>  <Rbt.Current_Directory>
/home/itssahil/PROJECTS/Mol_Feturizer/New_Systems/rnas/4QLM

>  <Rbt.Executable>
rbdock ($Id: //depot/dev/client3/rdock/2013.1/src/exe/rbdock.cxx#4 $)

>  <Rbt.Library>
libRbt.so (2013.1, Build901 2013/11/27)

>  <Rbt.Parameter_File>
/export/apps/rDock/src/rDock_2013.1_src/data/scripts/dock_solv.prm

>  <Rbt.Receptor>
prm/pocket_docking_2.prm

>  <SCORE>
-19.2231

>  <SCORE.INTER>
-19.2224

>  <SCORE.INTER.CONST>
1

>  <SCORE.INTER.POLAR>
0

>  <SCORE.INTER.ROT>
2

>  <SCORE.INTER.SOLV>
35.7429

>  <SCORE.INTER.VDW>
-29.6626

>  <SCORE.INTER.norm>
-0.436873

>  <SCORE.INTRA>
-0.101139

>  <SCORE.INTRA.DIHEDRAL>
-0.0234009

>  <SCORE.INTRA.DIHEDRAL.0>
2.32994

>  <SCORE.INTRA.POLAR>
0

>  <SCORE.INTRA.POLAR.0>
0

>  <SCORE.INTRA.REPUL>
0

>  <SCORE.INTRA.REPUL.0>
0

>  <SCORE.INTRA.SOLV>
0.00272056

>  <SCORE.INTRA.SOLV.lig_0>
-117.703

>  <SCORE.INTRA.VDW>
-0.0907993

>  <SCORE.INTRA.VDW.0>
-1.59997

>  <SCORE.INTRA.norm>
-0.00229862

>  <SCORE.RESTR>
0.100449

>  <SCORE.RESTR.CAVITY>
0.100449

>  <SCORE.RESTR.norm>
0.00228294

>  <SCORE.SYSTEM>
0

>  <SCORE.SYSTEM.CONST>
0

>  <SCORE.SYSTEM.DIHEDRAL>
0

>  <SCORE.SYSTEM.SOLV>
0

>  <SCORE.SYSTEM.norm>
0

>  <SCORE.heavy>
44

>  <SCORE.norm>
-0.436889

>  <RMSD>
0.508

$$$$
ligand
 OpenBabel11021811513D
libRbt.so/2013.1/901 2013/11/27
 44 50  0  0  0  0  0  0  0  0999 V2000
   -6.2999   34.2886  -12.6543 P   0  0  2  0  0  0  0  0  0  0  0  0
   -9.7381   35.6256  -16.6036 P   0  0  1  0  0  0  0  0  0  0  0  0
   -5.6531   35.2497  -11.6601 O   0  5  0  0  0  0  0  0  0  0  0  0
   -9.2882   34.8204  -17.7983 O   0  5  0  0  0  0  0  0  0  0  0  0
   -5.3653   33.1080  -12.7647 O   0  0  0  0  0  0  0  0  0  0  0  0
  -11.1354   36.1983  -16.9333 O   0  0  0  0  0  0  0  0  0  0  0  0
   -6.6155   36.5242  -13.8135 C   0  0  0  0  0  0  0  0  0  0  0  0
   -9.8872   35.2346  -14.0554 C   0  0  0  0  0  0  0  0  0  0  0  0
   -6.4436   35.1099  -13.9763 O   0  0  0  0  0  0  0  0  0  0  0  0
   -9.5984   34.5942  -15.3302 O   0  0  0  0  0  0  0  0  0  0  0  0
   -6.6943   37.2040  -15.1763 C   0  0  1  0  0  0  0  0  0  0  0  0
   -9.8470   34.0931  -12.9705 C   0  0  1  0  0  0  0  0  0  0  0  0
   -5.4845   37.4297  -15.5860 O   0  0  0  0  0  0  0  0  0  0  0  0
  -10.6075   33.1798  -13.4194 O   0  0  0  0  0  0  0  0  0  0  0  0
   -7.3567   36.3487  -16.2318 C   0  0  1  0  0  0  0  0  0  0  0  0
   -8.4691   33.4020  -12.9475 C   0  0  1  0  0  0  0  0  0  0  0  0
   -8.6371   36.7918  -16.3441 O   0  0  0  0  0  0  0  0  0  0  0  0
   -7.7214   33.8380  -11.9263 O   0  0  0  0  0  0  0  0  0  0  0  0
   -6.5493   36.6806  -17.5349 C   0  0  1  0  0  0  0  0  0  0  0  0
   -8.7296   31.8821  -12.8406 C   0  0  1  0  0  0  0  0  0  0  0  0
   -7.3165   37.6322  -18.3830 O   0  0  0  0  0  0  0  0  0  0  0  0
   -8.4986   31.4076  -11.4382 O   0  0  0  0  0  0  0  0  0  0  0  0
   -5.4261   37.1989  -17.1534 C   0  0  2  0  0  0  0  0  0  0  0  0
   -9.9730   31.7359  -13.1465 C   0  0  2  0  0  0  0  0  0  0  0  0
   -1.2785   35.5601  -20.1423 N   0  0  0  0  0  0  0  0  0  0  0  0
   -2.0344   36.6704  -20.3726 C   0  0  0  0  0  0  0  0  0  0  0  0
   -3.0763   37.0044  -19.5453 N   0  0  0  0  0  0  0  0  0  0  0  0
   -3.3564   36.2021  -18.4739 C   0  0  0  0  0  0  0  0  0  0  0  0
   -2.6264   35.1029  -18.2386 C   0  0  0  0  0  0  0  0  0  0  0  0
   -1.5635   34.7758  -19.0788 C   0  0  0  0  0  0  0  0  0  0  0  0
   -0.7224   33.6539  -18.9423 N   0  0  0  0  0  0  0  0  0  0  0  0
   -3.1155   34.5114  -17.1281 N   0  0  0  0  0  0  0  0  0  0  0  0
   -4.1657   35.2587  -16.6833 C   0  0  0  0  0  0  0  0  0  0  0  0
   -4.3050   36.3104  -17.5011 N   0  0  0  0  0  0  0  0  0  0  0  0
  -10.5529   26.9979  -15.2286 N   0  0  0  0  0  0  0  0  0  0  0  0
  -10.3642   27.2929  -13.9157 C   0  0  0  0  0  0  0  0  0  0  0  0
  -10.2214   28.5962  -13.5307 N   0  0  0  0  0  0  0  0  0  0  0  0
  -10.2732   29.5932  -14.4548 C   0  0  0  0  0  0  0  0  0  0  0  0
  -10.4647   29.3083  -15.7587 C   0  0  0  0  0  0  0  0  0  0  0  0
  -10.6053   27.9778  -16.1426 C   0  0  0  0  0  0  0  0  0  0  0  0
  -10.7973   27.4471  -17.4679 N   0  0  0  0  0  0  0  0  0  0  0  0
  -10.4687   30.4828  -16.4336 N   0  0  0  0  0  0  0  0  0  0  0  0
  -10.2839   31.4924  -15.5356 C   0  0  0  0  0  0  0  0  0  0  0  0
  -10.1672   30.9322  -14.3146 N   0  0  0  0  0  0  0  0  0  0  0  0
  1  3  1  1  0  0  0
  1  5  2  0  0  0  0
  1  9  1  0  0  0  0
  1 18  1  0  0  0  0
  2  4  1  6  0  0  0
  2  6  2  0  0  0  0
  2 10  1  0  0  0  0
  2 17  1  0  0  0  0
  7  9  1  0  0  0  0
  8 10  1  0  0  0  0
 11  7  1  1  0  0  0
 11 13  1  0  0  0  0
 11 15  1  0  0  0  0
 12  8  1  6  0  0  0
 12 14  1  0  0  0  0
 12 16  1  0  0  0  0
 13 23  1  0  0  0  0
 14 24  1  0  0  0  0
 15 17  1  6  0  0  0
 15 19  1  0  0  0  0
 16 18  1  1  0  0  0
 16 20  1  0  0  0  0
 19 21  1  6  0  0  0
 19 23  1  0  0  0  0
 20 22  1  1  0  0  0
 20 24  1  0  0  0  0
 23 34  1  1  0  0  0
 24 44  1  6  0  0  0
 25 26  2  0  0  0  0
 25 30  1  0  0  0  0
 26 27  1  0  0  0  0
 27 28  2  0  0  0  0
 28 29  1  0  0  0  0
 28 34  1  0  0  0  0
 29 30  2  0  0  0  0
 29 32  1  0  0  0  0
 30 31  1  0  0  0  0
 32 33  2  0  0  0  0
 33 34  1  0  0  0  0
 35 36  2  0  0  0  0
 35 40  1  0  0  0  0
 36 37  1  0  0  0  0
 37 38  2  0  0  0  0
 38 39  1  0  0  0  0
 38 44  1  0  0  0  0
 39 40  2  0  0  0  0
 39 42  1  0  0  0  0
 40 41  1  0  0  0  0
 42 43  2  0  0  0  0
 43 44  1  0  0  0  0
M  CHG  2   3  -1   4  -1
M  END
>  <CHROM.1>
-140.62996678,-152.94531490,-7.39079826,33.88197164,-15.55319903,2.70724503
-0.72987752,-2.73256843

>  <Name>
ligand

>  <RI>
0

>  <Rbt.Current_Directory>
/home/itssahil/PROJECTS/Mol_Feturizer/New_Systems/rnas/4QLM

>  <Rbt.Executable>
rbdock ($Id: //depot/dev/client3/rdock/2013.1/src/exe/rbdock.cxx#4 $)

>  <Rbt.Library>
libRbt.so (2013.1, Build901 2013/11/27)

>  <Rbt.Parameter_File>
/export/apps/rDock/src/rDock_2013.1_src/data/scripts/dock_solv.prm

>  <Rbt.Receptor>
prm/pocket_docking_2.prm

>  <SCORE>
-18.4222

>  <SCORE.INTER>
-18.4874

>  <SCORE.INTER.CONST>
1

>  <SCORE.INTER.POLAR>
0

>  <SCORE.INTER.ROT>
2

>  <SCORE.INTER.SOLV>
36.9222

>  <SCORE.INTER.VDW>
-29.5657

>  <SCORE.INTER.norm>
-0.420169

>  <SCORE.INTRA>
0.0165949

>  <SCORE.INTRA.DIHEDRAL>
-0.00687228

>  <SCORE.INTRA.DIHEDRAL.0>
2.32994

>  <SCORE.INTRA.POLAR>
0

>  <SCORE.INTRA.POLAR.0>
0

>  <SCORE.INTRA.REPUL>
0

>  <SCORE.INTRA.REPUL.0>
0

>  <SCORE.INTRA.SOLV>
0.00440527

>  <SCORE.INTRA.SOLV.lig_0>
-117.703

>  <SCORE.INTRA.VDW>
0.0178284

>  <SCORE.INTRA.VDW.0>
-1.59997

>  <SCORE.INTRA.norm>
0.000377156

>  <SCORE.RESTR>
0.048593

>  <SCORE.RESTR.CAVITY>
0.048593

>  <SCORE.RESTR.norm>
0.00110439

>  <SCORE.SYSTEM>
0

>  <SCORE.SYSTEM.CONST>
0

>  <SCORE.SYSTEM.DIHEDRAL>
0

>  <SCORE.SYSTEM.SOLV>
0

>  <SCORE.SYSTEM.norm>
0

>  <SCORE.heavy>
44

>  <SCORE.norm>
-0.418687

>  <RMSD>
0.584

$$$$
ligand
 OpenBabel11021811513D
libRbt.so/2013.1/901 2013/11/27
 44 50  0  0  0  0  0  0  0  0999 V2000
   -6.3198   34.2762  -12.6644 P   0  0  2  0  0  0  0  0  0  0  0  0
   -9.7455   35.5498  -16.6453 P   0  0  1  0  0  0  0  0  0  0  0  0
   -5.6882   35.2511  -11.6739 O   0  5  0  0  0  0  0  0  0  0  0  0
   -9.2806   34.7394  -17.8307 O   0  5  0  0  0  0  0  0  0  0  0  0
   -5.3735   33.1036  -12.7596 O   0  0  0  0  0  0  0  0  0  0  0  0
  -11.1459   36.1067  -16.9882 O   0  0  0  0  0  0  0  0  0  0  0  0
   -6.6489   36.4995  -13.8432 C   0  0  0  0  0  0  0  0  0  0  0  0
   -9.9068   35.1775  -14.0951 C   0  0  0  0  0  0  0  0  0  0  0  0
   -6.4628   35.0856  -13.9937 O   0  0  0  0  0  0  0  0  0  0  0  0
   -9.6042   34.5297  -15.3630 O   0  0  0  0  0  0  0  0  0  0  0  0
   -6.7255   37.1678  -15.2118 C   0  0  1  0  0  0  0  0  0  0  0  0
   -9.8628   34.0450  -13.0009 C   0  0  1  0  0  0  0  0  0  0  0  0
   -5.5154   37.4016  -15.6158 O   0  0  0  0  0  0  0  0  0  0  0  0
  -10.6119   33.1211  -13.4472 O   0  0  0  0  0  0  0  0  0  0  0  0
   -7.3733   36.2981  -16.2645 C   0  0  1  0  0  0  0  0  0  0  0  0
   -8.4787   33.3670  -12.9639 C   0  0  1  0  0  0  0  0  0  0  0  0
   -8.6570   36.7282  -16.3882 O   0  0  0  0  0  0  0  0  0  0  0  0
   -7.7415   33.8181  -11.9416 O   0  0  0  0  0  0  0  0  0  0  0  0
   -6.5609   36.6272  -17.5652 C   0  0  1  0  0  0  0  0  0  0  0  0
   -8.7257   31.8457  -12.8465 C   0  0  1  0  0  0  0  0  0  0  0  0
   -7.3316   37.5648  -18.4256 O   0  0  0  0  0  0  0  0  0  0  0  0
   -8.4990   31.3844  -11.4390 O   0  0  0  0  0  0  0  0  0  0  0  0
   -5.4450   37.1590  -17.1810 C   0  0  2  0  0  0  0  0  0  0  0  0
   -9.9658   31.6854  -13.1590 C   0  0  2  0  0  0  0  0  0  0  0  0
   -1.0995   35.6847  -19.9674 N   0  0  0  0  0  0  0  0  0  0  0  0
   -1.8179   36.8265  -20.1608 C   0  0  0  0  0  0  0  0  0  0  0  0
   -2.9167   37.1131  -19.3914 N   0  0  0  0  0  0  0  0  0  0  0  0
   -3.2927   36.2307  -18.4166 C   0  0  0  0  0  0  0  0  0  0  0  0
   -2.6004   35.1002  -18.2193 C   0  0  0  0  0  0  0  0  0  0  0  0
   -1.4795   34.8211  -18.9993 C   0  0  0  0  0  0  0  0  0  0  0  0
   -0.6688   33.6736  -18.8934 N   0  0  0  0  0  0  0  0  0  0  0  0
   -3.1846   34.4291  -17.2041 N   0  0  0  0  0  0  0  0  0  0  0  0
   -4.2552   35.1595  -16.7804 C   0  0  0  0  0  0  0  0  0  0  0  0
   -4.3135   36.2783  -17.5146 N   0  0  0  0  0  0  0  0  0  0  0  0
  -10.6217   26.9369  -15.1941 N   0  0  0  0  0  0  0  0  0  0  0  0
  -10.4685   27.2455  -13.8797 C   0  0  0  0  0  0  0  0  0  0  0  0
  -10.2984   28.5494  -13.5080 N   0  0  0  0  0  0  0  0  0  0  0  0
  -10.2879   29.5337  -14.4470 C   0  0  0  0  0  0  0  0  0  0  0  0
  -10.4439   29.2354  -15.7527 C   0  0  0  0  0  0  0  0  0  0  0  0
  -10.6126   27.9043  -16.1227 C   0  0  0  0  0  0  0  0  0  0  0  0
  -10.7760   27.3600  -17.4464 N   0  0  0  0  0  0  0  0  0  0  0  0
  -10.3884   30.3993  -16.4435 N   0  0  0  0  0  0  0  0  0  0  0  0
  -10.2029   31.4160  -15.5537 C   0  0  0  0  0  0  0  0  0  0  0  0
  -10.1451   30.8708  -14.3218 N   0  0  0  0  0  0  0  0  0  0  0  0
  1  3  1  1  0  0  0
  1  5  2  0  0  0  0
  1  9  1  0  0  0  0
  1 18  1  0  0  0  0
  2  4  1  6  0  0  0
  2  6  2  0  0  0  0
  2 10  1  0  0  0  0
  2 17  1  0  0  0  0
  7  9  1  0  0  0  0
  8 10  1  0  0  0  0
 11  7  1  1  0  0  0
 11 13  1  0  0  0  0
 11 15  1  0  0  0  0
 12  8  1  6  0  0  0
 12 14  1  0  0  0  0
 12 16  1  0  0  0  0
 13 23  1  0  0  0  0
 14 24  1  0  0  0  0
 15 17  1  6  0  0  0
 15 19  1  0  0  0  0
 16 18  1  1  0  0  0
 16 20  1  0  0  0  0
 19 21  1  6  0  0  0
 19 23  1  0  0  0  0
 20 22  1  1  0  0  0
 20 24  1  0  0  0  0
 23 34  1  1  0  0  0
 24 44  1  6  0  0  0
 25 26  2  0  0  0  0
 25 30  1  0  0  0  0
 26 27  1  0  0  0  0
 27 28  2  0  0  0  0
 28 29  1  0  0  0  0
 28 34  1  0  0  0  0
 29 30  2  0  0  0  0
 29 32  1  0  0  0  0
 30 31  1  0  0  0  0
 32 33  2  0  0  0  0
 33 34  1  0  0  0  0
 35 36  2  0  0  0  0
 35 40  1  0  0  0  0
 36 37  1  0  0  0  0
 37 38  2  0  0  0  0
 38 39  1  0  0  0  0
 38 44  1  0  0  0  0
 39 40  2  0  0  0  0
 39 42  1  0  0  0  0
 40 41  1  0  0  0  0
 42 43  2  0  0  0  0
 43 44  1  0  0  0  0
M  CHG  2   3  -1   4  -1
M  END
>  <CHROM.1>
-133.74216269,-150.11881439,-7.38765943,33.84781633,-15.55505094,2.68221408
-0.71211063,-2.76021488

>  <Name>
ligand

>  <RI>
0

>  <Rbt.Current_Directory>
/home/itssahil/PROJECTS/Mol_Feturizer/New_Systems/rnas/4QLM

>  <Rbt.Executable>
rbdock ($Id: //depot/dev/client3/rdock/2013.1/src/exe/rbdock.cxx#4 $)

>  <Rbt.Library>
libRbt.so (2013.1, Build901 2013/11/27)

>  <Rbt.Parameter_File>
/export/apps/rDock/src/rDock_2013.1_src/data/scripts/dock_solv.prm

>  <Rbt.Receptor>
prm/pocket_docking_2.prm

>  <SCORE>
-18.3593

>  <SCORE.INTER>
-18.5425

>  <SCORE.INTER.CONST>
1

>  <SCORE.INTER.POLAR>
0

>  <SCORE.INTER.ROT>
2

>  <SCORE.INTER.SOLV>
36.7976

>  <SCORE.INTER.VDW>
-29.5609

>  <SCORE.INTER.norm>
-0.421421

>  <SCORE.INTRA>
0.114181

>  <SCORE.INTRA.DIHEDRAL>
0.0190835

>  <SCORE.INTRA.DIHEDRAL.0>
2.32994

>  <SCORE.INTRA.POLAR>
0

>  <SCORE.INTRA.POLAR.0>
0

>  <SCORE.INTRA.REPUL>
0

>  <SCORE.INTRA.REPUL.0>
0

>  <SCORE.INTRA.SOLV>
0.000855374

>  <SCORE.INTRA.SOLV.lig_0>
-117.703

>  <SCORE.INTRA.VDW>
0.104211

>  <SCORE.INTRA.VDW.0>
-1.59997

>  <SCORE.INTRA.norm>
0.00259502

>  <SCORE.RESTR>
0.0690257

>  <SCORE.RESTR.CAVITY>
0.0690257

>  <SCORE.RESTR.norm>
0.00156876

>  <SCORE.SYSTEM>
0

>  <SCORE.SYSTEM.CONST>
0

>  <SCORE.SYSTEM.DIHEDRAL>
0

>  <SCORE.SYSTEM.SOLV>
0

>  <SCORE.SYSTEM.norm>
0

>  <SCORE.heavy>
44

>  <SCORE.norm>
-0.417257

>  <RMSD>
0.593

$$$$
ligand
 OpenBabel11021811513D
libRbt.so/2013.1/901 2013/11/27
 44 50  0  0  0  0  0  0  0  0999 V2000
   -6.2952   34.2777  -12.6602 P   0  0  2  0  0  0  0  0  0  0  0  0
   -9.7544   35.6488  -16.5793 P   0  0  1  0  0  0  0  0  0  0  0  0
   -5.6375   35.2311  -11.6658 O   0  5  0  0  0  0  0  0  0  0  0  0
   -9.3161   34.8475  -17.7809 O   0  5  0  0  0  0  0  0  0  0  0  0
   -5.3665   33.0936  -12.7827 O   0  0  0  0  0  0  0  0  0  0  0  0
  -11.1513   36.2292  -16.8967 O   0  0  0  0  0  0  0  0  0  0  0  0
   -6.6090   36.5203  -13.8063 C   0  0  0  0  0  0  0  0  0  0  0  0
   -9.8878   35.2460  -14.0321 C   0  0  0  0  0  0  0  0  0  0  0  0
   -6.4443   35.1060  -13.9771 O   0  0  0  0  0  0  0  0  0  0  0  0
   -9.6105   34.6106  -15.3120 O   0  0  0  0  0  0  0  0  0  0  0  0
   -6.6941   37.2071  -15.1652 C   0  0  1  0  0  0  0  0  0  0  0  0
   -9.8452   34.0991  -12.9531 C   0  0  1  0  0  0  0  0  0  0  0  0
   -5.4861   37.4295  -15.5821 O   0  0  0  0  0  0  0  0  0  0  0  0
  -10.6127   33.1913  -13.4012 O   0  0  0  0  0  0  0  0  0  0  0  0
   -7.3673   36.3598  -16.2203 C   0  0  1  0  0  0  0  0  0  0  0  0
   -8.4702   33.4019  -12.9428 C   0  0  1  0  0  0  0  0  0  0  0  0
   -8.6465   36.8090  -16.3217 O   0  0  0  0  0  0  0  0  0  0  0  0
   -7.7137   33.8297  -11.9247 O   0  0  0  0  0  0  0  0  0  0  0  0
   -6.5674   36.6945  -17.5273 C   0  0  1  0  0  0  0  0  0  0  0  0
   -8.7366   31.8827  -12.8414 C   0  0  1  0  0  0  0  0  0  0  0  0
   -7.3362   37.6536  -18.3655 O   0  0  0  0  0  0  0  0  0  0  0  0
   -8.4981   31.4004  -11.4430 O   0  0  0  0  0  0  0  0  0  0  0  0
   -5.4394   37.2061  -17.1510 C   0  0  2  0  0  0  0  0  0  0  0  0
   -9.9827   31.7434  -13.1396 C   0  0  2  0  0  0  0  0  0  0  0  0
   -1.2269   35.6452  -20.0903 N   0  0  0  0  0  0  0  0  0  0  0  0
   -1.9533   36.7819  -20.2836 C   0  0  0  0  0  0  0  0  0  0  0  0
   -3.0155   37.0924  -19.4731 N   0  0  0  0  0  0  0  0  0  0  0  0
   -3.3464   36.2392  -18.4568 C   0  0  0  0  0  0  0  0  0  0  0  0
   -2.6458   35.1138  -18.2588 C   0  0  0  0  0  0  0  0  0  0  0  0
   -1.5620   34.8106  -19.0810 C   0  0  0  0  0  0  0  0  0  0  0  0
   -0.7475   33.6655  -18.9793 N   0  0  0  0  0  0  0  0  0  0  0  0
   -3.1828   34.4734  -17.1987 N   0  0  0  0  0  0  0  0  0  0  0  0
   -4.2327   35.2174  -16.7476 C   0  0  0  0  0  0  0  0  0  0  0  0
   -4.3246   36.3145  -17.5106 N   0  0  0  0  0  0  0  0  0  0  0  0
  -10.6487   27.0224  -15.2345 N   0  0  0  0  0  0  0  0  0  0  0  0
  -10.4592   27.3107  -13.9202 C   0  0  0  0  0  0  0  0  0  0  0  0
  -10.2920   28.6101  -13.5318 N   0  0  0  0  0  0  0  0  0  0  0  0
  -10.3204   29.6099  -14.4538 C   0  0  0  0  0  0  0  0  0  0  0  0
  -10.5125   29.3317  -15.7591 C   0  0  0  0  0  0  0  0  0  0  0  0
  -10.6781   28.0051  -16.1465 C   0  0  0  0  0  0  0  0  0  0  0  0
  -10.8755   27.4812  -17.4737 N   0  0  0  0  0  0  0  0  0  0  0  0
  -10.4905   30.5075  -16.4314 N   0  0  0  0  0  0  0  0  0  0  0  0
  -10.2891   31.5112  -15.5304 C   0  0  0  0  0  0  0  0  0  0  0  0
  -10.1883   30.9463  -14.3102 N   0  0  0  0  0  0  0  0  0  0  0  0
  1  3  1  1  0  0  0
  1  5  2  0  0  0  0
  1  9  1  0  0  0  0
  1 18  1  0  0  0  0
  2  4  1  6  0  0  0
  2  6  2  0  0  0  0
  2 10  1  0  0  0  0
  2 17  1  0  0  0  0
  7  9  1  0  0  0  0
  8 10  1  0  0  0  0
 11  7  1  1  0  0  0
 11 13  1  0  0  0  0
 11 15  1  0  0  0  0
 12  8  1  6  0  0  0
 12 14  1  0  0  0  0
 12 16  1  0  0  0  0
 13 23  1  0  0  0  0
 14 24  1  0  0  0  0
 15 17  1  6  0  0  0
 15 19  1  0  0  0  0
 16 18  1  1  0  0  0
 16 20  1  0  0  0  0
 19 21  1  6  0  0  0
 19 23  1  0  0  0  0
 20 22  1  1  0  0  0
 20 24  1  0  0  0  0
 23 34  1  1  0  0  0
 24 44  1  6  0  0  0
 25 26  2  0  0  0  0
 25 30  1  0  0  0  0
 26 27  1  0  0  0  0
 27 28  2  0  0  0  0
 28 29  1  0  0  0  0
 28 34  1  0  0  0  0
 29 30  2  0  0  0  0
 29 32  1  0  0  0  0
 30 31  1  0  0  0  0
 32 33  2  0  0  0  0
 33 34  1  0  0  0  0
 35 36  2  0  0  0  0
 35 40  1  0  0  0  0
 36 37  1  0  0  0  0
 37 38  2  0  0  0  0
 38 39  1  0  0  0  0
 38 44  1  0  0  0  0
 39 40  2  0  0  0  0
 39 42  1  0  0  0  0
 40 41  1  0  0  0  0
 42 43  2  0  0  0  0
 43 44  1  0  0  0  0
M  CHG  2   3  -1   4  -1
M  END
>  <CHROM.1>
-136.88239624,-151.85456950,-7.40520472,33.89595973,-15.54744724,2.70771812
-0.72530151,-2.73135586

>  <Name>
ligand

>  <RI>
0

>  <Rbt.Current_Directory>
/home/itssahil/PROJECTS/Mol_Feturizer/New_Systems/rnas/4QLM

>  <Rbt.Executable>
rbdock ($Id: //depot/dev/client3/rdock/2013.1/src/exe/rbdock.cxx#4 $)

>  <Rbt.Library>
libRbt.so (2013.1, Build901 2013/11/27)

>  <Rbt.Parameter_File>
/export/apps/rDock/src/rDock_2013.1_src/data/scripts/dock_solv.prm

>  <Rbt.Receptor>
prm/pocket_docking_2.prm

>  <SCORE>
-18.2808

>  <SCORE.INTER>
-18.4023

>  <SCORE.INTER.CONST>
1

>  <SCORE.INTER.POLAR>
0

>  <SCORE.INTER.ROT>
2

>  <SCORE.INTER.SOLV>
37.1116

>  <SCORE.INTER.VDW>
-29.572

>  <SCORE.INTER.norm>
-0.418233

>  <SCORE.INTRA>
0.0700664

>  <SCORE.INTRA.DIHEDRAL>
0.00603918

>  <SCORE.INTRA.DIHEDRAL.0>
2.32994

>  <SCORE.INTRA.POLAR>
0

>  <SCORE.INTRA.POLAR.0>
0

>  <SCORE.INTRA.REPUL>
0

>  <SCORE.INTRA.REPUL.0>
0

>  <SCORE.INTRA.SOLV>
0.00181679

>  <SCORE.INTRA.SOLV.lig_0>
-117.703

>  <SCORE.INTRA.VDW>
0.0661384

>  <SCORE.INTRA.VDW.0>
-1.59997

>  <SCORE.INTRA.norm>
0.00159242

>  <SCORE.RESTR>
0.0513947

>  <SCORE.RESTR.CAVITY>
0.0513947

>  <SCORE.RESTR.norm>
0.00116806

>  <SCORE.SYSTEM>
0

>  <SCORE.SYSTEM.CONST>
0

>  <SCORE.SYSTEM.DIHEDRAL>
0

>  <SCORE.SYSTEM.SOLV>
0

>  <SCORE.SYSTEM.norm>
0

>  <SCORE.heavy>
44

>  <SCORE.norm>
-0.415473

>  <RMSD>
0.595

$$$$
ligand
 OpenBabel11021811513D
libRbt.so/2013.1/901 2013/11/27
 44 50  0  0  0  0  0  0  0  0999 V2000
   -5.5459   33.9177  -13.0826 P   0  0  2  0  0  0  0  0  0  0  0  0
   -9.1423   35.3038  -16.8708 P   0  0  1  0  0  0  0  0  0  0  0  0
   -4.8743   34.8633  -12.0899 O   0  5  0  0  0  0  0  0  0  0  0  0
   -8.7272   34.5326  -18.1000 O   0  5  0  0  0  0  0  0  0  0  0  0
   -4.6022   32.7519  -13.2552 O   0  0  0  0  0  0  0  0  0  0  0  0
  -10.5574   35.8664  -17.1355 O   0  0  0  0  0  0  0  0  0  0  0  0
   -5.9301   36.1758  -14.1756 C   0  0  0  0  0  0  0  0  0  0  0  0
   -9.1931   34.8511  -14.3289 C   0  0  0  0  0  0  0  0  0  0  0  0
   -5.7477   34.7680  -14.3784 O   0  0  0  0  0  0  0  0  0  0  0  0
   -8.9439   34.2445  -15.6284 O   0  0  0  0  0  0  0  0  0  0  0  0
   -6.0669   36.8864  -15.5179 C   0  0  1  0  0  0  0  0  0  0  0  0
   -9.0997   33.6850  -13.2739 C   0  0  1  0  0  0  0  0  0  0  0  0
   -4.8757   37.1369  -15.9659 O   0  0  0  0  0  0  0  0  0  0  0  0
   -9.8653   32.7730  -13.7165 O   0  0  0  0  0  0  0  0  0  0  0  0
   -6.7575   36.0479  -16.5688 C   0  0  1  0  0  0  0  0  0  0  0  0
   -7.7138   33.0110  -13.3177 C   0  0  1  0  0  0  0  0  0  0  0  0
   -8.0463   36.4773  -16.6236 O   0  0  0  0  0  0  0  0  0  0  0  0
   -6.9343   33.4323  -12.3143 O   0  0  0  0  0  0  0  0  0  0  0  0
   -6.0024   36.4205  -17.8921 C   0  0  1  0  0  0  0  0  0  0  0  0
   -7.9524   31.4859  -13.2377 C   0  0  1  0  0  0  0  0  0  0  0  0
   -6.8114   37.3820  -18.6886 O   0  0  0  0  0  0  0  0  0  0  0  0
   -7.6645   30.9815  -11.8565 O   0  0  0  0  0  0  0  0  0  0  0  0
   -4.8722   36.9438  -17.5395 C   0  0  2  0  0  0  0  0  0  0  0  0
   -9.2044   31.3312  -13.5016 C   0  0  2  0  0  0  0  0  0  0  0  0
   -0.5387   35.6563  -20.4352 N   0  0  0  0  0  0  0  0  0  0  0  0
   -1.2366   36.8234  -20.5251 C   0  0  0  0  0  0  0  0  0  0  0  0
   -2.3341   37.0572  -19.7363 N   0  0  0  0  0  0  0  0  0  0  0  0
   -2.7300   36.0956  -18.8481 C   0  0  0  0  0  0  0  0  0  0  0  0
   -2.0580   34.9398  -18.7533 C   0  0  0  0  0  0  0  0  0  0  0  0
   -0.9382   34.7141  -19.5519 C   0  0  0  0  0  0  0  0  0  0  0  0
   -0.1478   33.5478  -19.5494 N   0  0  0  0  0  0  0  0  0  0  0  0
   -2.6586   34.1886  -17.8061 N   0  0  0  0  0  0  0  0  0  0  0  0
   -3.7187   34.8955  -17.3207 C   0  0  0  0  0  0  0  0  0  0  0  0
   -3.7543   36.0779  -17.9490 N   0  0  0  0  0  0  0  0  0  0  0  0
  -10.7977   26.8503  -15.6237 N   0  0  0  0  0  0  0  0  0  0  0  0
  -10.7479   27.1520  -14.2997 C   0  0  0  0  0  0  0  0  0  0  0  0
  -10.2946   28.3789  -13.9038 N   0  0  0  0  0  0  0  0  0  0  0  0
   -9.9008   29.2951  -14.8289 C   0  0  0  0  0  0  0  0  0  0  0  0
   -9.9518   29.0043  -16.1446 C   0  0  0  0  0  0  0  0  0  0  0  0
  -10.4110   27.7510  -16.5389 C   0  0  0  0  0  0  0  0  0  0  0  0
  -10.5309   27.2241  -17.8742 N   0  0  0  0  0  0  0  0  0  0  0  0
   -9.5016   30.0906  -16.8172 N   0  0  0  0  0  0  0  0  0  0  0  0
   -9.1786   31.0533  -15.9069 C   0  0  0  0  0  0  0  0  0  0  0  0
   -9.4319   30.5529  -14.6808 N   0  0  0  0  0  0  0  0  0  0  0  0
  1  3  1  1  0  0  0
  1  5  2  0  0  0  0
  1  9  1  0  0  0  0
  1 18  1  0  0  0  0
  2  4  1  6  0  0  0
  2  6  2  0  0  0  0
  2 10  1  0  0  0  0
  2 17  1  0  0  0  0
  7  9  1  0  0  0  0
  8 10  1  0  0  0  0
 11  7  1  1  0  0  0
 11 13  1  0  0  0  0
 11 15  1  0  0  0  0
 12  8  1  6  0  0  0
 12 14  1  0  0  0  0
 12 16  1  0  0  0  0
 13 23  1  0  0  0  0
 14 24  1  0  0  0  0
 15 17  1  6  0  0  0
 15 19  1  0  0  0  0
 16 18  1  1  0  0  0
 16 20  1  0  0  0  0
 19 21  1  1  0  0  0
 19 23  1  0  0  0  0
 20 22  1  1  0  0  0
 20 24  1  0  0  0  0
 23 34  1  1  0  0  0
 24 44  1  6  0  0  0
 25 26  2  0  0  0  0
 25 30  1  0  0  0  0
 26 27  1  0  0  0  0
 27 28  2  0  0  0  0
 28 29  1  0  0  0  0
 28 34  1  0  0  0  0
 29 30  2  0  0  0  0
 29 32  1  0  0  0  0
 30 31  1  0  0  0  0
 32 33  2  0  0  0  0
 33 34  1  0  0  0  0
 35 36  2  0  0  0  0
 35 40  1  0  0  0  0
 36 37  1  0  0  0  0
 37 38  2  0  0  0  0
 38 39  1  0  0  0  0
 38 44  1  0  0  0  0
 39 40  2  0  0  0  0
 39 42  1  0  0  0  0
 40 41  1  0  0  0  0
 42 43  2  0  0  0  0
 43 44  1  0  0  0  0
M  CHG  2   3  -1   4  -1
M  END
>  <CHROM.1>
-129.19332991,-131.42286781,-6.79477431,33.59830195,-15.92673394,0.30157203
0.77230665,0.61813554

>  <Name>
ligand

>  <RI>
0

>  <Rbt.Current_Directory>
/home/itssahil/PROJECTS/Mol_Feturizer/New_Systems/rnas/4QLM

>  <Rbt.Executable>
rbdock ($Id: //depot/dev/client3/rdock/2013.1/src/exe/rbdock.cxx#4 $)

>  <Rbt.Library>
libRbt.so (2013.1, Build901 2013/11/27)

>  <Rbt.Parameter_File>
/export/apps/rDock/src/rDock_2013.1_src/data/scripts/dock_solv.prm

>  <Rbt.Receptor>
prm/pocket_docking_2.prm

>  <SCORE>
-16.0003

>  <SCORE.INTER>
-16.3582

>  <SCORE.INTER.CONST>
1

>  <SCORE.INTER.POLAR>
0

>  <SCORE.INTER.ROT>
2

>  <SCORE.INTER.SOLV>
39.0259

>  <SCORE.INTER.VDW>
-28.8474

>  <SCORE.INTER.norm>
-0.371777

>  <SCORE.INTRA>
0.300973

>  <SCORE.INTRA.DIHEDRAL>
0.0360818

>  <SCORE.INTRA.DIHEDRAL.0>
2.32994

>  <SCORE.INTRA.POLAR>
0

>  <SCORE.INTRA.POLAR.0>
0

>  <SCORE.INTRA.REPUL>
0

>  <SCORE.INTRA.REPUL.0>
0

>  <SCORE.INTRA.SOLV>
-0.00239973

>  <SCORE.INTRA.SOLV.lig_0>
-117.703

>  <SCORE.INTRA.VDW>
0.284132

>  <SCORE.INTRA.VDW.0>
-1.59997

>  <SCORE.INTRA.norm>
0.0068403

>  <SCORE.RESTR>
0.0569401

>  <SCORE.RESTR.CAVITY>
0.0569401

>  <SCORE.RESTR.norm>
0.00129409

>  <SCORE.SYSTEM>
0

>  <SCORE.SYSTEM.CONST>
0

>  <SCORE.SYSTEM.DIHEDRAL>
0

>  <SCORE.SYSTEM.SOLV>
0

>  <SCORE.SYSTEM.norm>
0

>  <SCORE.heavy>
44

>  <SCORE.norm>
-0.363642

>  <RMSD>
0.598

$$$$
ligand
 OpenBabel11021811513D
libRbt.so/2013.1/901 2013/11/27
 44 50  0  0  0  0  0  0  0  0999 V2000
   -6.3106   34.2979  -12.6625 P   0  0  2  0  0  0  0  0  0  0  0  0
   -9.7696   35.6252  -16.5968 P   0  0  1  0  0  0  0  0  0  0  0  0
   -5.6606   35.2611  -11.6724 O   0  5  0  0  0  0  0  0  0  0  0  0
   -9.3241   34.8194  -17.7927 O   0  5  0  0  0  0  0  0  0  0  0  0
   -5.3747   33.1186  -12.7760 O   0  0  0  0  0  0  0  0  0  0  0  0
  -11.1693   36.1954  -16.9205 O   0  0  0  0  0  0  0  0  0  0  0  0
   -6.6352   36.5317  -13.8226 C   0  0  0  0  0  0  0  0  0  0  0  0
   -9.9060   35.2367  -14.0475 C   0  0  0  0  0  0  0  0  0  0  0  0
   -6.4619   35.1175  -13.9846 O   0  0  0  0  0  0  0  0  0  0  0  0
   -9.6223   34.5954  -15.3230 O   0  0  0  0  0  0  0  0  0  0  0  0
   -6.7215   37.2099  -15.1857 C   0  0  1  0  0  0  0  0  0  0  0  0
   -9.8589   34.0965  -12.9616 C   0  0  1  0  0  0  0  0  0  0  0  0
   -5.5141   37.4371  -15.6014 O   0  0  0  0  0  0  0  0  0  0  0  0
  -10.6200   33.1815  -13.4059 O   0  0  0  0  0  0  0  0  0  0  0  0
   -7.3876   36.3525  -16.2371 C   0  0  1  0  0  0  0  0  0  0  0  0
   -8.4797   33.4076  -12.9444 C   0  0  1  0  0  0  0  0  0  0  0  0
   -8.6692   36.7934  -16.3438 O   0  0  0  0  0  0  0  0  0  0  0  0
   -7.7279   33.8459  -11.9272 O   0  0  0  0  0  0  0  0  0  0  0  0
   -6.5869   36.6842  -17.5444 C   0  0  1  0  0  0  0  0  0  0  0  0
   -8.7374   31.8874  -12.8345 C   0  0  1  0  0  0  0  0  0  0  0  0
   -7.3596   37.6336  -18.3898 O   0  0  0  0  0  0  0  0  0  0  0  0
   -8.4990   31.4148  -11.4328 O   0  0  0  0  0  0  0  0  0  0  0  0
   -5.4627   37.2047  -17.1688 C   0  0  2  0  0  0  0  0  0  0  0  0
   -9.9820   31.7389  -13.1345 C   0  0  2  0  0  0  0  0  0  0  0  0
   -1.1255   35.7440  -19.9753 N   0  0  0  0  0  0  0  0  0  0  0  0
   -1.8275   36.9002  -20.1417 C   0  0  0  0  0  0  0  0  0  0  0  0
   -2.9256   37.1817  -19.3695 N   0  0  0  0  0  0  0  0  0  0  0  0
   -3.3179   36.2794  -18.4196 C   0  0  0  0  0  0  0  0  0  0  0  0
   -2.6419   35.1347  -18.2492 C   0  0  0  0  0  0  0  0  0  0  0  0
   -1.5215   34.8607  -19.0316 C   0  0  0  0  0  0  0  0  0  0  0  0
   -0.7270   33.6999  -18.9526 N   0  0  0  0  0  0  0  0  0  0  0  0
   -3.2396   34.4455  -17.2542 N   0  0  0  0  0  0  0  0  0  0  0  0
   -4.3021   35.1792  -16.8159 C   0  0  0  0  0  0  0  0  0  0  0  0
   -4.3419   36.3175  -17.5208 N   0  0  0  0  0  0  0  0  0  0  0  0
  -10.6139   27.0016  -15.2028 N   0  0  0  0  0  0  0  0  0  0  0  0
  -10.4286   27.2988  -13.8900 C   0  0  0  0  0  0  0  0  0  0  0  0
  -10.2704   28.6015  -13.5088 N   0  0  0  0  0  0  0  0  0  0  0  0
  -10.3037   29.5957  -14.4367 C   0  0  0  0  0  0  0  0  0  0  0  0
  -10.4917   29.3086  -15.7407 C   0  0  0  0  0  0  0  0  0  0  0  0
  -10.6481   27.9788  -16.1206 C   0  0  0  0  0  0  0  0  0  0  0  0
  -10.8398   27.4458  -17.4451 N   0  0  0  0  0  0  0  0  0  0  0  0
  -10.4761   30.4806  -16.4198 N   0  0  0  0  0  0  0  0  0  0  0  0
  -10.2828   31.4909  -15.5243 C   0  0  0  0  0  0  0  0  0  0  0  0
  -10.1804   30.9337  -14.3007 N   0  0  0  0  0  0  0  0  0  0  0  0
  1  3  1  1  0  0  0
  1  5  2  0  0  0  0
  1  9  1  0  0  0  0
  1 18  1  0  0  0  0
  2  4  1  6  0  0  0
  2  6  2  0  0  0  0
  2 10  1  0  0  0  0
  2 17  1  0  0  0  0
  7  9  1  0  0  0  0
  8 10  1  0  0  0  0
 11  7  1  1  0  0  0
 11 13  1  0  0  0  0
 11 15  1  0  0  0  0
 12  8  1  6  0  0  0
 12 14  1  0  0  0  0
 12 16  1  0  0  0  0
 13 23  1  0  0  0  0
 14 24  1  0  0  0  0
 15 17  1  6  0  0  0
 15 19  1  0  0  0  0
 16 18  1  1  0  0  0
 16 20  1  0  0  0  0
 19 21  1  6  0  0  0
 19 23  1  0  0  0  0
 20 22  1  1  0  0  0
 20 24  1  0  0  0  0
 23 34  1  1  0  0  0
 24 44  1  6  0  0  0
 25 26  2  0  0  0  0
 25 30  1  0  0  0  0
 26 27  1  0  0  0  0
 27 28  2  0  0  0  0
 28 29  1  0  0  0  0
 28 34  1  0  0  0  0
 29 30  2  0  0  0  0
 29 32  1  0  0  0  0
 30 31  1  0  0  0  0
 32 33  2  0  0  0  0
 33 34  1  0  0  0  0
 35 36  2  0  0  0  0
 35 40  1  0  0  0  0
 36 37  1  0  0  0  0
 37 38  2  0  0  0  0
 38 39  1  0  0  0  0
 38 44  1  0  0  0  0
 39 40  2  0  0  0  0
 39 42  1  0  0  0  0
 40 41  1  0  0  0  0
 42 43  2  0  0  0  0
 43 44  1  0  0  0  0
M  CHG  2   3  -1   4  -1
M  END
>  <CHROM.1>
-132.29443118,-151.89131824,-7.40465620,33.89894067,-15.54226845,2.68003944
-0.71089407,-2.76734680

>  <Name>
ligand

>  <RI>
0

>  <Rbt.Current_Directory>
/home/itssahil/PROJECTS/Mol_Feturizer/New_Systems/rnas/4QLM

>  <Rbt.Executable>
rbdock ($Id: //depot/dev/client3/rdock/2013.1/src/exe/rbdock.cxx#4 $)

>  <Rbt.Library>
libRbt.so (2013.1, Build901 2013/11/27)

>  <Rbt.Parameter_File>
/export/apps/rDock/src/rDock_2013.1_src/data/scripts/dock_solv.prm

>  <Rbt.Receptor>
prm/pocket_docking_2.prm

>  <SCORE>
-18.258

>  <SCORE.INTER>
-18.4721

>  <SCORE.INTER.CONST>
1

>  <SCORE.INTER.POLAR>
0

>  <SCORE.INTER.ROT>
2

>  <SCORE.INTER.SOLV>
36.704

>  <SCORE.INTER.VDW>
-29.4827

>  <SCORE.INTER.norm>
-0.41982

>  <SCORE.INTRA>
0.167506

>  <SCORE.INTRA.DIHEDRAL>
0.0255923

>  <SCORE.INTRA.DIHEDRAL.0>
2.32994

>  <SCORE.INTRA.POLAR>
0

>  <SCORE.INTRA.POLAR.0>
0

>  <SCORE.INTRA.REPUL>
0

>  <SCORE.INTRA.REPUL.0>
0

>  <SCORE.INTRA.SOLV>
0.00110437

>  <SCORE.INTRA.SOLV.lig_0>
-117.703

>  <SCORE.INTRA.VDW>
0.154158

>  <SCORE.INTRA.VDW.0>
-1.59997

>  <SCORE.INTRA.norm>
0.00380696

>  <SCORE.RESTR>
0.0465172

>  <SCORE.RESTR.CAVITY>
0.0465172

>  <SCORE.RESTR.norm>
0.00105721

>  <SCORE.SYSTEM>
0

>  <SCORE.SYSTEM.CONST>
0

>  <SCORE.SYSTEM.DIHEDRAL>
0

>  <SCORE.SYSTEM.SOLV>
0

>  <SCORE.SYSTEM.norm>
0

>  <SCORE.heavy>
44

>  <SCORE.norm>
-0.414955

>  <RMSD>
0.600

$$$$
ligand
 OpenBabel11021811513D
libRbt.so/2013.1/901 2013/11/27
 44 50  0  0  0  0  0  0  0  0999 V2000
   -6.3072   34.2829  -12.6694 P   0  0  2  0  0  0  0  0  0  0  0  0
   -9.7716   35.6223  -16.5949 P   0  0  1  0  0  0  0  0  0  0  0  0
   -5.6534   35.2435  -11.6792 O   0  5  0  0  0  0  0  0  0  0  0  0
   -9.3299   34.8175  -17.7929 O   0  5  0  0  0  0  0  0  0  0  0  0
   -5.3736   33.1021  -12.7866 O   0  0  0  0  0  0  0  0  0  0  0  0
  -11.1709   36.1955  -16.9150 O   0  0  0  0  0  0  0  0  0  0  0  0
   -6.6300   36.5190  -13.8256 C   0  0  0  0  0  0  0  0  0  0  0  0
   -9.9035   35.2304  -14.0459 C   0  0  0  0  0  0  0  0  0  0  0  0
   -6.4595   35.1048  -13.9900 O   0  0  0  0  0  0  0  0  0  0  0  0
   -9.6236   34.5904  -15.3229 O   0  0  0  0  0  0  0  0  0  0  0  0
   -6.7178   37.1994  -15.1876 C   0  0  1  0  0  0  0  0  0  0  0  0
   -9.8564   34.0885  -12.9618 C   0  0  1  0  0  0  0  0  0  0  0  0
   -5.5107   37.4250  -15.6053 O   0  0  0  0  0  0  0  0  0  0  0  0
  -10.6201   33.1755  -13.4059 O   0  0  0  0  0  0  0  0  0  0  0  0
   -7.3875   36.3447  -16.2389 C   0  0  1  0  0  0  0  0  0  0  0  0
   -8.4784   33.3970  -12.9483 C   0  0  1  0  0  0  0  0  0  0  0  0
   -8.6685   36.7881  -16.3423 O   0  0  0  0  0  0  0  0  0  0  0  0
   -7.7238   33.8324  -11.9320 O   0  0  0  0  0  0  0  0  0  0  0  0
   -6.5888   36.6769  -17.5473 C   0  0  1  0  0  0  0  0  0  0  0  0
   -8.7387   31.8772  -12.8401 C   0  0  1  0  0  0  0  0  0  0  0  0
   -7.3615   37.6290  -18.3898 O   0  0  0  0  0  0  0  0  0  0  0  0
   -8.4983   31.4021  -11.4395 O   0  0  0  0  0  0  0  0  0  0  0  0
   -5.4630   37.1947  -17.1732 C   0  0  2  0  0  0  0  0  0  0  0  0
   -9.9841   31.7314  -13.1378 C   0  0  2  0  0  0  0  0  0  0  0  0
   -1.1650   35.7049  -20.0244 N   0  0  0  0  0  0  0  0  0  0  0  0
   -1.8739   36.8557  -20.1980 C   0  0  0  0  0  0  0  0  0  0  0  0
   -2.9608   37.1457  -19.4131 N   0  0  0  0  0  0  0  0  0  0  0  0
   -3.3346   36.2573  -18.4429 C   0  0  0  0  0  0  0  0  0  0  0  0
   -2.6517   35.1178  -18.2650 C   0  0  0  0  0  0  0  0  0  0  0  0
   -1.5427   34.8353  -19.0606 C   0  0  0  0  0  0  0  0  0  0  0  0
   -0.7427   33.6787  -18.9757 N   0  0  0  0  0  0  0  0  0  0  0  0
   -3.2310   34.4425  -17.2498 N   0  0  0  0  0  0  0  0  0  0  0  0
   -4.2892   35.1794  -16.8065 C   0  0  0  0  0  0  0  0  0  0  0  0
   -4.3445   36.3061  -17.5287 N   0  0  0  0  0  0  0  0  0  0  0  0
  -10.5649   26.9933  -15.2195 N   0  0  0  0  0  0  0  0  0  0  0  0
  -10.3646   27.2877  -13.9082 C   0  0  0  0  0  0  0  0  0  0  0  0
  -10.2234   28.5911  -13.5231 N   0  0  0  0  0  0  0  0  0  0  0  0
  -10.2883   29.5889  -14.4454 C   0  0  0  0  0  0  0  0  0  0  0  0
  -10.4913   29.3046  -15.7478 C   0  0  0  0  0  0  0  0  0  0  0  0
  -10.6302   27.9740  -16.1318 C   0  0  0  0  0  0  0  0  0  0  0  0
  -10.8329   27.4440  -17.4558 N   0  0  0  0  0  0  0  0  0  0  0  0
  -10.5066   30.4798  -16.4213 N   0  0  0  0  0  0  0  0  0  0  0  0
  -10.3173   31.4892  -15.5240 C   0  0  0  0  0  0  0  0  0  0  0  0
  -10.1864   30.9282  -14.3048 N   0  0  0  0  0  0  0  0  0  0  0  0
  1  3  1  1  0  0  0
  1  5  2  0  0  0  0
  1  9  1  0  0  0  0
  1 18  1  0  0  0  0
  2  4  1  6  0  0  0
  2  6  2  0  0  0  0
  2 10  1  0  0  0  0
  2 17  1  0  0  0  0
  7  9  1  0  0  0  0
  8 10  1  0  0  0  0
 11  7  1  1  0  0  0
 11 13  1  0  0  0  0
 11 15  1  0  0  0  0
 12  8  1  6  0  0  0
 12 14  1  0  0  0  0
 12 16  1  0  0  0  0
 13 23  1  0  0  0  0
 14 24  1  0  0  0  0
 15 17  1  6  0  0  0
 15 19  1  0  0  0  0
 16 18  1  1  0  0  0
 16 20  1  0  0  0  0
 19 21  1  6  0  0  0
 19 23  1  0  0  0  0
 20 22  1  1  0  0  0
 20 24  1  0  0  0  0
 23 34  1  1  0  0  0
 24 44  1  6  0  0  0
 25 26  2  0  0  0  0
 25 30  1  0  0  0  0
 26 27  1  0  0  0  0
 27 28  2  0  0  0  0
 28 29  1  0  0  0  0
 28 34  1  0  0  0  0
 29 30  2  0  0  0  0
 29 32  1  0  0  0  0
 30 31  1  0  0  0  0
 32 33  2  0  0  0  0
 33 34  1  0  0  0  0
 35 36  2  0  0  0  0
 35 40  1  0  0  0  0
 36 37  1  0  0  0  0
 37 38  2  0  0  0  0
 38 39  1  0  0  0  0
 38 44  1  0  0  0  0
 39 40  2  0  0  0  0
 39 42  1  0  0  0  0
 40 41  1  0  0  0  0
 42 43  2  0  0  0  0
 43 44  1  0  0  0  0
M  CHG  2   3  -1   4  -1
M  END
>  <CHROM.1>
-133.60569102,-153.25122447,-7.40488768,33.88802032,-15.55038358,2.68050475
-0.71366934,-2.76875989

>  <Name>
ligand

>  <RI>
0

>  <Rbt.Current_Directory>
/home/itssahil/PROJECTS/Mol_Feturizer/New_Systems/rnas/4QLM

>  <Rbt.Executable>
rbdock ($Id: //depot/dev/client3/rdock/2013.1/src/exe/rbdock.cxx#4 $)

>  <Rbt.Library>
libRbt.so (2013.1, Build901 2013/11/27)

>  <Rbt.Parameter_File>
/export/apps/rDock/src/rDock_2013.1_src/data/scripts/dock_solv.prm

>  <Rbt.Receptor>
prm/pocket_docking_2.prm

>  <SCORE>
-18.3895

>  <SCORE.INTER>
-18.5843

>  <SCORE.INTER.CONST>
1

>  <SCORE.INTER.POLAR>
0

>  <SCORE.INTER.ROT>
2

>  <SCORE.INTER.SOLV>
36.822

>  <SCORE.INTER.VDW>
-29.5968

>  <SCORE.INTER.norm>
-0.422369

>  <SCORE.INTRA>
0.141975

>  <SCORE.INTRA.DIHEDRAL>
0.0195154

>  <SCORE.INTRA.DIHEDRAL.0>
2.32994

>  <SCORE.INTRA.POLAR>
0

>  <SCORE.INTRA.POLAR.0>
0

>  <SCORE.INTRA.REPUL>
0

>  <SCORE.INTRA.REPUL.0>
0

>  <SCORE.INTRA.SOLV>
0.00365186

>  <SCORE.INTRA.SOLV.lig_0>
-117.703

>  <SCORE.INTRA.VDW>
0.130392

>  <SCORE.INTRA.VDW.0>
-1.59997

>  <SCORE.INTRA.norm>
0.00322671

>  <SCORE.RESTR>
0.0527444

>  <SCORE.RESTR.CAVITY>
0.0527444

>  <SCORE.RESTR.norm>
0.00119874

>  <SCORE.SYSTEM>
0

>  <SCORE.SYSTEM.CONST>
0

>  <SCORE.SYSTEM.DIHEDRAL>
0

>  <SCORE.SYSTEM.SOLV>
0

>  <SCORE.SYSTEM.norm>
0

>  <SCORE.heavy>
44

>  <SCORE.norm>
-0.417944

>  <RMSD>
0.601

$$$$
ligand
 OpenBabel11021811513D
libRbt.so/2013.1/901 2013/11/27
 44 50  0  0  0  0  0  0  0  0999 V2000
   -6.2885   34.2700  -12.6730 P   0  0  2  0  0  0  0  0  0  0  0  0
   -9.7681   35.6601  -16.5673 P   0  0  1  0  0  0  0  0  0  0  0  0
   -5.6195   35.2196  -11.6825 O   0  5  0  0  0  0  0  0  0  0  0  0
   -9.3419   34.8576  -17.7724 O   0  5  0  0  0  0  0  0  0  0  0  0
   -5.3661   33.0817  -12.8028 O   0  0  0  0  0  0  0  0  0  0  0  0
  -11.1645   36.2471  -16.8746 O   0  0  0  0  0  0  0  0  0  0  0  0
   -6.5997   36.5149  -13.8154 C   0  0  0  0  0  0  0  0  0  0  0  0
   -9.8859   35.2560  -14.0195 C   0  0  0  0  0  0  0  0  0  0  0  0
   -6.4428   35.1000  -13.9883 O   0  0  0  0  0  0  0  0  0  0  0  0
   -9.6204   34.6202  -15.3017 O   0  0  0  0  0  0  0  0  0  0  0  0
   -6.6910   37.2031  -15.1731 C   0  0  1  0  0  0  0  0  0  0  0  0
   -9.8412   34.1081  -12.9416 C   0  0  1  0  0  0  0  0  0  0  0  0
   -5.4849   37.4202  -15.5981 O   0  0  0  0  0  0  0  0  0  0  0  0
  -10.6159   33.2041  -13.3850 O   0  0  0  0  0  0  0  0  0  0  0  0
   -7.3754   36.3597  -16.2242 C   0  0  1  0  0  0  0  0  0  0  0  0
   -8.4693   33.4045  -12.9413 C   0  0  1  0  0  0  0  0  0  0  0  0
   -8.6532   36.8148  -16.3164 O   0  0  0  0  0  0  0  0  0  0  0  0
   -7.7038   33.8280  -11.9281 O   0  0  0  0  0  0  0  0  0  0  0  0
   -6.5829   36.6917  -17.5364 C   0  0  1  0  0  0  0  0  0  0  0  0
   -8.7421   31.8865  -12.8392 C   0  0  1  0  0  0  0  0  0  0  0  0
   -7.3531   37.6549  -18.3686 O   0  0  0  0  0  0  0  0  0  0  0  0
   -8.4962   31.4020  -11.4427 O   0  0  0  0  0  0  0  0  0  0  0  0
   -5.4500   37.1978  -17.1675 C   0  0  2  0  0  0  0  0  0  0  0  0
   -9.9908   31.7531  -13.1289 C   0  0  2  0  0  0  0  0  0  0  0  0
   -1.1835   35.6867  -20.0545 N   0  0  0  0  0  0  0  0  0  0  0  0
   -1.8830   36.8450  -20.2167 C   0  0  0  0  0  0  0  0  0  0  0  0
   -2.9624   37.1399  -19.4233 N   0  0  0  0  0  0  0  0  0  0  0  0
   -3.3382   36.2490  -18.4562 C   0  0  0  0  0  0  0  0  0  0  0  0
   -2.6645   35.1024  -18.2894 C   0  0  0  0  0  0  0  0  0  0  0  0
   -1.5631   34.8148  -19.0937 C   0  0  0  0  0  0  0  0  0  0  0  0
   -0.7731   33.6505  -19.0208 N   0  0  0  0  0  0  0  0  0  0  0  0
   -3.2436   34.4261  -17.2748 N   0  0  0  0  0  0  0  0  0  0  0  0
   -4.2923   35.1697  -16.8204 C   0  0  0  0  0  0  0  0  0  0  0  0
   -4.3418   36.3013  -17.5354 N   0  0  0  0  0  0  0  0  0  0  0  0
  -10.5382   27.0258  -15.2438 N   0  0  0  0  0  0  0  0  0  0  0  0
  -10.3099   27.3109  -13.9350 C   0  0  0  0  0  0  0  0  0  0  0  0
  -10.1826   28.6129  -13.5403 N   0  0  0  0  0  0  0  0  0  0  0  0
  -10.2892   29.6183  -14.4504 C   0  0  0  0  0  0  0  0  0  0  0  0
  -10.5203   29.3431  -15.7500 C   0  0  0  0  0  0  0  0  0  0  0  0
  -10.6447   28.0140  -16.1440 C   0  0  0  0  0  0  0  0  0  0  0  0
  -10.8715   27.4933  -17.4679 N   0  0  0  0  0  0  0  0  0  0  0  0
  -10.5742   30.5244  -16.4108 N   0  0  0  0  0  0  0  0  0  0  0  0
  -10.3804   31.5282  -15.5082 C   0  0  0  0  0  0  0  0  0  0  0  0
  -10.2082   30.9578  -14.2986 N   0  0  0  0  0  0  0  0  0  0  0  0
  1  3  1  1  0  0  0
  1  5  2  0  0  0  0
  1  9  1  0  0  0  0
  1 18  1  0  0  0  0
  2  4  1  6  0  0  0
  2  6  2  0  0  0  0
  2 10  1  0  0  0  0
  2 17  1  0  0  0  0
  7  9  1  0  0  0  0
  8 10  1  0  0  0  0
 11  7  1  1  0  0  0
 11 13  1  0  0  0  0
 11 15  1  0  0  0  0
 12  8  1  6  0  0  0
 12 14  1  0  0  0  0
 12 16  1  0  0  0  0
 13 23  1  0  0  0  0
 14 24  1  0  0  0  0
 15 17  1  6  0  0  0
 15 19  1  0  0  0  0
 16 18  1  1  0  0  0
 16 20  1  0  0  0  0
 19 21  1  6  0  0  0
 19 23  1  0  0  0  0
 20 22  1  1  0  0  0
 20 24  1  0  0  0  0
 23 34  1  1  0  0  0
 24 44  1  6  0  0  0
 25 26  2  0  0  0  0
 25 30  1  0  0  0  0
 26 27  1  0  0  0  0
 27 28  2  0  0  0  0
 28 29  1  0  0  0  0
 28 34  1  0  0  0  0
 29 30  2  0  0  0  0
 29 32  1  0  0  0  0
 30 31  1  0  0  0  0
 32 33  2  0  0  0  0
 33 34  1  0  0  0  0
 35 36  2  0  0  0  0
 35 40  1  0  0  0  0
 36 37  1  0  0  0  0
 37 38  2  0  0  0  0
 38 39  1  0  0  0  0
 38 44  1  0  0  0  0
 39 40  2  0  0  0  0
 39 42  1  0  0  0  0
 40 41  1  0  0  0  0
 42 43  2  0  0  0  0
 43 44  1  0  0  0  0
M  CHG  2   3  -1   4  -1
M  END
>  <CHROM.1>
-133.53789330,-155.15143398,-7.40259000,33.89938531,-15.54911108,2.68336671
-0.71300483,-2.77069315

>  <Name>
ligand

>  <RI>
0

>  <Rbt.Current_Directory>
/home/itssahil/PROJECTS/Mol_Feturizer/New_Systems/rnas/4QLM

>  <Rbt.Executable>
rbdock ($Id: //depot/dev/client3/rdock/2013.1/src/exe/rbdock.cxx#4 $)

>  <Rbt.Library>
libRbt.so (2013.1, Build901 2013/11/27)

>  <Rbt.Parameter_File>
/export/apps/rDock/src/rDock_2013.1_src/data/scripts/dock_solv.prm

>  <Rbt.Receptor>
prm/pocket_docking_2.prm

>  <SCORE>
-18.3764

>  <SCORE.INTER>
-18.6069

>  <SCORE.INTER.CONST>
1

>  <SCORE.INTER.POLAR>
0

>  <SCORE.INTER.ROT>
2

>  <SCORE.INTER.SOLV>
37.0991

>  <SCORE.INTER.VDW>
-29.7043

>  <SCORE.INTER.norm>
-0.422885

>  <SCORE.INTRA>
0.178917

>  <SCORE.INTRA.DIHEDRAL>
0.0195717

>  <SCORE.INTRA.DIHEDRAL.0>
2.32994

>  <SCORE.INTRA.POLAR>
0

>  <SCORE.INTRA.POLAR.0>
0

>  <SCORE.INTRA.REPUL>
0

>  <SCORE.INTRA.REPUL.0>
0

>  <SCORE.INTRA.SOLV>
0.00685879

>  <SCORE.INTRA.SOLV.lig_0>
-117.703

>  <SCORE.INTRA.VDW>
0.165702

>  <SCORE.INTRA.VDW.0>
-1.59997

>  <SCORE.INTRA.norm>
0.0040663

>  <SCORE.RESTR>
0.0515904

>  <SCORE.RESTR.CAVITY>
0.0515904

>  <SCORE.RESTR.norm>
0.00117251

>  <SCORE.SYSTEM>
0

>  <SCORE.SYSTEM.CONST>
0

>  <SCORE.SYSTEM.DIHEDRAL>
0

>  <SCORE.SYSTEM.SOLV>
0

>  <SCORE.SYSTEM.norm>
0

>  <SCORE.heavy>
44

>  <SCORE.norm>
-0.417646

>  <RMSD>
0.602

$$$$
ligand
 OpenBabel11021811513D
libRbt.so/2013.1/901 2013/11/27
 44 50  0  0  0  0  0  0  0  0999 V2000
   -6.3014   34.2788  -12.6626 P   0  0  2  0  0  0  0  0  0  0  0  0
   -9.7678   35.6336  -16.5810 P   0  0  1  0  0  0  0  0  0  0  0  0
   -5.6434   35.2361  -11.6721 O   0  5  0  0  0  0  0  0  0  0  0  0
   -9.3303   34.8291  -17.7808 O   0  5  0  0  0  0  0  0  0  0  0  0
   -5.3714   33.0955  -12.7828 O   0  0  0  0  0  0  0  0  0  0  0  0
  -11.1660   36.2112  -16.8982 O   0  0  0  0  0  0  0  0  0  0  0  0
   -6.6196   36.5174  -13.8152 C   0  0  0  0  0  0  0  0  0  0  0  0
   -9.8971   35.2384  -14.0324 C   0  0  0  0  0  0  0  0  0  0  0  0
   -6.4534   35.1029  -13.9818 O   0  0  0  0  0  0  0  0  0  0  0  0
   -9.6209   34.5994  -15.3107 O   0  0  0  0  0  0  0  0  0  0  0  0
   -6.7075   37.2000  -15.1760 C   0  0  1  0  0  0  0  0  0  0  0  0
   -9.8516   34.0948  -12.9499 C   0  0  1  0  0  0  0  0  0  0  0  0
   -5.5004   37.4227  -15.5953 O   0  0  0  0  0  0  0  0  0  0  0  0
  -10.6185   33.1846  -13.3941 O   0  0  0  0  0  0  0  0  0  0  0  0
   -7.3812   36.3487  -16.2275 C   0  0  1  0  0  0  0  0  0  0  0  0
   -8.4756   33.3994  -12.9394 C   0  0  1  0  0  0  0  0  0  0  0  0
   -8.6611   36.7959  -16.3285 O   0  0  0  0  0  0  0  0  0  0  0  0
   -7.7182   33.8313  -11.9237 O   0  0  0  0  0  0  0  0  0  0  0  0
   -6.5835   36.6804  -17.5367 C   0  0  1  0  0  0  0  0  0  0  0  0
   -8.7400   31.8802  -12.8331 C   0  0  1  0  0  0  0  0  0  0  0  0
   -7.3548   37.6359  -18.3767 O   0  0  0  0  0  0  0  0  0  0  0  0
   -8.4989   31.4024  -11.4335 O   0  0  0  0  0  0  0  0  0  0  0  0
   -5.4556   37.1945  -17.1635 C   0  0  2  0  0  0  0  0  0  0  0  0
   -9.9863   31.7384  -13.1290 C   0  0  2  0  0  0  0  0  0  0  0  0
   -1.1584   35.7029  -20.0148 N   0  0  0  0  0  0  0  0  0  0  0  0
   -1.8620   36.8577  -20.1832 C   0  0  0  0  0  0  0  0  0  0  0  0
   -2.9492   37.1478  -19.3988 N   0  0  0  0  0  0  0  0  0  0  0  0
   -3.3288   36.2554  -18.4345 C   0  0  0  0  0  0  0  0  0  0  0  0
   -2.6510   35.1121  -18.2618 C   0  0  0  0  0  0  0  0  0  0  0  0
   -1.5416   34.8295  -19.0569 C   0  0  0  0  0  0  0  0  0  0  0  0
   -0.7467   33.6690  -18.9770 N   0  0  0  0  0  0  0  0  0  0  0  0
   -3.2352   34.4334  -17.2517 N   0  0  0  0  0  0  0  0  0  0  0  0
   -4.2911   35.1721  -16.8062 C   0  0  0  0  0  0  0  0  0  0  0  0
   -4.3402   36.3032  -17.5220 N   0  0  0  0  0  0  0  0  0  0  0  0
  -10.5946   27.0057  -15.2152 N   0  0  0  0  0  0  0  0  0  0  0  0
  -10.3936   27.2977  -13.9034 C   0  0  0  0  0  0  0  0  0  0  0  0
  -10.2446   28.6000  -13.5172 N   0  0  0  0  0  0  0  0  0  0  0  0
  -10.3026   29.5989  -14.4387 C   0  0  0  0  0  0  0  0  0  0  0  0
  -10.5064   29.3169  -15.7415 C   0  0  0  0  0  0  0  0  0  0  0  0
  -10.6532   27.9875  -16.1267 C   0  0  0  0  0  0  0  0  0  0  0  0
  -10.8581   27.4598  -17.4513 N   0  0  0  0  0  0  0  0  0  0  0  0
  -10.5139   30.4928  -16.4140 N   0  0  0  0  0  0  0  0  0  0  0  0
  -10.3190   31.5002  -15.5157 C   0  0  0  0  0  0  0  0  0  0  0  0
  -10.1926   30.9374  -14.2969 N   0  0  0  0  0  0  0  0  0  0  0  0
  1  3  1  1  0  0  0
  1  5  2  0  0  0  0
  1  9  1  0  0  0  0
  1 18  1  0  0  0  0
  2  4  1  6  0  0  0
  2  6  2  0  0  0  0
  2 10  1  0  0  0  0
  2 17  1  0  0  0  0
  7  9  1  0  0  0  0
  8 10  1  0  0  0  0
 11  7  1  1  0  0  0
 11 13  1  0  0  0  0
 11 15  1  0  0  0  0
 12  8  1  6  0  0  0
 12 14  1  0  0  0  0
 12 16  1  0  0  0  0
 13 23  1  0  0  0  0
 14 24  1  0  0  0  0
 15 17  1  6  0  0  0
 15 19  1  0  0  0  0
 16 18  1  1  0  0  0
 16 20  1  0  0  0  0
 19 21  1  6  0  0  0
 19 23  1  0  0  0  0
 20 22  1  1  0  0  0
 20 24  1  0  0  0  0
 23 34  1  1  0  0  0
 24 44  1  6  0  0  0
 25 26  2  0  0  0  0
 25 30  1  0  0  0  0
 26 27  1  0  0  0  0
 27 28  2  0  0  0  0
 28 29  1  0  0  0  0
 28 34  1  0  0  0  0
 29 30  2  0  0  0  0
 29 32  1  0  0  0  0
 30 31  1  0  0  0  0
 32 33  2  0  0  0  0
 33 34  1  0  0  0  0
 35 36  2  0  0  0  0
 35 40  1  0  0  0  0
 36 37  1  0  0  0  0
 37 38  2  0  0  0  0
 38 39  1  0  0  0  0
 38 44  1  0  0  0  0
 39 40  2  0  0  0  0
 39 42  1  0  0  0  0
 40 41  1  0  0  0  0
 42 43  2  0  0  0  0
 43 44  1  0  0  0  0
M  CHG  2   3  -1   4  -1
M  END
>  <CHROM.1>
-133.27727210,-153.01698026,-7.40482814,33.89157434,-15.54182164,2.68475865
-0.71340269,-2.76429342

>  <Name>
ligand

>  <RI>
0

>  <Rbt.Current_Directory>
/home/itssahil/PROJECTS/Mol_Feturizer/New_Systems/rnas/4QLM

>  <Rbt.Executable>
rbdock ($Id: //depot/dev/client3/rdock/2013.1/src/exe/rbdock.cxx#4 $)

>  <Rbt.Library>
libRbt.so (2013.1, Build901 2013/11/27)

>  <Rbt.Parameter_File>
/export/apps/rDock/src/rDock_2013.1_src/data/scripts/dock_solv.prm

>  <Rbt.Receptor>
prm/pocket_docking_2.prm

>  <SCORE>
-18.3529

>  <SCORE.INTER>
-18.5591

>  <SCORE.INTER.CONST>
1

>  <SCORE.INTER.POLAR>
0

>  <SCORE.INTER.ROT>
2

>  <SCORE.INTER.SOLV>
36.9516

>  <SCORE.INTER.VDW>
-29.6233

>  <SCORE.INTER.norm>
-0.421799

>  <SCORE.INTRA>
0.148876

>  <SCORE.INTRA.DIHEDRAL>
0.0210067

>  <SCORE.INTRA.DIHEDRAL.0>
2.32994

>  <SCORE.INTRA.POLAR>
0

>  <SCORE.INTRA.POLAR.0>
0

>  <SCORE.INTRA.REPUL>
0

>  <SCORE.INTRA.REPUL.0>
0

>  <SCORE.INTRA.SOLV>
0.00319792

>  <SCORE.INTRA.SOLV.lig_0>
-117.703

>  <SCORE.INTRA.VDW>
0.136773

>  <SCORE.INTRA.VDW.0>
-1.59997

>  <SCORE.INTRA.norm>
0.00338354

>  <SCORE.RESTR>
0.0573277

>  <SCORE.RESTR.CAVITY>
0.0573277

>  <SCORE.RESTR.norm>
0.0013029

>  <SCORE.SYSTEM>
0

>  <SCORE.SYSTEM.CONST>
0

>  <SCORE.SYSTEM.DIHEDRAL>
0

>  <SCORE.SYSTEM.SOLV>
0

>  <SCORE.SYSTEM.norm>
0

>  <SCORE.heavy>
44

>  <SCORE.norm>
-0.417112

>  <RMSD>
0.602

$$$$
ligand
 OpenBabel11021811513D
libRbt.so/2013.1/901 2013/11/27
 44 50  0  0  0  0  0  0  0  0999 V2000
   -6.2978   34.2702  -12.6683 P   0  0  2  0  0  0  0  0  0  0  0  0
   -9.7847   35.6385  -16.5637 P   0  0  1  0  0  0  0  0  0  0  0  0
   -5.6290   35.2250  -11.6826 O   0  5  0  0  0  0  0  0  0  0  0  0
   -9.3588   34.8317  -17.7661 O   0  5  0  0  0  0  0  0  0  0  0  0
   -5.3737   33.0828  -12.7943 O   0  0  0  0  0  0  0  0  0  0  0  0
  -11.1824   36.2221  -16.8717 O   0  0  0  0  0  0  0  0  0  0  0  0
   -6.6141   36.5097  -13.8196 C   0  0  0  0  0  0  0  0  0  0  0  0
   -9.8985   35.2448  -14.0141 C   0  0  0  0  0  0  0  0  0  0  0  0
   -6.4551   35.0944  -13.9868 O   0  0  0  0  0  0  0  0  0  0  0  0
   -9.6337   34.6042  -15.2940 O   0  0  0  0  0  0  0  0  0  0  0  0
   -6.7082   37.1922  -15.1801 C   0  0  1  0  0  0  0  0  0  0  0  0
   -9.8506   34.1015  -12.9315 C   0  0  1  0  0  0  0  0  0  0  0  0
   -5.5030   37.4095  -15.6075 O   0  0  0  0  0  0  0  0  0  0  0  0
  -10.6245   33.1945  -13.3702 O   0  0  0  0  0  0  0  0  0  0  0  0
   -7.3927   36.3434  -16.2267 C   0  0  1  0  0  0  0  0  0  0  0  0
   -8.4776   33.4001  -12.9301 C   0  0  1  0  0  0  0  0  0  0  0  0
   -8.6713   36.7961  -16.3191 O   0  0  0  0  0  0  0  0  0  0  0  0
   -7.7115   33.8291  -11.9197 O   0  0  0  0  0  0  0  0  0  0  0  0
   -6.6024   36.6712  -17.5413 C   0  0  1  0  0  0  0  0  0  0  0  0
   -8.7479   31.8821  -12.8213 C   0  0  1  0  0  0  0  0  0  0  0  0
   -7.3752   37.6297  -18.3765 O   0  0  0  0  0  0  0  0  0  0  0  0
   -8.4994   31.4038  -11.4232 O   0  0  0  0  0  0  0  0  0  0  0  0
   -5.4698   37.1806  -17.1760 C   0  0  2  0  0  0  0  0  0  0  0  0
   -9.9968   31.7456  -13.1088 C   0  0  2  0  0  0  0  0  0  0  0  0
   -1.1817   35.6826  -20.0377 N   0  0  0  0  0  0  0  0  0  0  0  0
   -1.8768   36.8440  -20.1963 C   0  0  0  0  0  0  0  0  0  0  0  0
   -2.9623   37.1351  -19.4100 N   0  0  0  0  0  0  0  0  0  0  0  0
   -3.3491   36.2371  -18.4539 C   0  0  0  0  0  0  0  0  0  0  0  0
   -2.6798   35.0873  -18.2908 C   0  0  0  0  0  0  0  0  0  0  0  0
   -1.5720   34.8036  -19.0877 C   0  0  0  0  0  0  0  0  0  0  0  0
   -0.7856   33.6367  -19.0176 N   0  0  0  0  0  0  0  0  0  0  0  0
   -3.2696   34.4040  -17.2871 N   0  0  0  0  0  0  0  0  0  0  0  0
   -4.3204   35.1466  -16.8358 C   0  0  0  0  0  0  0  0  0  0  0  0
   -4.3607   36.2842  -17.5416 N   0  0  0  0  0  0  0  0  0  0  0  0
  -10.5738   27.0104  -15.1982 N   0  0  0  0  0  0  0  0  0  0  0  0
  -10.3506   27.3015  -13.8898 C   0  0  0  0  0  0  0  0  0  0  0  0
  -10.2140   28.6047  -13.5023 N   0  0  0  0  0  0  0  0  0  0  0  0
  -10.3065   29.6055  -14.4190 C   0  0  0  0  0  0  0  0  0  0  0  0
  -10.5324   29.3243  -15.7183 C   0  0  0  0  0  0  0  0  0  0  0  0
  -10.6663   27.9940  -16.1050 C   0  0  0  0  0  0  0  0  0  0  0  0
  -10.8900   27.4672  -17.4269 N   0  0  0  0  0  0  0  0  0  0  0  0
  -10.5720   30.5020  -16.3866 N   0  0  0  0  0  0  0  0  0  0  0  0
  -10.3745   31.5096  -15.4890 C   0  0  0  0  0  0  0  0  0  0  0  0
  -10.2144   30.9451  -14.2750 N   0  0  0  0  0  0  0  0  0  0  0  0
  1  3  1  1  0  0  0
  1  5  2  0  0  0  0
  1  9  1  0  0  0  0
  1 18  1  0  0  0  0
  2  4  1  6  0  0  0
  2  6  2  0  0  0  0
  2 10  1  0  0  0  0
  2 17  1  0  0  0  0
  7  9  1  0  0  0  0
  8 10  1  0  0  0  0
 11  7  1  1  0  0  0
 11 13  1  0  0  0  0
 11 15  1  0  0  0  0
 12  8  1  6  0  0  0
 12 14  1  0  0  0  0
 12 16  1  0  0  0  0
 13 23  1  0  0  0  0
 14 24  1  0  0  0  0
 15 17  1  6  0  0  0
 15 19  1  0  0  0  0
 16 18  1  1  0  0  0
 16 20  1  0  0  0  0
 19 21  1  6  0  0  0
 19 23  1  0  0  0  0
 20 22  1  1  0  0  0
 20 24  1  0  0  0  0
 23 34  1  1  0  0  0
 24 44  1  6  0  0  0
 25 26  2  0  0  0  0
 25 30  1  0  0  0  0
 26 27  1  0  0  0  0
 27 28  2  0  0  0  0
 28 29  1  0  0  0  0
 28 34  1  0  0  0  0
 29 30  2  0  0  0  0
 29 32  1  0  0  0  0
 30 31  1  0  0  0  0
 32 33  2  0  0  0  0
 33 34  1  0  0  0  0
 35 36  2  0  0  0  0
 35 40  1  0  0  0  0
 36 37  1  0  0  0  0
 37 38  2  0  0  0  0
 38 39  1  0  0  0  0
 38 44  1  0  0  0  0
 39 40  2  0  0  0  0
 39 42  1  0  0  0  0
 40 41  1  0  0  0  0
 42 43  2  0  0  0  0
 43 44  1  0  0  0  0
M  CHG  2   3  -1   4  -1
M  END
>  <CHROM.1>
-132.57894846,-154.41877854,-7.41614138,33.88725931,-15.53936673,2.68224492
-0.71301749,-2.77468922

>  <Name>
ligand

>  <RI>
0

>  <Rbt.Current_Directory>
/home/itssahil/PROJECTS/Mol_Feturizer/New_Systems/rnas/4QLM

>  <Rbt.Executable>
rbdock ($Id: //depot/dev/client3/rdock/2013.1/src/exe/rbdock.cxx#4 $)

>  <Rbt.Library>
libRbt.so (2013.1, Build901 2013/11/27)

>  <Rbt.Parameter_File>
/export/apps/rDock/src/rDock_2013.1_src/data/scripts/dock_solv.prm

>  <Rbt.Receptor>
prm/pocket_docking_2.prm

>  <SCORE>
-18.3872

>  <SCORE.INTER>
-18.651

>  <SCORE.INTER.CONST>
1

>  <SCORE.INTER.POLAR>
0

>  <SCORE.INTER.ROT>
2

>  <SCORE.INTER.SOLV>
37.2122

>  <SCORE.INTER.VDW>
-29.7714

>  <SCORE.INTER.norm>
-0.423886

>  <SCORE.INTRA>
0.198981

>  <SCORE.INTRA.DIHEDRAL>
0.0240256

>  <SCORE.INTRA.DIHEDRAL.0>
2.32994

>  <SCORE.INTRA.POLAR>
0

>  <SCORE.INTRA.POLAR.0>
0

>  <SCORE.INTRA.REPUL>
0

>  <SCORE.INTRA.REPUL.0>
0

>  <SCORE.INTRA.SOLV>
0.00547229

>  <SCORE.INTRA.SOLV.lig_0>
-117.703

>  <SCORE.INTRA.VDW>
0.184232

>  <SCORE.INTRA.VDW.0>
-1.59997

>  <SCORE.INTRA.norm>
0.0045223

>  <SCORE.RESTR>
0.064777

>  <SCORE.RESTR.CAVITY>
0.064777

>  <SCORE.RESTR.norm>
0.0014722

>  <SCORE.SYSTEM>
0

>  <SCORE.SYSTEM.CONST>
0

>  <SCORE.SYSTEM.DIHEDRAL>
0

>  <SCORE.SYSTEM.SOLV>
0

>  <SCORE.SYSTEM.norm>
0

>  <SCORE.heavy>
44

>  <SCORE.norm>
-0.417891

>  <RMSD>
0.611

$$$$
ligand
 OpenBabel11021811513D
libRbt.so/2013.1/901 2013/11/27
 44 50  0  0  0  0  0  0  0  0999 V2000
   -5.5395   34.9613  -12.6804 P   0  0  2  0  0  0  0  0  0  0  0  0
   -8.7754   36.1123  -16.8529 P   0  0  1  0  0  0  0  0  0  0  0  0
   -4.9464   35.9670  -11.6968 O   0  5  0  0  0  0  0  0  0  0  0  0
   -8.2633   35.2588  -17.9875 O   0  5  0  0  0  0  0  0  0  0  0  0
   -4.5976   33.7813  -12.6923 O   0  0  0  0  0  0  0  0  0  0  0  0
  -10.1554   36.6640  -17.2774 O   0  0  0  0  0  0  0  0  0  0  0  0
   -5.8010   37.1437  -13.9491 C   0  0  0  0  0  0  0  0  0  0  0  0
   -9.0530   35.8300  -14.3011 C   0  0  0  0  0  0  0  0  0  0  0  0
   -5.6176   35.7245  -14.0420 O   0  0  0  0  0  0  0  0  0  0  0  0
   -8.6982   35.1369  -15.5309 O   0  0  0  0  0  0  0  0  0  0  0  0
   -5.8119   37.7642  -15.3421 C   0  0  1  0  0  0  0  0  0  0  0  0
   -9.0654   34.7362  -13.1675 C   0  0  1  0  0  0  0  0  0  0  0  0
   -4.5834   37.9777  -15.6991 O   0  0  0  0  0  0  0  0  0  0  0  0
   -9.7998   33.8010  -13.6148 O   0  0  0  0  0  0  0  0  0  0  0  0
   -6.4177   36.8615  -16.3921 C   0  0  1  0  0  0  0  0  0  0  0  0
   -7.6888   34.0530  -13.0449 C   0  0  1  0  0  0  0  0  0  0  0  0
   -7.6918   37.2935  -16.5881 O   0  0  0  0  0  0  0  0  0  0  0  0
   -6.9951   34.5357  -12.0068 O   0  0  0  0  0  0  0  0  0  0  0  0
   -5.5458   37.1410  -17.6656 C   0  0  1  0  0  0  0  0  0  0  0  0
   -7.9508   32.5380  -12.8861 C   0  0  1  0  0  0  0  0  0  0  0  0
   -6.2711   38.0519  -18.5916 O   0  0  0  0  0  0  0  0  0  0  0  0
   -7.7903   32.1250  -11.4547 O   0  0  0  0  0  0  0  0  0  0  0  0
   -4.4447   37.6803  -17.2502 C   0  0  2  0  0  0  0  0  0  0  0  0
   -9.1767   32.3731  -13.2482 C   0  0  2  0  0  0  0  0  0  0  0  0
   -0.4363   35.6283  -20.1731 N   0  0  0  0  0  0  0  0  0  0  0  0
   -1.2644   36.6395  -20.5590 C   0  0  0  0  0  0  0  0  0  0  0  0
   -2.2618   37.0945  -19.7346 N   0  0  0  0  0  0  0  0  0  0  0  0
   -2.4229   36.5158  -18.5060 C   0  0  0  0  0  0  0  0  0  0  0  0
   -1.6209   35.5155  -18.1154 C   0  0  0  0  0  0  0  0  0  0  0  0
   -0.6038   35.0655  -18.9554 C   0  0  0  0  0  0  0  0  0  0  0  0
    0.3032   34.0271  -18.6656 N   0  0  0  0  0  0  0  0  0  0  0  0
   -1.9987   35.1431  -16.8740 N   0  0  0  0  0  0  0  0  0  0  0  0
   -3.0532   35.9247  -16.5050 C   0  0  0  0  0  0  0  0  0  0  0  0
   -3.3052   36.7829  -17.5020 N   0  0  0  0  0  0  0  0  0  0  0  0
  -10.4044   27.6912  -15.1700 N   0  0  0  0  0  0  0  0  0  0  0  0
  -10.4251   28.0665  -13.8642 C   0  0  0  0  0  0  0  0  0  0  0  0
  -10.0648   29.3394  -13.5221 N   0  0  0  0  0  0  0  0  0  0  0  0
   -9.6929   30.2279  -14.4828 C   0  0  0  0  0  0  0  0  0  0  0  0
   -9.6744   29.8639  -15.7810 C   0  0  0  0  0  0  0  0  0  0  0  0
  -10.0391   28.5642  -16.1202 C   0  0  0  0  0  0  0  0  0  0  0  0
  -10.0738   27.9595  -17.4271 N   0  0  0  0  0  0  0  0  0  0  0  0
   -9.2666   30.9389  -16.4972 N   0  0  0  0  0  0  0  0  0  0  0  0
   -9.0398   31.9681  -15.6317 C   0  0  0  0  0  0  0  0  0  0  0  0
   -9.3092   31.5193  -14.3890 N   0  0  0  0  0  0  0  0  0  0  0  0
  1  3  1  1  0  0  0
  1  5  2  0  0  0  0
  1  9  1  0  0  0  0
  1 18  1  0  0  0  0
  2  4  1  6  0  0  0
  2  6  2  0  0  0  0
  2 10  1  0  0  0  0
  2 17  1  0  0  0  0
  7  9  1  0  0  0  0
  8 10  1  0  0  0  0
 11  7  1  1  0  0  0
 11 13  1  0  0  0  0
 11 15  1  0  0  0  0
 12  8  1  6  0  0  0
 12 14  1  0  0  0  0
 12 16  1  0  0  0  0
 13 23  1  0  0  0  0
 14 24  1  0  0  0  0
 15 17  1  6  0  0  0
 15 19  1  0  0  0  0
 16 18  1  1  0  0  0
 16 20  1  0  0  0  0
 19 21  1  6  0  0  0
 19 23  1  0  0  0  0
 20 22  1  1  0  0  0
 20 24  1  0  0  0  0
 23 34  1  1  0  0  0
 24 44  1  6  0  0  0
 25 26  2  0  0  0  0
 25 30  1  0  0  0  0
 26 27  1  0  0  0  0
 27 28  2  0  0  0  0
 28 29  1  0  0  0  0
 28 34  1  0  0  0  0
 29 30  2  0  0  0  0
 29 32  1  0  0  0  0
 30 31  1  0  0  0  0
 32 33  2  0  0  0  0
 33 34  1  0  0  0  0
 35 36  2  0  0  0  0
 35 40  1  0  0  0  0
 36 37  1  0  0  0  0
 37 38  2  0  0  0  0
 38 39  1  0  0  0  0
 38 44  1  0  0  0  0
 39 40  2  0  0  0  0
 39 42  1  0  0  0  0
 40 41  1  0  0  0  0
 42 43  2  0  0  0  0
 43 44  1  0  0  0  0
M  CHG  2   3  -1   4  -1
M  END
>  <CHROM.1>
-152.53890073,-136.48910867,-6.55886166,34.41604438,-15.62630419,2.83199537
-0.73586210,-2.57777429

>  <Name>
ligand

>  <RI>
0

>  <Rbt.Current_Directory>
/home/itssahil/PROJECTS/Mol_Feturizer/New_Systems/rnas/4QLM

>  <Rbt.Executable>
rbdock ($Id: //depot/dev/client3/rdock/2013.1/src/exe/rbdock.cxx#4 $)

>  <Rbt.Library>
libRbt.so (2013.1, Build901 2013/11/27)

>  <Rbt.Parameter_File>
/export/apps/rDock/src/rDock_2013.1_src/data/scripts/dock_solv.prm

>  <Rbt.Receptor>
prm/pocket_docking_2.prm

>  <SCORE>
-20.0005

>  <SCORE.INTER>
-20.2587

>  <SCORE.INTER.CONST>
1

>  <SCORE.INTER.POLAR>
0

>  <SCORE.INTER.ROT>
2

>  <SCORE.INTER.SOLV>
35.6247

>  <SCORE.INTER.VDW>
-30.314

>  <SCORE.INTER.norm>
-0.460425

>  <SCORE.INTRA>
-0.0678028

>  <SCORE.INTRA.DIHEDRAL>
-0.0261585

>  <SCORE.INTRA.DIHEDRAL.0>
2.32994

>  <SCORE.INTRA.POLAR>
0

>  <SCORE.INTRA.POLAR.0>
0

>  <SCORE.INTRA.REPUL>
0

>  <SCORE.INTRA.REPUL.0>
0

>  <SCORE.INTRA.SOLV>
0.00265089

>  <SCORE.INTRA.SOLV.lig_0>
-117.703

>  <SCORE.INTRA.VDW>
-0.0560489

>  <SCORE.INTRA.VDW.0>
-1.59997

>  <SCORE.INTRA.norm>
-0.00154097

>  <SCORE.RESTR>
0.326008

>  <SCORE.RESTR.CAVITY>
0.326008

>  <SCORE.RESTR.norm>
0.00740927

>  <SCORE.SYSTEM>
0

>  <SCORE.SYSTEM.CONST>
0

>  <SCORE.SYSTEM.DIHEDRAL>
0

>  <SCORE.SYSTEM.SOLV>
0

>  <SCORE.SYSTEM.norm>
0

>  <SCORE.heavy>
44

>  <SCORE.norm>
-0.454557

>  <RMSD>
0.613

$$$$
ligand
 OpenBabel11021811513D
libRbt.so/2013.1/901 2013/11/27
 44 50  0  0  0  0  0  0  0  0999 V2000
   -6.3111   34.2628  -12.6679 P   0  0  2  0  0  0  0  0  0  0  0  0
   -9.7966   35.6411  -16.5612 P   0  0  1  0  0  0  0  0  0  0  0  0
   -5.6428   35.2150  -11.6795 O   0  5  0  0  0  0  0  0  0  0  0  0
   -9.3701   34.8375  -17.7655 O   0  5  0  0  0  0  0  0  0  0  0  0
   -5.3869   33.0759  -12.7967 O   0  0  0  0  0  0  0  0  0  0  0  0
  -11.1942   36.2253  -16.8681 O   0  0  0  0  0  0  0  0  0  0  0  0
   -6.6271   36.5054  -13.8134 C   0  0  0  0  0  0  0  0  0  0  0  0
   -9.9113   35.2407  -14.0127 C   0  0  0  0  0  0  0  0  0  0  0  0
   -6.4680   35.0905  -13.9843 O   0  0  0  0  0  0  0  0  0  0  0  0
   -9.6460   34.6034  -15.2941 O   0  0  0  0  0  0  0  0  0  0  0  0
   -6.7208   37.1914  -15.1722 C   0  0  1  0  0  0  0  0  0  0  0  0
   -9.8638   34.0945  -12.9331 C   0  0  1  0  0  0  0  0  0  0  0  0
   -5.5154   37.4099  -15.5986 O   0  0  0  0  0  0  0  0  0  0  0  0
  -10.6374   33.1886  -13.3745 O   0  0  0  0  0  0  0  0  0  0  0  0
   -7.4047   36.3453  -16.2213 C   0  0  1  0  0  0  0  0  0  0  0  0
   -8.4907   33.3932  -12.9329 C   0  0  1  0  0  0  0  0  0  0  0  0
   -8.6833   36.7981  -16.3131 O   0  0  0  0  0  0  0  0  0  0  0  0
   -7.7251   33.8196  -11.9211 O   0  0  0  0  0  0  0  0  0  0  0  0
   -6.6140   36.6766  -17.5347 C   0  0  1  0  0  0  0  0  0  0  0  0
   -8.7609   31.8749  -12.8283 C   0  0  1  0  0  0  0  0  0  0  0  0
   -7.3865   37.6373  -18.3677 O   0  0  0  0  0  0  0  0  0  0  0  0
   -8.5129   31.3929  -11.4313 O   0  0  0  0  0  0  0  0  0  0  0  0
   -5.4816   37.1851  -17.1676 C   0  0  2  0  0  0  0  0  0  0  0  0
  -10.0097   31.7390  -13.1167 C   0  0  2  0  0  0  0  0  0  0  0  0
   -1.3115   35.5969  -20.1525 N   0  0  0  0  0  0  0  0  0  0  0  0
   -2.0402   36.7322  -20.3453 C   0  0  0  0  0  0  0  0  0  0  0  0
   -3.0908   37.0502  -19.5227 N   0  0  0  0  0  0  0  0  0  0  0  0
   -3.4076   36.2060  -18.4944 C   0  0  0  0  0  0  0  0  0  0  0  0
   -2.7046   35.0821  -18.2965 C   0  0  0  0  0  0  0  0  0  0  0  0
   -1.6326   34.7713  -19.1314 C   0  0  0  0  0  0  0  0  0  0  0  0
   -0.8171   33.6267  -19.0312 N   0  0  0  0  0  0  0  0  0  0  0  0
   -3.2267   34.4511  -17.2235 N   0  0  0  0  0  0  0  0  0  0  0  0
   -4.2700   35.1994  -16.7641 C   0  0  0  0  0  0  0  0  0  0  0  0
   -4.3722   36.2899  -17.5352 N   0  0  0  0  0  0  0  0  0  0  0  0
  -10.5174   27.0062  -15.2293 N   0  0  0  0  0  0  0  0  0  0  0  0
  -10.2822   27.2936  -13.9222 C   0  0  0  0  0  0  0  0  0  0  0  0
  -10.1673   28.5969  -13.5279 N   0  0  0  0  0  0  0  0  0  0  0  0
  -10.2931   29.6013  -14.4367 C   0  0  0  0  0  0  0  0  0  0  0  0
  -10.5310   29.3238  -15.7346 C   0  0  0  0  0  0  0  0  0  0  0  0
  -10.6427   27.9934  -16.1282 C   0  0  0  0  0  0  0  0  0  0  0  0
  -10.8737   27.4705  -17.4504 N   0  0  0  0  0  0  0  0  0  0  0  0
  -10.6042   30.5046  -16.3944 N   0  0  0  0  0  0  0  0  0  0  0  0
  -10.4152   31.5103  -15.4929 C   0  0  0  0  0  0  0  0  0  0  0  0
  -10.2267   30.9416  -14.2850 N   0  0  0  0  0  0  0  0  0  0  0  0
  1  3  1  1  0  0  0
  1  5  2  0  0  0  0
  1  9  1  0  0  0  0
  1 18  1  0  0  0  0
  2  4  1  6  0  0  0
  2  6  2  0  0  0  0
  2 10  1  0  0  0  0
  2 17  1  0  0  0  0
  7  9  1  0  0  0  0
  8 10  1  0  0  0  0
 11  7  1  1  0  0  0
 11 13  1  0  0  0  0
 11 15  1  0  0  0  0
 12  8  1  6  0  0  0
 12 14  1  0  0  0  0
 12 16  1  0  0  0  0
 13 23  1  0  0  0  0
 14 24  1  0  0  0  0
 15 17  1  6  0  0  0
 15 19  1  0  0  0  0
 16 18  1  1  0  0  0
 16 20  1  0  0  0  0
 19 21  1  6  0  0  0
 19 23  1  0  0  0  0
 20 22  1  1  0  0  0
 20 24  1  0  0  0  0
 23 34  1  1  0  0  0
 24 44  1  6  0  0  0
 25 26  2  0  0  0  0
 25 30  1  0  0  0  0
 26 27  1  0  0  0  0
 27 28  2  0  0  0  0
 28 29  1  0  0  0  0
 28 34  1  0  0  0  0
 29 30  2  0  0  0  0
 29 32  1  0  0  0  0
 30 31  1  0  0  0  0
 32 33  2  0  0  0  0
 33 34  1  0  0  0  0
 35 36  2  0  0  0  0
 35 40  1  0  0  0  0
 36 37  1  0  0  0  0
 37 38  2  0  0  0  0
 38 39  1  0  0  0  0
 38 44  1  0  0  0  0
 39 40  2  0  0  0  0
 39 42  1  0  0  0  0
 40 41  1  0  0  0  0
 42 43  2  0  0  0  0
 43 44  1  0  0  0  0
M  CHG  2   3  -1   4  -1
M  END
>  <CHROM.1>
-137.48069564,-155.86844819,-7.43119427,33.88022427,-15.54913023,2.69382855
-0.72576753,-2.75865403

>  <Name>
ligand

>  <RI>
0

>  <Rbt.Current_Directory>
/home/itssahil/PROJECTS/Mol_Feturizer/New_Systems/rnas/4QLM

>  <Rbt.Executable>
rbdock ($Id: //depot/dev/client3/rdock/2013.1/src/exe/rbdock.cxx#4 $)

>  <Rbt.Library>
libRbt.so (2013.1, Build901 2013/11/27)

>  <Rbt.Parameter_File>
/export/apps/rDock/src/rDock_2013.1_src/data/scripts/dock_solv.prm

>  <Rbt.Receptor>
prm/pocket_docking_2.prm

>  <SCORE>
-18.3718

>  <SCORE.INTER>
-18.5606

>  <SCORE.INTER.CONST>
1

>  <SCORE.INTER.POLAR>
0

>  <SCORE.INTER.ROT>
2

>  <SCORE.INTER.SOLV>
37.2933

>  <SCORE.INTER.VDW>
-29.7382

>  <SCORE.INTER.norm>
-0.421832

>  <SCORE.INTRA>
0.112244

>  <SCORE.INTRA.DIHEDRAL>
0.00330637

>  <SCORE.INTRA.DIHEDRAL.0>
2.32994

>  <SCORE.INTRA.POLAR>
0

>  <SCORE.INTRA.POLAR.0>
0

>  <SCORE.INTRA.REPUL>
0

>  <SCORE.INTRA.REPUL.0>
0

>  <SCORE.INTRA.SOLV>
0.00873966

>  <SCORE.INTRA.SOLV.lig_0>
-117.703

>  <SCORE.INTRA.VDW>
0.106221

>  <SCORE.INTRA.VDW.0>
-1.59997

>  <SCORE.INTRA.norm>
0.00255099

>  <SCORE.RESTR>
0.0765725

>  <SCORE.RESTR.CAVITY>
0.0765725

>  <SCORE.RESTR.norm>
0.00174028

>  <SCORE.SYSTEM>
0

>  <SCORE.SYSTEM.CONST>
0

>  <SCORE.SYSTEM.DIHEDRAL>
0

>  <SCORE.SYSTEM.SOLV>
0

>  <SCORE.SYSTEM.norm>
0

>  <SCORE.heavy>
44

>  <SCORE.norm>
-0.417541

>  <RMSD>
0.624

$$$$
ligand
 OpenBabel11021811513D
libRbt.so/2013.1/901 2013/11/27
 44 50  0  0  0  0  0  0  0  0999 V2000
   -5.5365   34.9920  -12.6672 P   0  0  2  0  0  0  0  0  0  0  0  0
   -8.7867   36.1682  -16.8215 P   0  0  1  0  0  0  0  0  0  0  0  0
   -4.9340   35.9925  -11.6842 O   0  5  0  0  0  0  0  0  0  0  0  0
   -8.2841   35.3149  -17.9605 O   0  5  0  0  0  0  0  0  0  0  0  0
   -4.6003   33.8076  -12.6864 O   0  0  0  0  0  0  0  0  0  0  0  0
  -10.1661   36.7274  -17.2381 O   0  0  0  0  0  0  0  0  0  0  0  0
   -5.7937   37.1786  -13.9296 C   0  0  0  0  0  0  0  0  0  0  0  0
   -9.0535   35.8812  -14.2691 C   0  0  0  0  0  0  0  0  0  0  0  0
   -5.6175   35.7588  -14.0266 O   0  0  0  0  0  0  0  0  0  0  0  0
   -8.7079   35.1894  -15.5022 O   0  0  0  0  0  0  0  0  0  0  0  0
   -5.8083   37.8025  -15.3210 C   0  0  1  0  0  0  0  0  0  0  0  0
   -9.0657   34.7849  -13.1380 C   0  0  1  0  0  0  0  0  0  0  0  0
   -4.5804   38.0110  -15.6835 O   0  0  0  0  0  0  0  0  0  0  0  0
   -9.8067   33.8542  -13.5839 O   0  0  0  0  0  0  0  0  0  0  0  0
   -6.4233   36.9052  -16.3702 C   0  0  1  0  0  0  0  0  0  0  0  0
   -7.6918   34.0948  -13.0235 C   0  0  1  0  0  0  0  0  0  0  0  0
   -7.6962   37.3436  -16.5592 O   0  0  0  0  0  0  0  0  0  0  0  0
   -6.9909   34.5718  -11.9876 O   0  0  0  0  0  0  0  0  0  0  0  0
   -5.5562   37.1835  -17.6472 C   0  0  1  0  0  0  0  0  0  0  0  0
   -7.9603   32.5807  -12.8670 C   0  0  1  0  0  0  0  0  0  0  0  0
   -6.2816   38.1000  -18.5677 O   0  0  0  0  0  0  0  0  0  0  0  0
   -7.7949   32.1635  -11.4374 O   0  0  0  0  0  0  0  0  0  0  0  0
   -4.4506   37.7166  -17.2359 C   0  0  2  0  0  0  0  0  0  0  0  0
   -9.1886   32.4225  -13.2237 C   0  0  2  0  0  0  0  0  0  0  0  0
   -0.4545   35.6648  -20.1758 N   0  0  0  0  0  0  0  0  0  0  0  0
   -1.2763   36.6844  -20.5532 C   0  0  0  0  0  0  0  0  0  0  0  0
   -2.2710   37.1385  -19.7250 N   0  0  0  0  0  0  0  0  0  0  0  0
   -2.4358   36.5503  -18.5014 C   0  0  0  0  0  0  0  0  0  0  0  0
   -1.6401   35.5418  -18.1192 C   0  0  0  0  0  0  0  0  0  0  0  0
   -0.6256   35.0927  -18.9630 C   0  0  0  0  0  0  0  0  0  0  0  0
    0.2750   34.0463  -18.6819 N   0  0  0  0  0  0  0  0  0  0  0  0
   -2.0202   35.1612  -16.8811 N   0  0  0  0  0  0  0  0  0  0  0  0
   -3.0700   35.9461  -16.5055 C   0  0  0  0  0  0  0  0  0  0  0  0
   -3.3166   36.8143  -17.4952 N   0  0  0  0  0  0  0  0  0  0  0  0
  -10.3337   27.7173  -15.1395 N   0  0  0  0  0  0  0  0  0  0  0  0
  -10.3252   28.0838  -13.8311 C   0  0  0  0  0  0  0  0  0  0  0  0
   -9.9930   29.3650  -13.4913 N   0  0  0  0  0  0  0  0  0  0  0  0
   -9.6780   30.2701  -14.4568 C   0  0  0  0  0  0  0  0  0  0  0  0
   -9.6888   29.9148  -15.7574 C   0  0  0  0  0  0  0  0  0  0  0  0
  -10.0245   28.6067  -16.0943 C   0  0  0  0  0  0  0  0  0  0  0  0
  -10.0815   28.0092  -17.4039 N   0  0  0  0  0  0  0  0  0  0  0  0
   -9.3360   31.0060  -16.4784 N   0  0  0  0  0  0  0  0  0  0  0  0
   -9.1136   32.0364  -15.6130 C   0  0  0  0  0  0  0  0  0  0  0  0
   -9.3306   31.5720  -14.3658 N   0  0  0  0  0  0  0  0  0  0  0  0
  1  3  1  1  0  0  0
  1  5  2  0  0  0  0
  1  9  1  0  0  0  0
  1 18  1  0  0  0  0
  2  4  1  6  0  0  0
  2  6  2  0  0  0  0
  2 10  1  0  0  0  0
  2 17  1  0  0  0  0
  7  9  1  0  0  0  0
  8 10  1  0  0  0  0
 11  7  1  1  0  0  0
 11 13  1  0  0  0  0
 11 15  1  0  0  0  0
 12  8  1  6  0  0  0
 12 14  1  0  0  0  0
 12 16  1  0  0  0  0
 13 23  1  0  0  0  0
 14 24  1  0  0  0  0
 15 17  1  6  0  0  0
 15 19  1  0  0  0  0
 16 18  1  1  0  0  0
 16 20  1  0  0  0  0
 19 21  1  6  0  0  0
 19 23  1  0  0  0  0
 20 22  1  1  0  0  0
 20 24  1  0  0  0  0
 23 34  1  1  0  0  0
 24 44  1  6  0  0  0
 25 26  2  0  0  0  0
 25 30  1  0  0  0  0
 26 27  1  0  0  0  0
 27 28  2  0  0  0  0
 28 29  1  0  0  0  0
 28 34  1  0  0  0  0
 29 30  2  0  0  0  0
 29 32  1  0  0  0  0
 30 31  1  0  0  0  0
 32 33  2  0  0  0  0
 33 34  1  0  0  0  0
 35 36  2  0  0  0  0
 35 40  1  0  0  0  0
 36 37  1  0  0  0  0
 37 38  2  0  0  0  0
 38 39  1  0  0  0  0
 38 44  1  0  0  0  0
 39 40  2  0  0  0  0
 39 42  1  0  0  0  0
 40 41  1  0  0  0  0
 42 43  2  0  0  0  0
 43 44  1  0  0  0  0
M  CHG  2   3  -1   4  -1
M  END
>  <CHROM.1>
-152.08165553,-139.00325634,-6.56295961,34.45679969,-15.60821759,2.82022905
-0.73450392,-2.59851739

>  <Name>
ligand

>  <RI>
0

>  <Rbt.Current_Directory>
/home/itssahil/PROJECTS/Mol_Feturizer/New_Systems/rnas/4QLM

>  <Rbt.Executable>
rbdock ($Id: //depot/dev/client3/rdock/2013.1/src/exe/rbdock.cxx#4 $)

>  <Rbt.Library>
libRbt.so (2013.1, Build901 2013/11/27)

>  <Rbt.Parameter_File>
/export/apps/rDock/src/rDock_2013.1_src/data/scripts/dock_solv.prm

>  <Rbt.Receptor>
prm/pocket_docking_2.prm

>  <SCORE>
-20.1905

>  <SCORE.INTER>
-20.4652

>  <SCORE.INTER.CONST>
1

>  <SCORE.INTER.POLAR>
0

>  <SCORE.INTER.ROT>
2

>  <SCORE.INTER.SOLV>
35.4287

>  <SCORE.INTER.VDW>
-30.3864

>  <SCORE.INTER.norm>
-0.465118

>  <SCORE.INTRA>
-0.0767403

>  <SCORE.INTRA.DIHEDRAL>
-0.0253977

>  <SCORE.INTRA.DIHEDRAL.0>
2.32994

>  <SCORE.INTRA.POLAR>
0

>  <SCORE.INTRA.POLAR.0>
0

>  <SCORE.INTRA.REPUL>
0

>  <SCORE.INTRA.REPUL.0>
0

>  <SCORE.INTRA.SOLV>
0.0028003

>  <SCORE.INTRA.SOLV.lig_0>
-117.703

>  <SCORE.INTRA.VDW>
-0.0654416

>  <SCORE.INTRA.VDW.0>
-1.59997

>  <SCORE.INTRA.norm>
-0.0017441

>  <SCORE.RESTR>
0.351448

>  <SCORE.RESTR.CAVITY>
0.351448

>  <SCORE.RESTR.norm>
0.00798745

>  <SCORE.SYSTEM>
0

>  <SCORE.SYSTEM.CONST>
0

>  <SCORE.SYSTEM.DIHEDRAL>
0

>  <SCORE.SYSTEM.SOLV>
0

>  <SCORE.SYSTEM.norm>
0

>  <SCORE.heavy>
44

>  <SCORE.norm>
-0.458874

>  <RMSD>
0.630

$$$$
ligand
 OpenBabel11021811513D
libRbt.so/2013.1/901 2013/11/27
 44 50  0  0  0  0  0  0  0  0999 V2000
   -5.5777   35.0228  -12.6468 P   0  0  2  0  0  0  0  0  0  0  0  0
   -8.8084   36.1902  -16.8188 P   0  0  1  0  0  0  0  0  0  0  0  0
   -4.9847   36.0248  -11.6595 O   0  5  0  0  0  0  0  0  0  0  0  0
   -8.2960   35.3398  -17.9556 O   0  5  0  0  0  0  0  0  0  0  0  0
   -4.6370   33.8420  -12.6616 O   0  0  0  0  0  0  0  0  0  0  0  0
  -10.1875   36.7445  -17.2429 O   0  0  0  0  0  0  0  0  0  0  0  0
   -5.8359   37.2095  -13.9088 C   0  0  0  0  0  0  0  0  0  0  0  0
   -9.0888   35.9000  -14.2682 C   0  0  0  0  0  0  0  0  0  0  0  0
   -5.6538   35.7905  -14.0060 O   0  0  0  0  0  0  0  0  0  0  0  0
   -8.7335   35.2105  -15.4999 O   0  0  0  0  0  0  0  0  0  0  0  0
   -5.8449   37.8345  -15.2998 C   0  0  1  0  0  0  0  0  0  0  0  0
   -9.1034   34.8026  -13.1381 C   0  0  1  0  0  0  0  0  0  0  0  0
   -4.6158   38.0479  -15.6550 O   0  0  0  0  0  0  0  0  0  0  0  0
   -9.8382   33.8695  -13.5891 O   0  0  0  0  0  0  0  0  0  0  0  0
   -6.4505   36.9357  -16.3533 C   0  0  1  0  0  0  0  0  0  0  0  0
   -7.7275   34.1177  -13.0163 C   0  0  1  0  0  0  0  0  0  0  0  0
   -7.7239   37.3695  -16.5492 O   0  0  0  0  0  0  0  0  0  0  0  0
   -7.0344   34.5965  -11.9760 O   0  0  0  0  0  0  0  0  0  0  0  0
   -5.5770   37.2184  -17.6250 C   0  0  1  0  0  0  0  0  0  0  0  0
   -7.9911   32.6024  -12.8626 C   0  0  1  0  0  0  0  0  0  0  0  0
   -6.3006   38.1329  -18.5489 O   0  0  0  0  0  0  0  0  0  0  0  0
   -7.8324   32.1847  -11.4324 O   0  0  0  0  0  0  0  0  0  0  0  0
   -4.4759   37.7553  -17.2069 C   0  0  2  0  0  0  0  0  0  0  0  0
   -9.2168   32.4399  -13.2265 C   0  0  2  0  0  0  0  0  0  0  0  0
   -0.5001   35.6718  -20.1520 N   0  0  0  0  0  0  0  0  0  0  0  0
   -1.3364   36.6746  -20.5418 C   0  0  0  0  0  0  0  0  0  0  0  0
   -2.3242   37.1389  -19.7111 N   0  0  0  0  0  0  0  0  0  0  0  0
   -2.4672   36.5782  -18.4720 C   0  0  0  0  0  0  0  0  0  0  0  0
   -1.6570   35.5862  -18.0772 C   0  0  0  0  0  0  0  0  0  0  0  0
   -0.6497   35.1267  -18.9239 C   0  0  0  0  0  0  0  0  0  0  0  0
    0.2644   34.0954  -18.6308 N   0  0  0  0  0  0  0  0  0  0  0  0
   -2.0170   35.2313  -16.8255 N   0  0  0  0  0  0  0  0  0  0  0  0
   -3.0690   36.0152  -16.4541 C   0  0  0  0  0  0  0  0  0  0  0  0
   -3.3370   36.8576  -17.4604 N   0  0  0  0  0  0  0  0  0  0  0  0
  -10.3726   27.7431  -15.1564 N   0  0  0  0  0  0  0  0  0  0  0  0
  -10.3804   28.1104  -13.8482 C   0  0  0  0  0  0  0  0  0  0  0  0
  -10.0426   29.3890  -13.5043 N   0  0  0  0  0  0  0  0  0  0  0  0
   -9.7058   30.2908  -14.4655 C   0  0  0  0  0  0  0  0  0  0  0  0
   -9.7003   29.9347  -15.7660 C   0  0  0  0  0  0  0  0  0  0  0  0
  -10.0419   28.6293  -16.1071 C   0  0  0  0  0  0  0  0  0  0  0  0
  -10.0845   28.0314  -17.4169 N   0  0  0  0  0  0  0  0  0  0  0  0
   -9.3278   31.0225  -16.4822 N   0  0  0  0  0  0  0  0  0  0  0  0
   -9.1096   32.0515  -15.6142 C   0  0  0  0  0  0  0  0  0  0  0  0
   -9.3490   31.5898  -14.3701 N   0  0  0  0  0  0  0  0  0  0  0  0
  1  3  1  1  0  0  0
  1  5  2  0  0  0  0
  1  9  1  0  0  0  0
  1 18  1  0  0  0  0
  2  4  1  6  0  0  0
  2  6  2  0  0  0  0
  2 10  1  0  0  0  0
  2 17  1  0  0  0  0
  7  9  1  0  0  0  0
  8 10  1  0  0  0  0
 11  7  1  1  0  0  0
 11 13  1  0  0  0  0
 11 15  1  0  0  0  0
 12  8  1  6  0  0  0
 12 14  1  0  0  0  0
 12 16  1  0  0  0  0
 13 23  1  0  0  0  0
 14 24  1  0  0  0  0
 15 17  1  6  0  0  0
 15 19  1  0  0  0  0
 16 18  1  1  0  0  0
 16 20  1  0  0  0  0
 19 21  1  6  0  0  0
 19 23  1  0  0  0  0
 20 22  1  1  0  0  0
 20 24  1  0  0  0  0
 23 34  1  1  0  0  0
 24 44  1  6  0  0  0
 25 26  2  0  0  0  0
 25 30  1  0  0  0  0
 26 27  1  0  0  0  0
 27 28  2  0  0  0  0
 28 29  1  0  0  0  0
 28 34  1  0  0  0  0
 29 30  2  0  0  0  0
 29 32  1  0  0  0  0
 30 31  1  0  0  0  0
 32 33  2  0  0  0  0
 33 34  1  0  0  0  0
 35 36  2  0  0  0  0
 35 40  1  0  0  0  0
 36 37  1  0  0  0  0
 37 38  2  0  0  0  0
 38 39  1  0  0  0  0
 38 44  1  0  0  0  0
 39 40  2  0  0  0  0
 39 42  1  0  0  0  0
 40 41  1  0  0  0  0
 42 43  2  0  0  0  0
 43 44  1  0  0  0  0
M  CHG  2   3  -1   4  -1
M  END
>  <CHROM.1>
-153.88035466,-138.13146678,-6.59126753,34.48364028,-15.59606052,2.82380430
-0.73517020,-2.58703632

>  <Name>
ligand

>  <RI>
0

>  <Rbt.Current_Directory>
/home/itssahil/PROJECTS/Mol_Feturizer/New_Systems/rnas/4QLM

>  <Rbt.Executable>
rbdock ($Id: //depot/dev/client3/rdock/2013.1/src/exe/rbdock.cxx#4 $)

>  <Rbt.Library>
libRbt.so (2013.1, Build901 2013/11/27)

>  <Rbt.Parameter_File>
/export/apps/rDock/src/rDock_2013.1_src/data/scripts/dock_solv.prm

>  <Rbt.Receptor>
prm/pocket_docking_2.prm

>  <SCORE>
-20.1679

>  <SCORE.INTER>
-20.432

>  <SCORE.INTER.CONST>
1

>  <SCORE.INTER.POLAR>
0

>  <SCORE.INTER.ROT>
2

>  <SCORE.INTER.SOLV>
35.469

>  <SCORE.INTER.VDW>
-30.3777

>  <SCORE.INTER.norm>
-0.464364

>  <SCORE.INTRA>
-0.065264

>  <SCORE.INTRA.DIHEDRAL>
-0.0249965

>  <SCORE.INTRA.DIHEDRAL.0>
2.32994

>  <SCORE.INTRA.POLAR>
0

>  <SCORE.INTRA.POLAR.0>
0

>  <SCORE.INTRA.REPUL>
0

>  <SCORE.INTRA.REPUL.0>
0

>  <SCORE.INTRA.SOLV>
0.00315961

>  <SCORE.INTRA.SOLV.lig_0>
-117.703

>  <SCORE.INTRA.VDW>
-0.0543456

>  <SCORE.INTRA.VDW.0>
-1.59997

>  <SCORE.INTRA.norm>
-0.00148327

>  <SCORE.RESTR>
0.329344

>  <SCORE.RESTR.CAVITY>
0.329344

>  <SCORE.RESTR.norm>
0.00748508

>  <SCORE.SYSTEM>
0

>  <SCORE.SYSTEM.CONST>
0

>  <SCORE.SYSTEM.DIHEDRAL>
0

>  <SCORE.SYSTEM.SOLV>
0

>  <SCORE.SYSTEM.norm>
0

>  <SCORE.heavy>
44

>  <SCORE.norm>
-0.458362

>  <RMSD>
0.648

$$$$
ligand
 OpenBabel11021811513D
libRbt.so/2013.1/901 2013/11/27
 44 50  0  0  0  0  0  0  0  0999 V2000
   -6.4085   34.3561  -12.6723 P   0  0  2  0  0  0  0  0  0  0  0  0
   -9.9057   35.5483  -16.6161 P   0  0  1  0  0  0  0  0  0  0  0  0
   -5.7932   35.3450  -11.6854 O   0  5  0  0  0  0  0  0  0  0  0  0
   -9.4313   34.7534  -17.8082 O   0  5  0  0  0  0  0  0  0  0  0  0
   -5.4327   33.2091  -12.7799 O   0  0  0  0  0  0  0  0  0  0  0  0
  -11.3237   36.0689  -16.9438 O   0  0  0  0  0  0  0  0  0  0  0  0
   -6.8079   36.5728  -13.8419 C   0  0  0  0  0  0  0  0  0  0  0  0
  -10.0321   35.1657  -14.0654 C   0  0  0  0  0  0  0  0  0  0  0  0
   -6.5860   35.1647  -13.9979 O   0  0  0  0  0  0  0  0  0  0  0  0
   -9.7249   34.5293  -15.3379 O   0  0  0  0  0  0  0  0  0  0  0  0
   -6.9155   37.2421  -15.2079 C   0  0  1  0  0  0  0  0  0  0  0  0
   -9.9474   34.0322  -12.9748 C   0  0  1  0  0  0  0  0  0  0  0  0
   -5.7160   37.5088  -15.6231 O   0  0  0  0  0  0  0  0  0  0  0  0
  -10.6762   33.0899  -13.4162 O   0  0  0  0  0  0  0  0  0  0  0  0
   -7.5505   36.3581  -16.2566 C   0  0  1  0  0  0  0  0  0  0  0  0
   -8.5455   33.3909  -12.9531 C   0  0  1  0  0  0  0  0  0  0  0  0
   -8.8463   36.7545  -16.3665 O   0  0  0  0  0  0  0  0  0  0  0  0
   -7.8105   33.8588  -11.9369 O   0  0  0  0  0  0  0  0  0  0  0  0
   -6.7599   36.7117  -17.5642 C   0  0  1  0  0  0  0  0  0  0  0  0
   -8.7512   31.8633  -12.8374 C   0  0  1  0  0  0  0  0  0  0  0  0
   -7.5635   37.6308  -18.4145 O   0  0  0  0  0  0  0  0  0  0  0  0
   -8.4986   31.4048  -11.4334 O   0  0  0  0  0  0  0  0  0  0  0  0
   -5.6547   37.2719  -17.1895 C   0  0  2  0  0  0  0  0  0  0  0  0
   -9.9896   31.6711  -13.1381 C   0  0  2  0  0  0  0  0  0  0  0  0
   -1.3518   35.8716  -20.0784 N   0  0  0  0  0  0  0  0  0  0  0  0
   -2.1168   36.9814  -20.2790 C   0  0  0  0  0  0  0  0  0  0  0  0
   -3.1996   37.2513  -19.4813 N   0  0  0  0  0  0  0  0  0  0  0  0
   -3.5117   36.3846  -18.4706 C   0  0  0  0  0  0  0  0  0  0  0  0
   -2.7731   35.2851  -18.2656 C   0  0  0  0  0  0  0  0  0  0  0  0
   -1.6688   35.0233  -19.0747 C   0  0  0  0  0  0  0  0  0  0  0  0
   -0.8144   33.9084  -18.9646 N   0  0  0  0  0  0  0  0  0  0  0  0
   -3.2994   34.6234  -17.2133 N   0  0  0  0  0  0  0  0  0  0  0  0
   -4.3813   35.3277  -16.7742 C   0  0  0  0  0  0  0  0  0  0  0  0
   -4.5037   36.4222  -17.5365 N   0  0  0  0  0  0  0  0  0  0  0  0
  -10.6051   26.9175  -15.1739 N   0  0  0  0  0  0  0  0  0  0  0  0
  -10.4592   27.2276  -13.8590 C   0  0  0  0  0  0  0  0  0  0  0  0
  -10.2994   28.5328  -13.4872 N   0  0  0  0  0  0  0  0  0  0  0  0
  -10.2920   29.5168  -14.4265 C   0  0  0  0  0  0  0  0  0  0  0  0
  -10.4408   29.2169  -15.7327 C   0  0  0  0  0  0  0  0  0  0  0  0
  -10.5991   27.8845  -16.1029 C   0  0  0  0  0  0  0  0  0  0  0  0
  -10.7535   27.3387  -17.4270 N   0  0  0  0  0  0  0  0  0  0  0  0
  -10.3906   30.3809  -16.4238 N   0  0  0  0  0  0  0  0  0  0  0  0
  -10.2155   31.3992  -15.5336 C   0  0  0  0  0  0  0  0  0  0  0  0
  -10.1588   30.8548  -14.3013 N   0  0  0  0  0  0  0  0  0  0  0  0
  1  3  1  1  0  0  0
  1  5  2  0  0  0  0
  1  9  1  0  0  0  0
  1 18  1  0  0  0  0
  2  4  1  6  0  0  0
  2  6  2  0  0  0  0
  2 10  1  0  0  0  0
  2 17  1  0  0  0  0
  7  9  1  0  0  0  0
  8 10  1  0  0  0  0
 11  7  1  1  0  0  0
 11 13  1  0  0  0  0
 11 15  1  0  0  0  0
 12  8  1  6  0  0  0
 12 14  1  0  0  0  0
 12 16  1  0  0  0  0
 13 23  1  0  0  0  0
 14 24  1  0  0  0  0
 15 17  1  6  0  0  0
 15 19  1  0  0  0  0
 16 18  1  1  0  0  0
 16 20  1  0  0  0  0
 19 21  1  6  0  0  0
 19 23  1  0  0  0  0
 20 22  1  1  0  0  0
 20 24  1  0  0  0  0
 23 34  1  1  0  0  0
 24 44  1  6  0  0  0
 25 26  2  0  0  0  0
 25 30  1  0  0  0  0
 26 27  1  0  0  0  0
 27 28  2  0  0  0  0
 28 29  1  0  0  0  0
 28 34  1  0  0  0  0
 29 30  2  0  0  0  0
 29 32  1  0  0  0  0
 30 31  1  0  0  0  0
 32 33  2  0  0  0  0
 33 34  1  0  0  0  0
 35 36  2  0  0  0  0
 35 40  1  0  0  0  0
 36 37  1  0  0  0  0
 37 38  2  0  0  0  0
 38 39  1  0  0  0  0
 38 44  1  0  0  0  0
 39 40  2  0  0  0  0
 39 42  1  0  0  0  0
 40 41  1  0  0  0  0
 42 43  2  0  0  0  0
 43 44  1  0  0  0  0
M  CHG  2   3  -1   4  -1
M  END
>  <CHROM.1>
-136.00703194,-148.73769042,-7.50175926,33.90371722,-15.55674157,2.67307800
-0.74145439,-2.75120169

>  <Name>
ligand

>  <RI>
0

>  <Rbt.Current_Directory>
/home/itssahil/PROJECTS/Mol_Feturizer/New_Systems/rnas/4QLM

>  <Rbt.Executable>
rbdock ($Id: //depot/dev/client3/rdock/2013.1/src/exe/rbdock.cxx#4 $)

>  <Rbt.Library>
libRbt.so (2013.1, Build901 2013/11/27)

>  <Rbt.Parameter_File>
/export/apps/rDock/src/rDock_2013.1_src/data/scripts/dock_solv.prm

>  <Rbt.Receptor>
prm/pocket_docking_2.prm

>  <SCORE>
-18.326

>  <SCORE.INTER>
-18.4495

>  <SCORE.INTER.CONST>
1

>  <SCORE.INTER.POLAR>
0

>  <SCORE.INTER.ROT>
2

>  <SCORE.INTER.SOLV>
35.4027

>  <SCORE.INTER.VDW>
-29.0339

>  <SCORE.INTER.norm>
-0.419307

>  <SCORE.INTRA>
0.0680574

>  <SCORE.INTRA.DIHEDRAL>
0.00951338

>  <SCORE.INTRA.DIHEDRAL.0>
2.32994

>  <SCORE.INTRA.POLAR>
0

>  <SCORE.INTRA.POLAR.0>
0

>  <SCORE.INTRA.REPUL>
0

>  <SCORE.INTRA.REPUL.0>
0

>  <SCORE.INTRA.SOLV>
0.000916751

>  <SCORE.INTRA.SOLV.lig_0>
-117.703

>  <SCORE.INTRA.VDW>
0.0628424

>  <SCORE.INTRA.VDW.0>
-1.59997

>  <SCORE.INTRA.norm>
0.00154676

>  <SCORE.RESTR>
0.0554455

>  <SCORE.RESTR.CAVITY>
0.0554455

>  <SCORE.RESTR.norm>
0.00126013

>  <SCORE.SYSTEM>
0

>  <SCORE.SYSTEM.CONST>
0

>  <SCORE.SYSTEM.DIHEDRAL>
0

>  <SCORE.SYSTEM.SOLV>
0

>  <SCORE.SYSTEM.norm>
0

>  <SCORE.heavy>
44

>  <SCORE.norm>
-0.4165

>  <RMSD>
0.683

$$$$
ligand
 OpenBabel11021811513D
libRbt.so/2013.1/901 2013/11/27
 44 50  0  0  0  0  0  0  0  0999 V2000
   -5.1065   34.0936  -13.1574 P   0  0  2  0  0  0  0  0  0  0  0  0
   -9.1544   35.6096  -16.4011 P   0  0  1  0  0  0  0  0  0  0  0  0
   -4.3487   34.9920  -12.1832 O   0  5  0  0  0  0  0  0  0  0  0  0
   -8.8654   34.9379  -17.7215 O   0  5  0  0  0  0  0  0  0  0  0  0
   -4.1593   32.9749  -13.5193 O   0  0  0  0  0  0  0  0  0  0  0  0
  -10.6048   36.1403  -16.4616 O   0  0  0  0  0  0  0  0  0  0  0  0
   -5.6740   36.4060  -14.0358 C   0  0  0  0  0  0  0  0  0  0  0  0
   -8.8970   34.9844  -13.9089 C   0  0  0  0  0  0  0  0  0  0  0  0
   -5.4799   35.0222  -14.3577 O   0  0  0  0  0  0  0  0  0  0  0  0
   -8.7852   34.4760  -15.2681 O   0  0  0  0  0  0  0  0  0  0  0  0
   -5.9845   37.2008  -15.2997 C   0  0  1  0  0  0  0  0  0  0  0  0
   -8.6512   33.7535  -12.9571 C   0  0  1  0  0  0  0  0  0  0  0  0
   -4.8605   37.5215  -15.8620 O   0  0  0  0  0  0  0  0  0  0  0  0
   -9.4392   32.8480  -13.3730 O   0  0  0  0  0  0  0  0  0  0  0  0
   -6.7708   36.4123  -16.3216 C   0  0  1  0  0  0  0  0  0  0  0  0
   -7.2627   33.1315  -13.2069 C   0  0  1  0  0  0  0  0  0  0  0  0
   -8.0679   36.8003  -16.1981 O   0  0  0  0  0  0  0  0  0  0  0  0
   -6.3829   33.5102  -12.2718 O   0  0  0  0  0  0  0  0  0  0  0  0
   -6.1850   36.8991  -17.6928 C   0  0  1  0  0  0  0  0  0  0  0  0
   -7.4507   31.5973  -13.2089 C   0  0  1  0  0  0  0  0  0  0  0  0
   -7.1059   37.8842  -18.3211 O   0  0  0  0  0  0  0  0  0  0  0  0
   -6.9908   31.0107  -11.9090 O   0  0  0  0  0  0  0  0  0  0  0  0
   -5.0353   37.4355  -17.4354 C   0  0  2  0  0  0  0  0  0  0  0  0
   -8.7205   31.4183  -13.3382 C   0  0  2  0  0  0  0  0  0  0  0  0
   -0.9860   36.5258  -20.8409 N   0  0  0  0  0  0  0  0  0  0  0  0
   -1.7054   37.6798  -20.7517 C   0  0  0  0  0  0  0  0  0  0  0  0
   -2.7243   37.8132  -19.8431 N   0  0  0  0  0  0  0  0  0  0  0  0
   -3.0187   36.7635  -19.0174 C   0  0  0  0  0  0  0  0  0  0  0  0
   -2.3248   35.6197  -19.0983 C   0  0  0  0  0  0  0  0  0  0  0  0
   -1.2848   35.4958  -20.0179 C   0  0  0  0  0  0  0  0  0  0  0  0
   -0.4818   34.3530  -20.2024 N   0  0  0  0  0  0  0  0  0  0  0  0
   -2.8202   34.7692  -18.1744 N   0  0  0  0  0  0  0  0  0  0  0  0
   -3.8378   35.4028  -17.5247 C   0  0  0  0  0  0  0  0  0  0  0  0
   -3.9505   36.6378  -18.0306 N   0  0  0  0  0  0  0  0  0  0  0  0
  -10.6173   27.1105  -15.5664 N   0  0  0  0  0  0  0  0  0  0  0  0
  -10.4557   27.3357  -14.2362 C   0  0  0  0  0  0  0  0  0  0  0  0
   -9.9337   28.5251  -13.8117 N   0  0  0  0  0  0  0  0  0  0  0  0
   -9.5830   29.4805  -14.7143 C   0  0  0  0  0  0  0  0  0  0  0  0
   -9.7447   29.2658  -16.0356 C   0  0  0  0  0  0  0  0  0  0  0  0
  -10.2734   28.0500  -16.4594 C   0  0  0  0  0  0  0  0  0  0  0  0
  -10.5130   27.6027  -17.8076 N   0  0  0  0  0  0  0  0  0  0  0  0
   -9.3127   30.3750  -16.6821 N   0  0  0  0  0  0  0  0  0  0  0  0
   -8.8894   31.2756  -15.7495 C   0  0  0  0  0  0  0  0  0  0  0  0
   -9.0634   30.7142  -14.5360 N   0  0  0  0  0  0  0  0  0  0  0  0
  1  3  1  1  0  0  0
  1  5  2  0  0  0  0
  1  9  1  0  0  0  0
  1 18  1  0  0  0  0
  2  4  1  6  0  0  0
  2  6  2  0  0  0  0
  2 10  1  0  0  0  0
  2 17  1  0  0  0  0
  7  9  1  0  0  0  0
  8 10  1  0  0  0  0
 11  7  1  1  0  0  0
 11 13  1  0  0  0  0
 11 15  1  0  0  0  0
 12  8  1  6  0  0  0
 12 14  1  0  0  0  0
 12 16  1  0  0  0  0
 13 23  1  0  0  0  0
 14 24  1  0  0  0  0
 15 17  1  6  0  0  0
 15 19  1  0  0  0  0
 16 18  1  1  0  0  0
 16 20  1  0  0  0  0
 19 21  1  1  0  0  0
 19 23  1  0  0  0  0
 20 22  1  1  0  0  0
 20 24  1  0  0  0  0
 23 34  1  1  0  0  0
 24 44  1  6  0  0  0
 25 26  2  0  0  0  0
 25 30  1  0  0  0  0
 26 27  1  0  0  0  0
 27 28  2  0  0  0  0
 28 29  1  0  0  0  0
 28 34  1  0  0  0  0
 29 30  2  0  0  0  0
 29 32  1  0  0  0  0
 30 31  1  0  0  0  0
 32 33  2  0  0  0  0
 33 34  1  0  0  0  0
 35 36  2  0  0  0  0
 35 40  1  0  0  0  0
 36 37  1  0  0  0  0
 37 38  2  0  0  0  0
 38 39  1  0  0  0  0
 38 44  1  0  0  0  0
 39 40  2  0  0  0  0
 39 42  1  0  0  0  0
 40 41  1  0  0  0  0
 42 43  2  0  0  0  0
 43 44  1  0  0  0  0
M  CHG  2   3  -1   4  -1
M  END
>  <CHROM.1>
-127.24395056,-127.26157347,-6.68007696,33.93267170,-15.85133736,0.18773500
0.87888654,0.79410941

>  <Name>
ligand

>  <RI>
0

>  <Rbt.Current_Directory>
/home/itssahil/PROJECTS/Mol_Feturizer/New_Systems/rnas/4QLM

>  <Rbt.Executable>
rbdock ($Id: //depot/dev/client3/rdock/2013.1/src/exe/rbdock.cxx#4 $)

>  <Rbt.Library>
libRbt.so (2013.1, Build901 2013/11/27)

>  <Rbt.Parameter_File>
/export/apps/rDock/src/rDock_2013.1_src/data/scripts/dock_solv.prm

>  <Rbt.Receptor>
prm/pocket_docking_3.prm

>  <SCORE>
-18.9723

>  <SCORE.INTER>
-19.3943

>  <SCORE.INTER.CONST>
1

>  <SCORE.INTER.POLAR>
0

>  <SCORE.INTER.ROT>
2

>  <SCORE.INTER.SOLV>
36.7742

>  <SCORE.INTER.VDW>
-30.1209

>  <SCORE.INTER.norm>
-0.440779

>  <SCORE.INTRA>
0.420351

>  <SCORE.INTRA.DIHEDRAL>
0.044061

>  <SCORE.INTRA.DIHEDRAL.0>
2.32994

>  <SCORE.INTRA.POLAR>
0

>  <SCORE.INTRA.POLAR.0>
0

>  <SCORE.INTRA.REPUL>
0

>  <SCORE.INTRA.REPUL.0>
0

>  <SCORE.INTRA.SOLV>
-0.0028524

>  <SCORE.INTRA.SOLV.lig_0>
-117.703

>  <SCORE.INTRA.VDW>
0.399747

>  <SCORE.INTRA.VDW.0>
-1.59997

>  <SCORE.INTRA.norm>
0.00955343

>  <SCORE.RESTR>
0.00163821

>  <SCORE.RESTR.CAVITY>
0.00163821

>  <SCORE.RESTR.norm>
3.72321e-05

>  <SCORE.SYSTEM>
0

>  <SCORE.SYSTEM.CONST>
0

>  <SCORE.SYSTEM.DIHEDRAL>
0

>  <SCORE.SYSTEM.SOLV>
0

>  <SCORE.SYSTEM.norm>
0

>  <SCORE.heavy>
44

>  <SCORE.norm>
-0.431188

>  <RMSD>
0.685

$$$$
ligand
 OpenBabel11021811513D
libRbt.so/2013.1/901 2013/11/27
 44 50  0  0  0  0  0  0  0  0999 V2000
   -5.1338   34.1069  -13.1738 P   0  0  2  0  0  0  0  0  0  0  0  0
   -9.2160   35.6005  -16.3848 P   0  0  1  0  0  0  0  0  0  0  0  0
   -4.3774   35.0081  -12.2010 O   0  5  0  0  0  0  0  0  0  0  0  0
   -8.9298   34.9367  -17.7097 O   0  5  0  0  0  0  0  0  0  0  0  0
   -4.1794   32.9980  -13.5464 O   0  0  0  0  0  0  0  0  0  0  0  0
  -10.6713   36.1189  -16.4336 O   0  0  0  0  0  0  0  0  0  0  0  0
   -5.7270   36.4178  -14.0392 C   0  0  0  0  0  0  0  0  0  0  0  0
   -8.9368   34.9678  -13.8968 C   0  0  0  0  0  0  0  0  0  0  0  0
   -5.5231   35.0370  -14.3679 O   0  0  0  0  0  0  0  0  0  0  0  0
   -8.8294   34.4658  -15.2589 O   0  0  0  0  0  0  0  0  0  0  0  0
   -6.0528   37.2149  -15.2978 C   0  0  1  0  0  0  0  0  0  0  0  0
   -8.6740   33.7353  -12.9516 C   0  0  1  0  0  0  0  0  0  0  0  0
   -4.9354   37.5475  -15.8661 O   0  0  0  0  0  0  0  0  0  0  0  0
   -9.4568   32.8246  -13.3661 O   0  0  0  0  0  0  0  0  0  0  0  0
   -6.8389   36.4237  -16.3177 C   0  0  1  0  0  0  0  0  0  0  0  0
   -7.2819   33.1264  -13.2130 C   0  0  1  0  0  0  0  0  0  0  0  0
   -8.1385   36.7999  -16.1841 O   0  0  0  0  0  0  0  0  0  0  0  0
   -6.3992   33.5090  -12.2822 O   0  0  0  0  0  0  0  0  0  0  0  0
   -6.2663   36.9209  -17.6907 C   0  0  1  0  0  0  0  0  0  0  0  0
   -7.4565   31.5906  -13.2200 C   0  0  1  0  0  0  0  0  0  0  0  0
   -7.1999   37.9005  -18.3090 O   0  0  0  0  0  0  0  0  0  0  0  0
   -6.9830   31.0028  -11.9256 O   0  0  0  0  0  0  0  0  0  0  0  0
   -5.1197   37.4663  -17.4387 C   0  0  2  0  0  0  0  0  0  0  0  0
   -8.7255   31.4011  -13.3417 C   0  0  2  0  0  0  0  0  0  0  0  0
   -1.0881   36.6037  -20.8772 N   0  0  0  0  0  0  0  0  0  0  0  0
   -1.8176   37.7506  -20.7796 C   0  0  0  0  0  0  0  0  0  0  0  0
   -2.8308   37.8720  -19.8629 N   0  0  0  0  0  0  0  0  0  0  0  0
   -3.1090   36.8175  -19.0377 C   0  0  0  0  0  0  0  0  0  0  0  0
   -2.4049   35.6805  -19.1268 C   0  0  0  0  0  0  0  0  0  0  0  0
   -1.3708   35.5689  -20.0546 C   0  0  0  0  0  0  0  0  0  0  0  0
   -0.5585   34.4341  -20.2482 N   0  0  0  0  0  0  0  0  0  0  0  0
   -2.8852   34.8230  -18.2015 N   0  0  0  0  0  0  0  0  0  0  0  0
   -3.9038   35.4453  -17.5424 C   0  0  0  0  0  0  0  0  0  0  0  0
   -4.0320   36.6805  -18.0442 N   0  0  0  0  0  0  0  0  0  0  0  0
  -10.6387   27.1022  -15.5731 N   0  0  0  0  0  0  0  0  0  0  0  0
  -10.4775   27.3263  -14.2426 C   0  0  0  0  0  0  0  0  0  0  0  0
   -9.9508   28.5133  -13.8173 N   0  0  0  0  0  0  0  0  0  0  0  0
   -9.5949   29.4674  -14.7192 C   0  0  0  0  0  0  0  0  0  0  0  0
   -9.7562   29.2537  -16.0408 C   0  0  0  0  0  0  0  0  0  0  0  0
  -10.2898   28.0404  -16.4655 C   0  0  0  0  0  0  0  0  0  0  0  0
  -10.5298   27.5944  -17.8140 N   0  0  0  0  0  0  0  0  0  0  0  0
   -9.3187   30.3612  -16.6865 N   0  0  0  0  0  0  0  0  0  0  0  0
   -8.8924   31.2597  -15.7533 C   0  0  0  0  0  0  0  0  0  0  0  0
   -9.0702   30.6988  -14.5400 N   0  0  0  0  0  0  0  0  0  0  0  0
  1  3  1  1  0  0  0
  1  5  2  0  0  0  0
  1  9  1  0  0  0  0
  1 18  1  0  0  0  0
  2  4  1  6  0  0  0
  2  6  2  0  0  0  0
  2 10  1  0  0  0  0
  2 17  1  0  0  0  0
  7  9  1  0  0  0  0
  8 10  1  0  0  0  0
 11  7  1  1  0  0  0
 11 13  1  0  0  0  0
 11 15  1  0  0  0  0
 12  8  1  6  0  0  0
 12 14  1  0  0  0  0
 12 16  1  0  0  0  0
 13 23  1  0  0  0  0
 14 24  1  0  0  0  0
 15 17  1  6  0  0  0
 15 19  1  0  0  0  0
 16 18  1  1  0  0  0
 16 20  1  0  0  0  0
 19 21  1  1  0  0  0
 19 23  1  0  0  0  0
 20 22  1  1  0  0  0
 20 24  1  0  0  0  0
 23 34  1  6  0  0  0
 24 44  1  6  0  0  0
 25 26  2  0  0  0  0
 25 30  1  0  0  0  0
 26 27  1  0  0  0  0
 27 28  2  0  0  0  0
 28 29  1  0  0  0  0
 28 34  1  0  0  0  0
 29 30  2  0  0  0  0
 29 32  1  0  0  0  0
 30 31  1  0  0  0  0
 32 33  2  0  0  0  0
 33 34  1  0  0  0  0
 35 36  2  0  0  0  0
 35 40  1  0  0  0  0
 36 37  1  0  0  0  0
 37 38  2  0  0  0  0
 38 39  1  0  0  0  0
 38 44  1  0  0  0  0
 39 40  2  0  0  0  0
 39 42  1  0  0  0  0
 40 41  1  0  0  0  0
 42 43  2  0  0  0  0
 43 44  1  0  0  0  0
M  CHG  2   3  -1   4  -1
M  END
>  <CHROM.1>
-127.35511658,-126.36841645,-6.72678617,33.94419894,-15.85807642,0.17740703
0.88997355,0.81176118

>  <Name>
ligand

>  <RI>
0

>  <Rbt.Current_Directory>
/home/itssahil/PROJECTS/Mol_Feturizer/New_Systems/rnas/4QLM

>  <Rbt.Executable>
rbdock ($Id: //depot/dev/client3/rdock/2013.1/src/exe/rbdock.cxx#4 $)

>  <Rbt.Library>
libRbt.so (2013.1, Build901 2013/11/27)

>  <Rbt.Parameter_File>
/export/apps/rDock/src/rDock_2013.1_src/data/scripts/dock_solv.prm

>  <Rbt.Receptor>
prm/pocket_docking_3.prm

>  <SCORE>
-19.0087

>  <SCORE.INTER>
-19.4178

>  <SCORE.INTER.CONST>
1

>  <SCORE.INTER.POLAR>
0

>  <SCORE.INTER.ROT>
2

>  <SCORE.INTER.SOLV>
36.6771

>  <SCORE.INTER.VDW>
-30.1042

>  <SCORE.INTER.norm>
-0.441313

>  <SCORE.INTRA>
0.409077

>  <SCORE.INTRA.DIHEDRAL>
0.0430037

>  <SCORE.INTRA.DIHEDRAL.0>
2.32994

>  <SCORE.INTRA.POLAR>
0

>  <SCORE.INTRA.POLAR.0>
0

>  <SCORE.INTRA.REPUL>
0

>  <SCORE.INTRA.REPUL.0>
0

>  <SCORE.INTRA.SOLV>
-0.00286467

>  <SCORE.INTRA.SOLV.lig_0>
-117.703

>  <SCORE.INTRA.VDW>
0.389007

>  <SCORE.INTRA.VDW.0>
-1.59997

>  <SCORE.INTRA.norm>
0.00929719

>  <SCORE.RESTR>
0

>  <SCORE.RESTR.CAVITY>
0

>  <SCORE.RESTR.norm>
0

>  <SCORE.SYSTEM>
0

>  <SCORE.SYSTEM.CONST>
0

>  <SCORE.SYSTEM.DIHEDRAL>
0

>  <SCORE.SYSTEM.SOLV>
0

>  <SCORE.SYSTEM.norm>
0

>  <SCORE.heavy>
44

>  <SCORE.norm>
-0.432015

>  <RMSD>
0.708

$$$$
ligand
 OpenBabel11021811513D
libRbt.so/2013.1/901 2013/11/27
 44 50  0  0  0  0  0  0  0  0999 V2000
   -5.3212   35.0767  -12.6985 P   0  0  2  0  0  0  0  0  0  0  0  0
   -8.7247   36.1090  -16.7675 P   0  0  1  0  0  0  0  0  0  0  0  0
   -4.7323   36.1039  -11.7349 O   0  5  0  0  0  0  0  0  0  0  0  0
   -8.2197   35.2715  -17.9171 O   0  5  0  0  0  0  0  0  0  0  0  0
   -4.3404   33.9297  -12.7395 O   0  0  0  0  0  0  0  0  0  0  0  0
  -10.1355   36.6124  -17.1486 O   0  0  0  0  0  0  0  0  0  0  0  0
   -5.6973   37.2467  -13.9598 C   0  0  0  0  0  0  0  0  0  0  0  0
   -8.9119   35.8219  -14.2080 C   0  0  0  0  0  0  0  0  0  0  0  0
   -5.4684   35.8345  -14.0575 O   0  0  0  0  0  0  0  0  0  0  0  0
   -8.5725   35.1392  -15.4480 O   0  0  0  0  0  0  0  0  0  0  0  0
   -5.7734   37.8641  -15.3522 C   0  0  1  0  0  0  0  0  0  0  0  0
   -8.8510   34.7303  -13.0739 C   0  0  1  0  0  0  0  0  0  0  0  0
   -4.5648   38.1189  -15.7480 O   0  0  0  0  0  0  0  0  0  0  0  0
   -9.5667   33.7697  -13.4971 O   0  0  0  0  0  0  0  0  0  0  0  0
   -6.3807   36.9394  -16.3819 C   0  0  1  0  0  0  0  0  0  0  0  0
   -7.4486   34.0948  -12.9944 C   0  0  1  0  0  0  0  0  0  0  0  0
   -7.6744   37.3271  -16.5379 O   0  0  0  0  0  0  0  0  0  0  0  0
   -6.7394   34.6028  -11.9790 O   0  0  0  0  0  0  0  0  0  0  0  0
   -5.5595   37.2463  -17.6825 C   0  0  1  0  0  0  0  0  0  0  0  0
   -7.6534   32.5720  -12.8264 C   0  0  1  0  0  0  0  0  0  0  0  0
   -6.3445   38.1302  -18.5858 O   0  0  0  0  0  0  0  0  0  0  0  0
   -7.4338   32.1672  -11.4005 O   0  0  0  0  0  0  0  0  0  0  0  0
   -4.4650   37.8237  -17.3025 C   0  0  2  0  0  0  0  0  0  0  0  0
   -8.8837   32.3646  -13.1495 C   0  0  2  0  0  0  0  0  0  0  0  0
   -0.4747   35.9144  -20.3444 N   0  0  0  0  0  0  0  0  0  0  0  0
   -1.3464   36.8986  -20.7031 C   0  0  0  0  0  0  0  0  0  0  0  0
   -2.3347   37.3179  -19.8493 N   0  0  0  0  0  0  0  0  0  0  0  0
   -2.4419   36.7306  -18.6189 C   0  0  0  0  0  0  0  0  0  0  0  0
   -1.5965   35.7564  -18.2547 C   0  0  0  0  0  0  0  0  0  0  0  0
   -0.5891   35.3429  -19.1247 C   0  0  0  0  0  0  0  0  0  0  0  0
    0.3596   34.3343  -18.8644 N   0  0  0  0  0  0  0  0  0  0  0  0
   -1.9266   35.3681  -17.0047 N   0  0  0  0  0  0  0  0  0  0  0  0
   -2.9957   36.1132  -16.6032 C   0  0  0  0  0  0  0  0  0  0  0  0
   -3.3040   36.9653  -17.5896 N   0  0  0  0  0  0  0  0  0  0  0  0
  -10.6492   27.8863  -15.1366 N   0  0  0  0  0  0  0  0  0  0  0  0
  -10.7604   28.3058  -13.8489 C   0  0  0  0  0  0  0  0  0  0  0  0
  -10.2331   29.5126  -13.4844 N   0  0  0  0  0  0  0  0  0  0  0  0
   -9.6055   30.2924  -14.4056 C   0  0  0  0  0  0  0  0  0  0  0  0
   -9.4954   29.8847  -15.6861 C   0  0  0  0  0  0  0  0  0  0  0  0
  -10.0318   28.6524  -16.0479 C   0  0  0  0  0  0  0  0  0  0  0  0
  -10.0135   28.0159  -17.3400 N   0  0  0  0  0  0  0  0  0  0  0  0
   -8.8300   30.8511  -16.3631 N   0  0  0  0  0  0  0  0  0  0  0  0
   -8.5364   31.8584  -15.4918 C   0  0  0  0  0  0  0  0  0  0  0  0
   -9.0228   31.5047  -14.2850 N   0  0  0  0  0  0  0  0  0  0  0  0
  1  3  1  1  0  0  0
  1  5  2  0  0  0  0
  1  9  1  0  0  0  0
  1 18  1  0  0  0  0
  2  4  1  6  0  0  0
  2  6  2  0  0  0  0
  2 10  1  0  0  0  0
  2 17  1  0  0  0  0
  7  9  1  0  0  0  0
  8 10  1  0  0  0  0
 11  7  1  1  0  0  0
 11 13  1  0  0  0  0
 11 15  1  0  0  0  0
 12  8  1  6  0  0  0
 12 14  1  0  0  0  0
 12 16  1  0  0  0  0
 13 23  1  0  0  0  0
 14 24  1  0  0  0  0
 15 17  1  6  0  0  0
 15 19  1  0  0  0  0
 16 18  1  1  0  0  0
 16 20  1  0  0  0  0
 19 21  1  6  0  0  0
 19 23  1  0  0  0  0
 20 22  1  1  0  0  0
 20 24  1  0  0  0  0
 23 34  1  1  0  0  0
 24 44  1  6  0  0  0
 25 26  2  0  0  0  0
 25 30  1  0  0  0  0
 26 27  1  0  0  0  0
 27 28  2  0  0  0  0
 28 29  1  0  0  0  0
 28 34  1  0  0  0  0
 29 30  2  0  0  0  0
 29 32  1  0  0  0  0
 30 31  1  0  0  0  0
 32 33  2  0  0  0  0
 33 34  1  0  0  0  0
 35 36  2  0  0  0  0
 35 40  1  0  0  0  0
 36 37  1  0  0  0  0
 37 38  2  0  0  0  0
 38 39  1  0  0  0  0
 38 44  1  0  0  0  0
 39 40  2  0  0  0  0
 39 42  1  0  0  0  0
 40 41  1  0  0  0  0
 42 43  2  0  0  0  0
 43 44  1  0  0  0  0
M  CHG  2   3  -1   4  -1
M  END
>  <CHROM.1>
-152.20624583,-121.86346779,-6.46217716,34.51146689,-15.61855120,0.19955908
0.78523475,0.72313197

>  <Name>
ligand

>  <RI>
0

>  <Rbt.Current_Directory>
/home/itssahil/PROJECTS/Mol_Feturizer/New_Systems/rnas/4QLM

>  <Rbt.Executable>
rbdock ($Id: //depot/dev/client3/rdock/2013.1/src/exe/rbdock.cxx#4 $)

>  <Rbt.Library>
libRbt.so (2013.1, Build901 2013/11/27)

>  <Rbt.Parameter_File>
/export/apps/rDock/src/rDock_2013.1_src/data/scripts/dock_solv.prm

>  <Rbt.Receptor>
prm/pocket_docking_2.prm

>  <SCORE>
-18.397

>  <SCORE.INTER>
-19.2927

>  <SCORE.INTER.CONST>
1

>  <SCORE.INTER.POLAR>
0

>  <SCORE.INTER.ROT>
2

>  <SCORE.INTER.SOLV>
34.3208

>  <SCORE.INTER.VDW>
-29.2354

>  <SCORE.INTER.norm>
-0.438472

>  <SCORE.INTRA>
0.090648

>  <SCORE.INTRA.DIHEDRAL>
-0.0333917

>  <SCORE.INTRA.DIHEDRAL.0>
2.32994

>  <SCORE.INTRA.POLAR>
0

>  <SCORE.INTRA.POLAR.0>
0

>  <SCORE.INTRA.REPUL>
0

>  <SCORE.INTRA.REPUL.0>
0

>  <SCORE.INTRA.SOLV>
0.00189599

>  <SCORE.INTRA.SOLV.lig_0>
-117.703

>  <SCORE.INTRA.VDW>
0.106396

>  <SCORE.INTRA.VDW.0>
-1.59997

>  <SCORE.INTRA.norm>
0.00206018

>  <SCORE.RESTR>
0.805131

>  <SCORE.RESTR.CAVITY>
0.805131

>  <SCORE.RESTR.norm>
0.0182984

>  <SCORE.SYSTEM>
0

>  <SCORE.SYSTEM.CONST>
0

>  <SCORE.SYSTEM.DIHEDRAL>
0

>  <SCORE.SYSTEM.SOLV>
0

>  <SCORE.SYSTEM.norm>
0

>  <SCORE.heavy>
44

>  <SCORE.norm>
-0.418113

>  <RMSD>
0.722

$$$$
ligand
 OpenBabel11021811513D
libRbt.so/2013.1/901 2013/11/27
 44 50  0  0  0  0  0  0  0  0999 V2000
   -6.4275   34.2784  -12.6733 P   0  0  2  0  0  0  0  0  0  0  0  0
   -9.9342   35.5092  -16.5967 P   0  0  1  0  0  0  0  0  0  0  0  0
   -5.7998   35.2595  -11.6864 O   0  5  0  0  0  0  0  0  0  0  0  0
   -9.4716   34.7142  -17.7934 O   0  5  0  0  0  0  0  0  0  0  0  0
   -5.4609   33.1243  -12.7890 O   0  0  0  0  0  0  0  0  0  0  0  0
  -11.3496   36.0416  -16.9161 O   0  0  0  0  0  0  0  0  0  0  0  0
   -6.8154   36.5016  -13.8343 C   0  0  0  0  0  0  0  0  0  0  0  0
  -10.0513   35.1199  -14.0466 C   0  0  0  0  0  0  0  0  0  0  0  0
   -6.6050   35.0923  -13.9956 O   0  0  0  0  0  0  0  0  0  0  0  0
   -9.7551   34.4849  -15.3225 O   0  0  0  0  0  0  0  0  0  0  0  0
   -6.9244   37.1758  -15.1978 C   0  0  1  0  0  0  0  0  0  0  0  0
   -9.9701   33.9824  -12.9598 C   0  0  1  0  0  0  0  0  0  0  0  0
   -5.7249   37.4345  -15.6179 O   0  0  0  0  0  0  0  0  0  0  0  0
  -10.7082   33.0470  -13.4005 O   0  0  0  0  0  0  0  0  0  0  0  0
   -7.5711   36.2999  -16.2460 C   0  0  1  0  0  0  0  0  0  0  0  0
   -8.5731   33.3304  -12.9467 C   0  0  1  0  0  0  0  0  0  0  0  0
   -8.8643   36.7065  -16.3486 O   0  0  0  0  0  0  0  0  0  0  0  0
   -7.8297   33.7896  -11.9326 O   0  0  0  0  0  0  0  0  0  0  0  0
   -6.7840   36.6514  -17.5564 C   0  0  1  0  0  0  0  0  0  0  0  0
   -8.7899   31.8041  -12.8345 C   0  0  1  0  0  0  0  0  0  0  0  0
   -7.5847   37.5791  -18.4001 O   0  0  0  0  0  0  0  0  0  0  0  0
   -8.5341   31.3394  -11.4331 O   0  0  0  0  0  0  0  0  0  0  0  0
   -5.6728   37.2019  -17.1853 C   0  0  2  0  0  0  0  0  0  0  0  0
  -10.0311   31.6222  -13.1299 C   0  0  2  0  0  0  0  0  0  0  0  0
   -1.3413   35.8252  -20.0425 N   0  0  0  0  0  0  0  0  0  0  0  0
   -2.0836   36.9544  -20.2189 C   0  0  0  0  0  0  0  0  0  0  0  0
   -3.1763   37.2160  -19.4321 N   0  0  0  0  0  0  0  0  0  0  0  0
   -3.5217   36.3212  -18.4572 C   0  0  0  0  0  0  0  0  0  0  0  0
   -2.8056   35.2027  -18.2766 C   0  0  0  0  0  0  0  0  0  0  0  0
   -1.6910   34.9491  -19.0742 C   0  0  0  0  0  0  0  0  0  0  0  0
   -0.8577   33.8165  -18.9868 N   0  0  0  0  0  0  0  0  0  0  0  0
   -3.3624   34.5151  -17.2571 N   0  0  0  0  0  0  0  0  0  0  0  0
   -4.4402   35.2229  -16.8138 C   0  0  0  0  0  0  0  0  0  0  0  0
   -4.5300   36.3445  -17.5404 N   0  0  0  0  0  0  0  0  0  0  0  0
  -10.6990   26.8803  -15.1763 N   0  0  0  0  0  0  0  0  0  0  0  0
  -10.5456   27.1854  -13.8612 C   0  0  0  0  0  0  0  0  0  0  0  0
  -10.3721   28.4880  -13.4864 N   0  0  0  0  0  0  0  0  0  0  0  0
  -10.3585   29.4744  -14.4231 C   0  0  0  0  0  0  0  0  0  0  0  0
  -10.5147   29.1795  -15.7295 C   0  0  0  0  0  0  0  0  0  0  0  0
  -10.6869   27.8497  -16.1028 C   0  0  0  0  0  0  0  0  0  0  0  0
  -10.8511   27.3090  -17.4278 N   0  0  0  0  0  0  0  0  0  0  0  0
  -10.4558   30.3449  -16.4176 N   0  0  0  0  0  0  0  0  0  0  0  0
  -10.2679   31.3590  -15.5254 C   0  0  0  0  0  0  0  0  0  0  0  0
  -10.2121   30.8108  -14.2948 N   0  0  0  0  0  0  0  0  0  0  0  0
  1  3  1  1  0  0  0
  1  5  2  0  0  0  0
  1  9  1  0  0  0  0
  1 18  1  0  0  0  0
  2  4  1  6  0  0  0
  2  6  2  0  0  0  0
  2 10  1  0  0  0  0
  2 17  1  0  0  0  0
  7  9  1  0  0  0  0
  8 10  1  0  0  0  0
 11  7  1  1  0  0  0
 11 13  1  0  0  0  0
 11 15  1  0  0  0  0
 12  8  1  6  0  0  0
 12 14  1  0  0  0  0
 12 16  1  0  0  0  0
 13 23  1  0  0  0  0
 14 24  1  0  0  0  0
 15 17  1  6  0  0  0
 15 19  1  0  0  0  0
 16 18  1  1  0  0  0
 16 20  1  0  0  0  0
 19 21  1  6  0  0  0
 19 23  1  0  0  0  0
 20 22  1  1  0  0  0
 20 24  1  0  0  0  0
 23 34  1  1  0  0  0
 24 44  1  6  0  0  0
 25 26  2  0  0  0  0
 25 30  1  0  0  0  0
 26 27  1  0  0  0  0
 27 28  2  0  0  0  0
 28 29  1  0  0  0  0
 28 34  1  0  0  0  0
 29 30  2  0  0  0  0
 29 32  1  0  0  0  0
 30 31  1  0  0  0  0
 32 33  2  0  0  0  0
 33 34  1  0  0  0  0
 35 36  2  0  0  0  0
 35 40  1  0  0  0  0
 36 37  1  0  0  0  0
 37 38  2  0  0  0  0
 38 39  1  0  0  0  0
 38 44  1  0  0  0  0
 39 40  2  0  0  0  0
 39 42  1  0  0  0  0
 40 41  1  0  0  0  0
 42 43  2  0  0  0  0
 43 44  1  0  0  0  0
M  CHG  2   3  -1   4  -1
M  END
>  <CHROM.1>
-133.73030709,-148.60513688,-7.53466749,33.84643893,-15.55008698,2.67631311
-0.73590554,-2.75083955

>  <Name>
ligand

>  <RI>
0

>  <Rbt.Current_Directory>
/home/itssahil/PROJECTS/Mol_Feturizer/New_Systems/rnas/4QLM

>  <Rbt.Executable>
rbdock ($Id: //depot/dev/client3/rdock/2013.1/src/exe/rbdock.cxx#4 $)

>  <Rbt.Library>
libRbt.so (2013.1, Build901 2013/11/27)

>  <Rbt.Parameter_File>
/export/apps/rDock/src/rDock_2013.1_src/data/scripts/dock_solv.prm

>  <Rbt.Receptor>
prm/pocket_docking_2.prm

>  <SCORE>
-18.58

>  <SCORE.INTER>
-18.8219

>  <SCORE.INTER.CONST>
1

>  <SCORE.INTER.POLAR>
0

>  <SCORE.INTER.ROT>
2

>  <SCORE.INTER.SOLV>
36.3132

>  <SCORE.INTER.VDW>
-29.5857

>  <SCORE.INTER.norm>
-0.427771

>  <SCORE.INTRA>
0.10527

>  <SCORE.INTRA.DIHEDRAL>
0.019115

>  <SCORE.INTRA.DIHEDRAL.0>
2.32994

>  <SCORE.INTRA.POLAR>
0

>  <SCORE.INTRA.POLAR.0>
0

>  <SCORE.INTRA.REPUL>
0

>  <SCORE.INTRA.REPUL.0>
0

>  <SCORE.INTRA.SOLV>
0.000499966

>  <SCORE.INTRA.SOLV.lig_0>
-117.703

>  <SCORE.INTRA.VDW>
0.0954621

>  <SCORE.INTRA.VDW.0>
-1.59997

>  <SCORE.INTRA.norm>
0.00239249

>  <SCORE.RESTR>
0.136662

>  <SCORE.RESTR.CAVITY>
0.136662

>  <SCORE.RESTR.norm>
0.00310595

>  <SCORE.SYSTEM>
0

>  <SCORE.SYSTEM.CONST>
0

>  <SCORE.SYSTEM.DIHEDRAL>
0

>  <SCORE.SYSTEM.SOLV>
0

>  <SCORE.SYSTEM.norm>
0

>  <SCORE.heavy>
44

>  <SCORE.norm>
-0.422272

>  <RMSD>
0.722

$$$$
ligand
 OpenBabel11021811513D
libRbt.so/2013.1/901 2013/11/27
 44 50  0  0  0  0  0  0  0  0999 V2000
   -6.4411   34.2572  -12.6609 P   0  0  2  0  0  0  0  0  0  0  0  0
   -9.9204   35.5236  -16.5974 P   0  0  1  0  0  0  0  0  0  0  0  0
   -5.8054   35.2323  -11.6732 O   0  5  0  0  0  0  0  0  0  0  0  0
   -9.4631   34.7218  -17.7916 O   0  5  0  0  0  0  0  0  0  0  0  0
   -5.4876   33.0918  -12.7720 O   0  0  0  0  0  0  0  0  0  0  0  0
  -11.3286   36.0720  -16.9221 O   0  0  0  0  0  0  0  0  0  0  0  0
   -6.7994   36.4833  -13.8260 C   0  0  0  0  0  0  0  0  0  0  0  0
  -10.0504   35.1389  -14.0472 C   0  0  0  0  0  0  0  0  0  0  0  0
   -6.6049   35.0714  -13.9849 O   0  0  0  0  0  0  0  0  0  0  0  0
   -9.7574   34.4990  -15.3213 O   0  0  0  0  0  0  0  0  0  0  0  0
   -6.8961   37.1570  -15.1907 C   0  0  1  0  0  0  0  0  0  0  0  0
   -9.9860   34.0020  -12.9587 C   0  0  1  0  0  0  0  0  0  0  0  0
   -5.6923   37.4012  -15.6071 O   0  0  0  0  0  0  0  0  0  0  0  0
  -10.7335   33.0747  -13.4008 O   0  0  0  0  0  0  0  0  0  0  0  0
   -7.5495   36.2872  -16.2399 C   0  0  1  0  0  0  0  0  0  0  0  0
   -8.5967   33.3338  -12.9402 C   0  0  1  0  0  0  0  0  0  0  0  0
   -8.8376   36.7087  -16.3473 O   0  0  0  0  0  0  0  0  0  0  0  0
   -7.8513   33.7857  -11.9243 O   0  0  0  0  0  0  0  0  0  0  0  0
   -6.7541   36.6279  -17.5482 C   0  0  1  0  0  0  0  0  0  0  0  0
   -8.8316   31.8103  -12.8269 C   0  0  1  0  0  0  0  0  0  0  0  0
   -7.5412   37.5638  -18.3956 O   0  0  0  0  0  0  0  0  0  0  0  0
   -8.5858   31.3445  -11.4241 O   0  0  0  0  0  0  0  0  0  0  0  0
   -5.6378   37.1660  -17.1741 C   0  0  2  0  0  0  0  0  0  0  0  0
  -10.0739   31.6425  -13.1262 C   0  0  2  0  0  0  0  0  0  0  0  0
   -1.3903   35.6673  -20.0954 N   0  0  0  0  0  0  0  0  0  0  0  0
   -2.1407   36.7863  -20.3001 C   0  0  0  0  0  0  0  0  0  0  0  0
   -3.2100   37.0818  -19.4933 N   0  0  0  0  0  0  0  0  0  0  0  0
   -3.5235   36.2315  -18.4691 C   0  0  0  0  0  0  0  0  0  0  0  0
   -2.7992   35.1234  -18.2598 C   0  0  0  0  0  0  0  0  0  0  0  0
   -1.7085   34.8355  -19.0784 C   0  0  0  0  0  0  0  0  0  0  0  0
   -0.8698   33.7091  -18.9650 N   0  0  0  0  0  0  0  0  0  0  0  0
   -3.3233   34.4818  -17.1940 N   0  0  0  0  0  0  0  0  0  0  0  0
   -4.3893   35.2075  -16.7508 C   0  0  0  0  0  0  0  0  0  0  0  0
   -4.5039   36.2950  -17.5243 N   0  0  0  0  0  0  0  0  0  0  0  0
  -10.6625   26.8935  -15.1806 N   0  0  0  0  0  0  0  0  0  0  0  0
  -10.4864   27.1967  -13.8678 C   0  0  0  0  0  0  0  0  0  0  0  0
  -10.3390   28.5018  -13.4906 N   0  0  0  0  0  0  0  0  0  0  0  0
  -10.3740   29.4924  -14.4223 C   0  0  0  0  0  0  0  0  0  0  0  0
  -10.5529   29.1993  -15.7262 C   0  0  0  0  0  0  0  0  0  0  0  0
  -10.6982   27.8671  -16.1021 C   0  0  0  0  0  0  0  0  0  0  0  0
  -10.8790   27.3281  -17.4257 N   0  0  0  0  0  0  0  0  0  0  0  0
  -10.5414   30.3689  -16.4095 N   0  0  0  0  0  0  0  0  0  0  0  0
  -10.3599   31.3837  -15.5167 C   0  0  0  0  0  0  0  0  0  0  0  0
  -10.2605   30.8317  -14.2906 N   0  0  0  0  0  0  0  0  0  0  0  0
  1  3  1  1  0  0  0
  1  5  2  0  0  0  0
  1  9  1  0  0  0  0
  1 18  1  0  0  0  0
  2  4  1  6  0  0  0
  2  6  2  0  0  0  0
  2 10  1  0  0  0  0
  2 17  1  0  0  0  0
  7  9  1  0  0  0  0
  8 10  1  0  0  0  0
 11  7  1  1  0  0  0
 11 13  1  0  0  0  0
 11 15  1  0  0  0  0
 12  8  1  6  0  0  0
 12 14  1  0  0  0  0
 12 16  1  0  0  0  0
 13 23  1  0  0  0  0
 14 24  1  0  0  0  0
 15 17  1  6  0  0  0
 15 19  1  0  0  0  0
 16 18  1  1  0  0  0
 16 20  1  0  0  0  0
 19 21  1  6  0  0  0
 19 23  1  0  0  0  0
 20 22  1  1  0  0  0
 20 24  1  0  0  0  0
 23 34  1  1  0  0  0
 24 44  1  6  0  0  0
 25 26  2  0  0  0  0
 25 30  1  0  0  0  0
 26 27  1  0  0  0  0
 27 28  2  0  0  0  0
 28 29  1  0  0  0  0
 28 34  1  0  0  0  0
 29 30  2  0  0  0  0
 29 32  1  0  0  0  0
 30 31  1  0  0  0  0
 32 33  2  0  0  0  0
 33 34  1  0  0  0  0
 35 36  2  0  0  0  0
 35 40  1  0  0  0  0
 36 37  1  0  0  0  0
 37 38  2  0  0  0  0
 38 39  1  0  0  0  0
 38 44  1  0  0  0  0
 39 40  2  0  0  0  0
 39 42  1  0  0  0  0
 40 41  1  0  0  0  0
 42 43  2  0  0  0  0
 43 44  1  0  0  0  0
M  CHG  2   3  -1   4  -1
M  END
>  <CHROM.1>
-136.98809658,-151.31254092,-7.53931377,33.82871292,-15.54689778,2.68480236
-0.73309118,-2.75192177

>  <Name>
ligand

>  <RI>
0

>  <Rbt.Current_Directory>
/home/itssahil/PROJECTS/Mol_Feturizer/New_Systems/rnas/4QLM

>  <Rbt.Executable>
rbdock ($Id: //depot/dev/client3/rdock/2013.1/src/exe/rbdock.cxx#4 $)

>  <Rbt.Library>
libRbt.so (2013.1, Build901 2013/11/27)

>  <Rbt.Parameter_File>
/export/apps/rDock/src/rDock_2013.1_src/data/scripts/dock_solv.prm

>  <Rbt.Receptor>
prm/pocket_docking_5.prm

>  <SCORE>
-18.7809

>  <SCORE.INTER>
-18.8448

>  <SCORE.INTER.CONST>
1

>  <SCORE.INTER.POLAR>
0

>  <SCORE.INTER.ROT>
2

>  <SCORE.INTER.SOLV>
37.0928

>  <SCORE.INTER.VDW>
-29.8608

>  <SCORE.INTER.norm>
-0.428291

>  <SCORE.INTRA>
0.0639426

>  <SCORE.INTRA.DIHEDRAL>
0.00566374

>  <SCORE.INTRA.DIHEDRAL.0>
2.32994

>  <SCORE.INTRA.POLAR>
0

>  <SCORE.INTRA.POLAR.0>
0

>  <SCORE.INTRA.REPUL>
0

>  <SCORE.INTRA.REPUL.0>
0

>  <SCORE.INTRA.SOLV>
0.00170275

>  <SCORE.INTRA.SOLV.lig_0>
-117.703

>  <SCORE.INTRA.VDW>
0.0602593

>  <SCORE.INTRA.VDW.0>
-1.59997

>  <SCORE.INTRA.norm>
0.00145324

>  <SCORE.RESTR>
0

>  <SCORE.RESTR.CAVITY>
0

>  <SCORE.RESTR.norm>
0

>  <SCORE.SYSTEM>
0

>  <SCORE.SYSTEM.CONST>
0

>  <SCORE.SYSTEM.DIHEDRAL>
0

>  <SCORE.SYSTEM.SOLV>
0

>  <SCORE.SYSTEM.norm>
0

>  <SCORE.heavy>
44

>  <SCORE.norm>
-0.426838

>  <RMSD>
0.725

$$$$
ligand
 OpenBabel11021811513D
libRbt.so/2013.1/901 2013/11/27
 44 50  0  0  0  0  0  0  0  0999 V2000
   -5.1737   34.0617  -13.1809 P   0  0  2  0  0  0  0  0  0  0  0  0
   -9.2670   35.5499  -16.3803 P   0  0  1  0  0  0  0  0  0  0  0  0
   -4.4196   34.9625  -12.2061 O   0  5  0  0  0  0  0  0  0  0  0  0
   -8.9801   34.8920  -17.7080 O   0  5  0  0  0  0  0  0  0  0  0  0
   -4.2152   32.9581  -13.5590 O   0  0  0  0  0  0  0  0  0  0  0  0
  -10.7245   36.0624  -16.4250 O   0  0  0  0  0  0  0  0  0  0  0  0
   -5.7779   36.3732  -14.0371 C   0  0  0  0  0  0  0  0  0  0  0  0
   -8.9813   34.9094  -13.8950 C   0  0  0  0  0  0  0  0  0  0  0  0
   -5.5687   34.9945  -14.3711 O   0  0  0  0  0  0  0  0  0  0  0  0
   -8.8740   34.4127  -15.2590 O   0  0  0  0  0  0  0  0  0  0  0  0
   -6.1089   37.1735  -15.2923 C   0  0  1  0  0  0  0  0  0  0  0  0
   -8.7119   33.6746  -12.9547 C   0  0  1  0  0  0  0  0  0  0  0  0
   -4.9937   37.5128  -15.8611 O   0  0  0  0  0  0  0  0  0  0  0  0
   -9.4917   32.7621  -13.3712 O   0  0  0  0  0  0  0  0  0  0  0  0
   -6.8933   36.3826  -16.3139 C   0  0  1  0  0  0  0  0  0  0  0  0
   -7.3177   33.0724  -13.2204 C   0  0  1  0  0  0  0  0  0  0  0  0
   -8.1942   36.7530  -16.1769 O   0  0  0  0  0  0  0  0  0  0  0  0
   -6.4352   33.4553  -12.2896 O   0  0  0  0  0  0  0  0  0  0  0  0
   -6.3249   36.8872  -17.6859 C   0  0  1  0  0  0  0  0  0  0  0  0
   -7.4860   31.5359  -13.2327 C   0  0  1  0  0  0  0  0  0  0  0  0
   -7.2635   37.8651  -18.2992 O   0  0  0  0  0  0  0  0  0  0  0  0
   -7.0081   30.9455  -11.9411 O   0  0  0  0  0  0  0  0  0  0  0  0
   -5.1801   37.4365  -17.4337 C   0  0  2  0  0  0  0  0  0  0  0  0
   -8.7544   31.3416  -13.3531 C   0  0  2  0  0  0  0  0  0  0  0  0
   -1.1160   36.6230  -20.8458 N   0  0  0  0  0  0  0  0  0  0  0  0
   -1.8405   37.7717  -20.7322 C   0  0  0  0  0  0  0  0  0  0  0  0
   -2.8629   37.8796  -19.8242 N   0  0  0  0  0  0  0  0  0  0  0  0
   -3.1556   36.8098  -19.0242 C   0  0  0  0  0  0  0  0  0  0  0  0
   -2.4567   35.6710  -19.1293 C   0  0  0  0  0  0  0  0  0  0  0  0
   -1.4132   35.5729  -20.0481 C   0  0  0  0  0  0  0  0  0  0  0  0
   -0.6048   34.4379  -20.2565 N   0  0  0  0  0  0  0  0  0  0  0  0
   -2.9515   34.7972  -18.2272 N   0  0  0  0  0  0  0  0  0  0  0  0
   -3.9739   35.4113  -17.5663 C   0  0  0  0  0  0  0  0  0  0  0  0
   -4.0901   36.6574  -18.0437 N   0  0  0  0  0  0  0  0  0  0  0  0
  -10.7136   27.0689  -15.5950 N   0  0  0  0  0  0  0  0  0  0  0  0
  -10.5626   27.2935  -14.2634 C   0  0  0  0  0  0  0  0  0  0  0  0
  -10.0212   28.4728  -13.8351 N   0  0  0  0  0  0  0  0  0  0  0  0
   -9.6407   29.4190  -14.7354 C   0  0  0  0  0  0  0  0  0  0  0  0
   -9.7918   29.2049  -16.0581 C   0  0  0  0  0  0  0  0  0  0  0  0
  -10.3404   27.9993  -16.4857 C   0  0  0  0  0  0  0  0  0  0  0  0
  -10.5738   27.5542  -17.8357 N   0  0  0  0  0  0  0  0  0  0  0  0
   -9.3298   30.3037  -16.7016 N   0  0  0  0  0  0  0  0  0  0  0  0
   -8.8988   31.1974  -15.7660 C   0  0  0  0  0  0  0  0  0  0  0  0
   -9.0980   30.6422  -14.5534 N   0  0  0  0  0  0  0  0  0  0  0  0
  1  3  1  1  0  0  0
  1  5  2  0  0  0  0
  1  9  1  0  0  0  0
  1 18  1  0  0  0  0
  2  4  1  6  0  0  0
  2  6  2  0  0  0  0
  2 10  1  0  0  0  0
  2 17  1  0  0  0  0
  7  9  1  0  0  0  0
  8 10  1  0  0  0  0
 11  7  1  1  0  0  0
 11 13  1  0  0  0  0
 11 15  1  0  0  0  0
 12  8  1  6  0  0  0
 12 14  1  0  0  0  0
 12 16  1  0  0  0  0
 13 23  1  0  0  0  0
 14 24  1  0  0  0  0
 15 17  1  6  0  0  0
 15 19  1  0  0  0  0
 16 18  1  1  0  0  0
 16 20  1  0  0  0  0
 19 21  1  1  0  0  0
 19 23  1  0  0  0  0
 20 22  1  1  0  0  0
 20 24  1  0  0  0  0
 23 34  1  6  0  0  0
 24 44  1  6  0  0  0
 25 26  2  0  0  0  0
 25 30  1  0  0  0  0
 26 27  1  0  0  0  0
 27 28  2  0  0  0  0
 28 29  1  0  0  0  0
 28 34  1  0  0  0  0
 29 30  2  0  0  0  0
 29 32  1  0  0  0  0
 30 31  1  0  0  0  0
 32 33  2  0  0  0  0
 33 34  1  0  0  0  0
 35 36  2  0  0  0  0
 35 40  1  0  0  0  0
 36 37  1  0  0  0  0
 37 38  2  0  0  0  0
 38 39  1  0  0  0  0
 38 44  1  0  0  0  0
 39 40  2  0  0  0  0
 39 42  1  0  0  0  0
 40 41  1  0  0  0  0
 42 43  2  0  0  0  0
 43 44  1  0  0  0  0
M  CHG  2   3  -1   4  -1
M  END
>  <CHROM.1>
-126.02495157,-124.98313338,-6.77243753,33.90547847,-15.86085130,0.16963103
0.89166164,0.82747639

>  <Name>
ligand

>  <RI>
0

>  <Rbt.Current_Directory>
/home/itssahil/PROJECTS/Mol_Feturizer/New_Systems/rnas/4QLM

>  <Rbt.Executable>
rbdock ($Id: //depot/dev/client3/rdock/2013.1/src/exe/rbdock.cxx#4 $)

>  <Rbt.Library>
libRbt.so (2013.1, Build901 2013/11/27)

>  <Rbt.Parameter_File>
/export/apps/rDock/src/rDock_2013.1_src/data/scripts/dock_solv.prm

>  <Rbt.Receptor>
prm/pocket_docking_3.prm

>  <SCORE>
-19.0049

>  <SCORE.INTER>
-19.4897

>  <SCORE.INTER.CONST>
1

>  <SCORE.INTER.POLAR>
0

>  <SCORE.INTER.ROT>
2

>  <SCORE.INTER.SOLV>
36.8854

>  <SCORE.INTER.VDW>
-30.2216

>  <SCORE.INTER.norm>
-0.442947

>  <SCORE.INTRA>
0.48477

>  <SCORE.INTRA.DIHEDRAL>
0.0492889

>  <SCORE.INTRA.DIHEDRAL.0>
2.32994

>  <SCORE.INTRA.POLAR>
0

>  <SCORE.INTRA.POLAR.0>
0

>  <SCORE.INTRA.REPUL>
0

>  <SCORE.INTRA.REPUL.0>
0

>  <SCORE.INTRA.SOLV>
-0.00305728

>  <SCORE.INTRA.SOLV.lig_0>
-117.703

>  <SCORE.INTRA.VDW>
0.461654

>  <SCORE.INTRA.VDW.0>
-1.59997

>  <SCORE.INTRA.norm>
0.0110175

>  <SCORE.RESTR>
0

>  <SCORE.RESTR.CAVITY>
0

>  <SCORE.RESTR.norm>
0

>  <SCORE.SYSTEM>
0

>  <SCORE.SYSTEM.CONST>
0

>  <SCORE.SYSTEM.DIHEDRAL>
0

>  <SCORE.SYSTEM.SOLV>
0

>  <SCORE.SYSTEM.norm>
0

>  <SCORE.heavy>
44

>  <SCORE.norm>
-0.431929

>  <RMSD>
0.726

$$$$
ligand
 OpenBabel11021811513D
libRbt.so/2013.1/901 2013/11/27
 44 50  0  0  0  0  0  0  0  0999 V2000
   -6.5419   34.3196  -12.6460 P   0  0  2  0  0  0  0  0  0  0  0  0
  -10.0213   35.5375  -16.5977 P   0  0  1  0  0  0  0  0  0  0  0  0
   -5.9126   35.3056  -11.6650 O   0  5  0  0  0  0  0  0  0  0  0  0
   -9.5582   34.7287  -17.7848 O   0  5  0  0  0  0  0  0  0  0  0  0
   -5.5824   33.1582  -12.7465 O   0  0  0  0  0  0  0  0  0  0  0  0
  -11.4317   36.0762  -16.9288 O   0  0  0  0  0  0  0  0  0  0  0  0
   -6.9096   36.5346  -13.8291 C   0  0  0  0  0  0  0  0  0  0  0  0
  -10.1534   35.1722  -14.0447 C   0  0  0  0  0  0  0  0  0  0  0  0
   -6.7077   35.1226  -13.9765 O   0  0  0  0  0  0  0  0  0  0  0  0
   -9.8552   34.5237  -15.3133 O   0  0  0  0  0  0  0  0  0  0  0  0
   -7.0075   37.1971  -15.1991 C   0  0  1  0  0  0  0  0  0  0  0  0
  -10.0850   34.0442  -12.9472 C   0  0  1  0  0  0  0  0  0  0  0  0
   -5.8043   37.4441  -15.6157 O   0  0  0  0  0  0  0  0  0  0  0  0
  -10.8271   33.1097  -13.3831 O   0  0  0  0  0  0  0  0  0  0  0  0
   -7.6549   36.3159  -16.2426 C   0  0  1  0  0  0  0  0  0  0  0  0
   -8.6924   33.3832  -12.9213 C   0  0  1  0  0  0  0  0  0  0  0  0
   -8.9449   36.7299  -16.3552 O   0  0  0  0  0  0  0  0  0  0  0  0
   -7.9509   33.8467  -11.9079 O   0  0  0  0  0  0  0  0  0  0  0  0
   -6.8592   36.6503  -17.5522 C   0  0  1  0  0  0  0  0  0  0  0  0
   -8.9197   31.8594  -12.7964 C   0  0  1  0  0  0  0  0  0  0  0  0
   -7.6496   37.5755  -18.4082 O   0  0  0  0  0  0  0  0  0  0  0  0
   -8.6738   31.4059  -11.3896 O   0  0  0  0  0  0  0  0  0  0  0  0
   -5.7461   37.1969  -17.1806 C   0  0  2  0  0  0  0  0  0  0  0  0
  -10.1607   31.6830  -13.0962 C   0  0  2  0  0  0  0  0  0  0  0  0
   -1.3823   35.7902  -19.9734 N   0  0  0  0  0  0  0  0  0  0  0  0
   -2.1086   36.9290  -20.1542 C   0  0  0  0  0  0  0  0  0  0  0  0
   -3.2116   37.1978  -19.3843 N   0  0  0  0  0  0  0  0  0  0  0  0
   -3.5838   36.3003  -18.4220 C   0  0  0  0  0  0  0  0  0  0  0  0
   -2.8837   35.1724  -18.2371 C   0  0  0  0  0  0  0  0  0  0  0  0
   -1.7586   34.9115  -19.0174 C   0  0  0  0  0  0  0  0  0  0  0  0
   -0.9398   33.7688  -18.9239 N   0  0  0  0  0  0  0  0  0  0  0  0
   -3.4657   34.4842  -17.2322 N   0  0  0  0  0  0  0  0  0  0  0  0
   -4.5428   35.2013  -16.8023 C   0  0  0  0  0  0  0  0  0  0  0  0
   -4.6073   36.3289  -17.5223 N   0  0  0  0  0  0  0  0  0  0  0  0
  -10.6079   26.9087  -15.1275 N   0  0  0  0  0  0  0  0  0  0  0  0
  -10.4144   27.2224  -13.8196 C   0  0  0  0  0  0  0  0  0  0  0  0
  -10.3101   28.5333  -13.4484 N   0  0  0  0  0  0  0  0  0  0  0  0
  -10.4050   29.5191  -14.3810 C   0  0  0  0  0  0  0  0  0  0  0  0
  -10.6016   29.2155  -15.6799 C   0  0  0  0  0  0  0  0  0  0  0  0
  -10.7027   27.8775  -16.0498 C   0  0  0  0  0  0  0  0  0  0  0  0
  -10.8919   27.3280  -17.3679 N   0  0  0  0  0  0  0  0  0  0  0  0
  -10.6516   30.3827  -16.3657 N   0  0  0  0  0  0  0  0  0  0  0  0
  -10.4900   31.4064  -15.4792 C   0  0  0  0  0  0  0  0  0  0  0  0
  -10.3414   30.8622  -14.2545 N   0  0  0  0  0  0  0  0  0  0  0  0
  1  3  1  1  0  0  0
  1  5  2  0  0  0  0
  1  9  1  0  0  0  0
  1 18  1  0  0  0  0
  2  4  1  6  0  0  0
  2  6  2  0  0  0  0
  2 10  1  0  0  0  0
  2 17  1  0  0  0  0
  7  9  1  0  0  0  0
  8 10  1  0  0  0  0
 11  7  1  1  0  0  0
 11 13  1  0  0  0  0
 11 15  1  0  0  0  0
 12  8  1  6  0  0  0
 12 14  1  0  0  0  0
 12 16  1  0  0  0  0
 13 23  1  0  0  0  0
 14 24  1  0  0  0  0
 15 17  1  6  0  0  0
 15 19  1  0  0  0  0
 16 18  1  1  0  0  0
 16 20  1  0  0  0  0
 19 21  1  6  0  0  0
 19 23  1  0  0  0  0
 20 22  1  1  0  0  0
 20 24  1  0  0  0  0
 23 34  1  1  0  0  0
 24 44  1  6  0  0  0
 25 26  2  0  0  0  0
 25 30  1  0  0  0  0
 26 27  1  0  0  0  0
 27 28  2  0  0  0  0
 28 29  1  0  0  0  0
 28 34  1  0  0  0  0
 29 30  2  0  0  0  0
 29 32  1  0  0  0  0
 30 31  1  0  0  0  0
 32 33  2  0  0  0  0
 33 34  1  0  0  0  0
 35 36  2  0  0  0  0
 35 40  1  0  0  0  0
 36 37  1  0  0  0  0
 37 38  2  0  0  0  0
 38 39  1  0  0  0  0
 38 44  1  0  0  0  0
 39 40  2  0  0  0  0
 39 42  1  0  0  0  0
 40 41  1  0  0  0  0
 42 43  2  0  0  0  0
 43 44  1  0  0  0  0
M  CHG  2   3  -1   4  -1
M  END
>  <CHROM.1>
-132.53720318,-153.73633605,-7.61749886,33.86894541,-15.52405083,2.64468051
-0.71348083,-2.80874903

>  <Name>
ligand

>  <RI>
0

>  <Rbt.Current_Directory>
/home/itssahil/PROJECTS/Mol_Feturizer/New_Systems/rnas/4QLM

>  <Rbt.Executable>
rbdock ($Id: //depot/dev/client3/rdock/2013.1/src/exe/rbdock.cxx#4 $)

>  <Rbt.Library>
libRbt.so (2013.1, Build901 2013/11/27)

>  <Rbt.Parameter_File>
/export/apps/rDock/src/rDock_2013.1_src/data/scripts/dock_solv.prm

>  <Rbt.Receptor>
prm/pocket_docking_4.prm

>  <SCORE>
-18.9649

>  <SCORE.INTER>
-19.1589

>  <SCORE.INTER.CONST>
1

>  <SCORE.INTER.POLAR>
0

>  <SCORE.INTER.ROT>
2

>  <SCORE.INTER.SOLV>
36.7282

>  <SCORE.INTER.VDW>
-29.9486

>  <SCORE.INTER.norm>
-0.435429

>  <SCORE.INTRA>
0.19397

>  <SCORE.INTRA.DIHEDRAL>
0.0243038

>  <SCORE.INTRA.DIHEDRAL.0>
2.32994

>  <SCORE.INTRA.POLAR>
0

>  <SCORE.INTRA.POLAR.0>
0

>  <SCORE.INTRA.REPUL>
0

>  <SCORE.INTRA.REPUL.0>
0

>  <SCORE.INTRA.SOLV>
0.00430856

>  <SCORE.INTRA.SOLV.lig_0>
-117.703

>  <SCORE.INTRA.VDW>
0.179664

>  <SCORE.INTRA.VDW.0>
-1.59997

>  <SCORE.INTRA.norm>
0.00440841

>  <SCORE.RESTR>
0

>  <SCORE.RESTR.CAVITY>
0

>  <SCORE.RESTR.norm>
0

>  <SCORE.SYSTEM>
0

>  <SCORE.SYSTEM.CONST>
0

>  <SCORE.SYSTEM.DIHEDRAL>
0

>  <SCORE.SYSTEM.SOLV>
0

>  <SCORE.SYSTEM.norm>
0

>  <SCORE.heavy>
44

>  <SCORE.norm>
-0.43102

>  <RMSD>
0.801

$$$$
ligand
 OpenBabel11021811513D
libRbt.so/2013.1/901 2013/11/27
 44 50  0  0  0  0  0  0  0  0999 V2000
   -5.2025   35.1643  -12.6700 P   0  0  2  0  0  0  0  0  0  0  0  0
   -8.5944   36.2215  -16.7422 P   0  0  1  0  0  0  0  0  0  0  0  0
   -4.5839   36.1905  -11.7241 O   0  5  0  0  0  0  0  0  0  0  0  0
   -8.1152   35.3543  -17.8808 O   0  5  0  0  0  0  0  0  0  0  0  0
   -4.2512   33.9922  -12.6970 O   0  0  0  0  0  0  0  0  0  0  0  0
   -9.9934   36.7548  -17.1260 O   0  0  0  0  0  0  0  0  0  0  0  0
   -5.5283   37.3240  -13.9626 C   0  0  0  0  0  0  0  0  0  0  0  0
   -8.7789   35.9777  -14.1781 C   0  0  0  0  0  0  0  0  0  0  0  0
   -5.3357   35.9051  -14.0397 O   0  0  0  0  0  0  0  0  0  0  0  0
   -8.4617   35.2680  -15.4087 O   0  0  0  0  0  0  0  0  0  0  0  0
   -5.5941   37.9221  -15.3639 C   0  0  1  0  0  0  0  0  0  0  0  0
   -8.7413   34.9020  -13.0278 C   0  0  1  0  0  0  0  0  0  0  0  0
   -4.3810   38.1401  -15.7677 O   0  0  0  0  0  0  0  0  0  0  0  0
   -9.4828   33.9537  -13.4339 O   0  0  0  0  0  0  0  0  0  0  0  0
   -6.2286   36.9977  -16.3774 C   0  0  1  0  0  0  0  0  0  0  0  0
   -7.3551   34.2324  -12.9435 C   0  0  1  0  0  0  0  0  0  0  0  0
   -7.5127   37.4158  -16.5347 O   0  0  0  0  0  0  0  0  0  0  0  0
   -6.6294   34.7374  -11.9384 O   0  0  0  0  0  0  0  0  0  0  0  0
   -5.4049   37.2641  -17.6853 C   0  0  1  0  0  0  0  0  0  0  0  0
   -7.5979   32.7180  -12.7518 C   0  0  1  0  0  0  0  0  0  0  0  0
   -6.1708   38.1540  -18.5991 O   0  0  0  0  0  0  0  0  0  0  0  0
   -7.3831   32.3292  -11.3207 O   0  0  0  0  0  0  0  0  0  0  0  0
   -4.2947   37.8192  -17.3179 C   0  0  2  0  0  0  0  0  0  0  0  0
   -8.8342   32.5371  -13.0675 C   0  0  2  0  0  0  0  0  0  0  0  0
   -0.4197   35.7036  -20.3725 N   0  0  0  0  0  0  0  0  0  0  0  0
   -1.2830   36.6874  -20.7522 C   0  0  0  0  0  0  0  0  0  0  0  0
   -2.2410   37.1622  -19.8930 N   0  0  0  0  0  0  0  0  0  0  0  0
   -2.3264   36.6315  -18.6355 C   0  0  0  0  0  0  0  0  0  0  0  0
   -1.4891   35.6585  -18.2501 C   0  0  0  0  0  0  0  0  0  0  0  0
   -0.5123   35.1884  -19.1261 C   0  0  0  0  0  0  0  0  0  0  0  0
    0.4250   34.1746  -18.8455 N   0  0  0  0  0  0  0  0  0  0  0  0
   -1.7931   35.3317  -16.9761 N   0  0  0  0  0  0  0  0  0  0  0  0
   -2.8380   36.1136  -16.5810 C   0  0  0  0  0  0  0  0  0  0  0  0
   -3.1569   36.9274  -17.5960 N   0  0  0  0  0  0  0  0  0  0  0  0
  -10.2354   27.8627  -14.8861 N   0  0  0  0  0  0  0  0  0  0  0  0
  -10.2407   28.2668  -13.5888 C   0  0  0  0  0  0  0  0  0  0  0  0
   -9.8334   29.5328  -13.2747 N   0  0  0  0  0  0  0  0  0  0  0  0
   -9.4305   30.3859  -14.2547 C   0  0  0  0  0  0  0  0  0  0  0  0
   -9.4270   29.9933  -15.5447 C   0  0  0  0  0  0  0  0  0  0  0  0
   -9.8396   28.7008  -15.8553 C   0  0  0  0  0  0  0  0  0  0  0  0
   -9.8982   28.0695  -17.1488 N   0  0  0  0  0  0  0  0  0  0  0  0
   -8.9810   31.0368  -16.2844 N   0  0  0  0  0  0  0  0  0  0  0  0
   -8.7155   32.0756  -15.4416 C   0  0  0  0  0  0  0  0  0  0  0  0
   -8.9995   31.6641  -14.1894 N   0  0  0  0  0  0  0  0  0  0  0  0
  1  3  1  1  0  0  0
  1  5  2  0  0  0  0
  1  9  1  0  0  0  0
  1 18  1  0  0  0  0
  2  4  1  6  0  0  0
  2  6  2  0  0  0  0
  2 10  1  0  0  0  0
  2 17  1  0  0  0  0
  7  9  1  0  0  0  0
  8 10  1  0  0  0  0
 11  7  1  1  0  0  0
 11 13  1  0  0  0  0
 11 15  1  0  0  0  0
 12  8  1  6  0  0  0
 12 14  1  0  0  0  0
 12 16  1  0  0  0  0
 13 23  1  0  0  0  0
 14 24  1  0  0  0  0
 15 17  1  6  0  0  0
 15 19  1  0  0  0  0
 16 18  1  1  0  0  0
 16 20  1  0  0  0  0
 19 21  1  6  0  0  0
 19 23  1  0  0  0  0
 20 22  1  1  0  0  0
 20 24  1  0  0  0  0
 23 34  1  1  0  0  0
 24 44  1  6  0  0  0
 25 26  2  0  0  0  0
 25 30  1  0  0  0  0
 26 27  1  0  0  0  0
 27 28  2  0  0  0  0
 28 29  1  0  0  0  0
 28 34  1  0  0  0  0
 29 30  2  0  0  0  0
 29 32  1  0  0  0  0
 30 31  1  0  0  0  0
 32 33  2  0  0  0  0
 33 34  1  0  0  0  0
 35 36  2  0  0  0  0
 35 40  1  0  0  0  0
 36 37  1  0  0  0  0
 37 38  2  0  0  0  0
 38 39  1  0  0  0  0
 38 44  1  0  0  0  0
 39 40  2  0  0  0  0
 39 42  1  0  0  0  0
 40 41  1  0  0  0  0
 42 43  2  0  0  0  0
 43 44  1  0  0  0  0
M  CHG  2   3  -1   4  -1
M  END
>  <CHROM.1>
-154.33718547,-133.20195887,-6.33515923,34.56385038,-15.57153685,2.88079385
-0.77462074,-2.53846758

>  <Name>
ligand

>  <RI>
0

>  <Rbt.Current_Directory>
/home/itssahil/PROJECTS/Mol_Feturizer/New_Systems/rnas/4QLM

>  <Rbt.Executable>
rbdock ($Id: //depot/dev/client3/rdock/2013.1/src/exe/rbdock.cxx#4 $)

>  <Rbt.Library>
libRbt.so (2013.1, Build901 2013/11/27)

>  <Rbt.Parameter_File>
/export/apps/rDock/src/rDock_2013.1_src/data/scripts/dock_solv.prm

>  <Rbt.Receptor>
prm/pocket_docking_5.prm

>  <SCORE>
-22.053

>  <SCORE.INTER>
-22.0771

>  <SCORE.INTER.CONST>
1

>  <SCORE.INTER.POLAR>
0

>  <SCORE.INTER.ROT>
2

>  <SCORE.INTER.SOLV>
33.9219

>  <SCORE.INTER.VDW>
-30.9587

>  <SCORE.INTER.norm>
-0.501752

>  <SCORE.INTRA>
-0.0393173

>  <SCORE.INTRA.DIHEDRAL>
-0.0265663

>  <SCORE.INTRA.DIHEDRAL.0>
2.32994

>  <SCORE.INTRA.POLAR>
0

>  <SCORE.INTRA.POLAR.0>
0

>  <SCORE.INTRA.REPUL>
0

>  <SCORE.INTRA.REPUL.0>
0

>  <SCORE.INTRA.SOLV>
0.00282866

>  <SCORE.INTRA.SOLV.lig_0>
-117.703

>  <SCORE.INTRA.VDW>
-0.0274485

>  <SCORE.INTRA.VDW.0>
-1.59997

>  <SCORE.INTRA.norm>
-0.000893575

>  <SCORE.RESTR>
0.0634691

>  <SCORE.RESTR.CAVITY>
0.0634691

>  <SCORE.RESTR.norm>
0.00144248

>  <SCORE.SYSTEM>
0

>  <SCORE.SYSTEM.CONST>
0

>  <SCORE.SYSTEM.DIHEDRAL>
0

>  <SCORE.SYSTEM.SOLV>
0

>  <SCORE.SYSTEM.norm>
0

>  <SCORE.heavy>
44

>  <SCORE.norm>
-0.501204

>  <RMSD>
0.816

$$$$
ligand
 OpenBabel11021811513D
libRbt.so/2013.1/901 2013/11/27
 44 50  0  0  0  0  0  0  0  0999 V2000
   -5.2059   35.1544  -12.6792 P   0  0  2  0  0  0  0  0  0  0  0  0
   -8.6029   36.2321  -16.7417 P   0  0  1  0  0  0  0  0  0  0  0  0
   -4.5935   36.1748  -11.7230 O   0  5  0  0  0  0  0  0  0  0  0  0
   -8.1185   35.3790  -17.8887 O   0  5  0  0  0  0  0  0  0  0  0  0
   -4.2477   33.9882  -12.7175 O   0  0  0  0  0  0  0  0  0  0  0  0
  -10.0050   36.7610  -17.1205 O   0  0  0  0  0  0  0  0  0  0  0  0
   -5.5440   37.3248  -13.9505 C   0  0  0  0  0  0  0  0  0  0  0  0
   -8.7866   35.9618  -14.1802 C   0  0  0  0  0  0  0  0  0  0  0  0
   -5.3430   35.9079  -14.0416 O   0  0  0  0  0  0  0  0  0  0  0  0
   -8.4650   35.2663  -15.4177 O   0  0  0  0  0  0  0  0  0  0  0  0
   -5.6129   37.9364  -15.3458 C   0  0  1  0  0  0  0  0  0  0  0  0
   -8.7430   34.8751  -13.0406 C   0  0  1  0  0  0  0  0  0  0  0  0
   -4.4010   38.1654  -15.7471 O   0  0  0  0  0  0  0  0  0  0  0  0
   -9.4788   33.9265  -13.4563 O   0  0  0  0  0  0  0  0  0  0  0  0
   -6.2418   37.0184  -16.3686 C   0  0  1  0  0  0  0  0  0  0  0  0
   -7.3530   34.2128  -12.9625 C   0  0  1  0  0  0  0  0  0  0  0  0
   -7.5282   37.4306  -16.5221 O   0  0  0  0  0  0  0  0  0  0  0  0
   -6.6305   34.7120  -11.9523 O   0  0  0  0  0  0  0  0  0  0  0  0
   -5.4194   37.3025  -17.6736 C   0  0  1  0  0  0  0  0  0  0  0  0
   -7.5869   32.6951  -12.7859 C   0  0  1  0  0  0  0  0  0  0  0  0
   -6.1902   38.1969  -18.5787 O   0  0  0  0  0  0  0  0  0  0  0  0
   -7.3702   32.2935  -11.3587 O   0  0  0  0  0  0  0  0  0  0  0  0
   -4.3125   37.8603  -17.3004 C   0  0  2  0  0  0  0  0  0  0  0  0
   -8.8222   32.5102  -13.1036 C   0  0  2  0  0  0  0  0  0  0  0  0
   -0.4640   35.7529  -20.3938 N   0  0  0  0  0  0  0  0  0  0  0  0
   -1.3442   36.7227  -20.7704 C   0  0  0  0  0  0  0  0  0  0  0  0
   -2.2935   37.1967  -19.9011 N   0  0  0  0  0  0  0  0  0  0  0  0
   -2.3526   36.6795  -18.6365 C   0  0  0  0  0  0  0  0  0  0  0  0
   -1.4984   35.7202  -18.2538 C   0  0  0  0  0  0  0  0  0  0  0  0
   -0.5307   35.2508  -19.1404 C   0  0  0  0  0  0  0  0  0  0  0  0
    0.4223   34.2506  -18.8637 N   0  0  0  0  0  0  0  0  0  0  0  0
   -1.7781   35.4045  -16.9715 N   0  0  0  0  0  0  0  0  0  0  0  0
   -2.8251   36.1794  -16.5682 C   0  0  0  0  0  0  0  0  0  0  0  0
   -3.1695   36.9780  -17.5870 N   0  0  0  0  0  0  0  0  0  0  0  0
  -10.3309   27.8955  -14.9876 N   0  0  0  0  0  0  0  0  0  0  0  0
  -10.3639   28.2953  -13.6893 C   0  0  0  0  0  0  0  0  0  0  0  0
   -9.9218   29.5447  -13.3565 N   0  0  0  0  0  0  0  0  0  0  0  0
   -9.4565   30.3858  -14.3191 C   0  0  0  0  0  0  0  0  0  0  0  0
   -9.4251   29.9976  -15.6101 C   0  0  0  0  0  0  0  0  0  0  0  0
   -9.8737   28.7219  -15.9396 C   0  0  0  0  0  0  0  0  0  0  0  0
   -9.9128   28.0973  -17.2371 N   0  0  0  0  0  0  0  0  0  0  0  0
   -8.9178   31.0267  -16.3303 N   0  0  0  0  0  0  0  0  0  0  0  0
   -8.6427   32.0524  -15.4747 C   0  0  0  0  0  0  0  0  0  0  0  0
   -8.9821   31.6474  -14.2342 N   0  0  0  0  0  0  0  0  0  0  0  0
  1  3  1  1  0  0  0
  1  5  2  0  0  0  0
  1  9  1  0  0  0  0
  1 18  1  0  0  0  0
  2  4  1  6  0  0  0
  2  6  2  0  0  0  0
  2 10  1  0  0  0  0
  2 17  1  0  0  0  0
  7  9  1  0  0  0  0
  8 10  1  0  0  0  0
 11  7  1  1  0  0  0
 11 13  1  0  0  0  0
 11 15  1  0  0  0  0
 12  8  1  6  0  0  0
 12 14  1  0  0  0  0
 12 16  1  0  0  0  0
 13 23  1  0  0  0  0
 14 24  1  0  0  0  0
 15 17  1  6  0  0  0
 15 19  1  0  0  0  0
 16 18  1  1  0  0  0
 16 20  1  0  0  0  0
 19 21  1  6  0  0  0
 19 23  1  0  0  0  0
 20 22  1  1  0  0  0
 20 24  1  0  0  0  0
 23 34  1  1  0  0  0
 24 44  1  6  0  0  0
 25 26  2  0  0  0  0
 25 30  1  0  0  0  0
 26 27  1  0  0  0  0
 27 28  2  0  0  0  0
 28 29  1  0  0  0  0
 28 34  1  0  0  0  0
 29 30  2  0  0  0  0
 29 32  1  0  0  0  0
 30 31  1  0  0  0  0
 32 33  2  0  0  0  0
 33 34  1  0  0  0  0
 35 36  2  0  0  0  0
 35 40  1  0  0  0  0
 36 37  1  0  0  0  0
 37 38  2  0  0  0  0
 38 39  1  0  0  0  0
 38 44  1  0  0  0  0
 39 40  2  0  0  0  0
 39 42  1  0  0  0  0
 40 41  1  0  0  0  0
 42 43  2  0  0  0  0
 43 44  1  0  0  0  0
M  CHG  2   3  -1   4  -1
M  END
>  <CHROM.1>
-155.90316362,-130.14647148,-6.34738665,34.57686262,-15.58946946,2.90412647
-0.78017654,-2.49288251

>  <Name>
ligand

>  <RI>
0

>  <Rbt.Current_Directory>
/home/itssahil/PROJECTS/Mol_Feturizer/New_Systems/rnas/4QLM

>  <Rbt.Executable>
rbdock ($Id: //depot/dev/client3/rdock/2013.1/src/exe/rbdock.cxx#4 $)

>  <Rbt.Library>
libRbt.so (2013.1, Build901 2013/11/27)

>  <Rbt.Parameter_File>
/export/apps/rDock/src/rDock_2013.1_src/data/scripts/dock_solv.prm

>  <Rbt.Receptor>
prm/pocket_docking_7.prm

>  <SCORE>
-21.9168

>  <SCORE.INTER>
-21.9669

>  <SCORE.INTER.CONST>
1

>  <SCORE.INTER.POLAR>
0

>  <SCORE.INTER.ROT>
2

>  <SCORE.INTER.SOLV>
34.178

>  <SCORE.INTER.VDW>
-30.9706

>  <SCORE.INTER.norm>
-0.499248

>  <SCORE.INTRA>
0.0162636

>  <SCORE.INTRA.DIHEDRAL>
-0.0264371

>  <SCORE.INTRA.DIHEDRAL.0>
2.32994

>  <SCORE.INTRA.POLAR>
0

>  <SCORE.INTRA.POLAR.0>
0

>  <SCORE.INTRA.REPUL>
0

>  <SCORE.INTRA.REPUL.0>
0

>  <SCORE.INTRA.SOLV>
0.00304256

>  <SCORE.INTRA.SOLV.lig_0>
-117.703

>  <SCORE.INTRA.VDW>
0.0279608

>  <SCORE.INTRA.VDW.0>
-1.59997

>  <SCORE.INTRA.norm>
0.000369626

>  <SCORE.RESTR>
0.0338185

>  <SCORE.RESTR.CAVITY>
0.0338185

>  <SCORE.RESTR.norm>
0.000768603

>  <SCORE.SYSTEM>
0

>  <SCORE.SYSTEM.CONST>
0

>  <SCORE.SYSTEM.DIHEDRAL>
0

>  <SCORE.SYSTEM.SOLV>
0

>  <SCORE.SYSTEM.norm>
0

>  <SCORE.heavy>
44

>  <SCORE.norm>
-0.49811

>  <RMSD>
0.822

$$$$
ligand
 OpenBabel11021811513D
libRbt.so/2013.1/901 2013/11/27
 44 50  0  0  0  0  0  0  0  0999 V2000
   -5.1384   35.1152  -12.6920 P   0  0  2  0  0  0  0  0  0  0  0  0
   -8.5534   36.2742  -16.7169 P   0  0  1  0  0  0  0  0  0  0  0  0
   -4.5055   36.1186  -11.7313 O   0  5  0  0  0  0  0  0  0  0  0  0
   -8.0890   35.4259  -17.8756 O   0  5  0  0  0  0  0  0  0  0  0  0
   -4.1956   33.9373  -12.7489 O   0  0  0  0  0  0  0  0  0  0  0  0
   -9.9516   36.8245  -17.0795 O   0  0  0  0  0  0  0  0  0  0  0  0
   -5.4587   37.3016  -13.9402 C   0  0  0  0  0  0  0  0  0  0  0  0
   -8.7202   35.9822  -14.1566 C   0  0  0  0  0  0  0  0  0  0  0  0
   -5.2767   35.8832  -14.0461 O   0  0  0  0  0  0  0  0  0  0  0  0
   -8.4174   35.2943  -15.4031 O   0  0  0  0  0  0  0  0  0  0  0  0
   -5.5309   37.9271  -15.3291 C   0  0  1  0  0  0  0  0  0  0  0  0
   -8.6816   34.8843  -13.0275 C   0  0  1  0  0  0  0  0  0  0  0  0
   -4.3194   38.1445  -15.7380 O   0  0  0  0  0  0  0  0  0  0  0  0
   -9.4328   33.9491  -13.4461 O   0  0  0  0  0  0  0  0  0  0  0  0
   -6.1796   37.0269  -16.3554 C   0  0  1  0  0  0  0  0  0  0  0  0
   -7.2996   34.2036  -12.9668 C   0  0  1  0  0  0  0  0  0  0  0  0
   -7.4618   37.4568  -16.4947 O   0  0  0  0  0  0  0  0  0  0  0  0
   -6.5628   34.6841  -11.9578 O   0  0  0  0  0  0  0  0  0  0  0  0
   -5.3639   37.3128  -17.6642 C   0  0  1  0  0  0  0  0  0  0  0  0
   -7.5515   32.6875  -12.8025 C   0  0  1  0  0  0  0  0  0  0  0  0
   -6.1303   38.2255  -18.5548 O   0  0  0  0  0  0  0  0  0  0  0  0
   -7.3287   32.2697  -11.3808 O   0  0  0  0  0  0  0  0  0  0  0  0
   -4.2471   37.8530  -17.2947 C   0  0  2  0  0  0  0  0  0  0  0  0
   -8.7915   32.5213  -13.1120 C   0  0  2  0  0  0  0  0  0  0  0  0
   -0.4098   35.7706  -20.4190 N   0  0  0  0  0  0  0  0  0  0  0  0
   -1.2688   36.7676  -20.7730 C   0  0  0  0  0  0  0  0  0  0  0  0
   -2.2171   37.2322  -19.8975 N   0  0  0  0  0  0  0  0  0  0  0  0
   -2.2970   36.6776  -18.6500 C   0  0  0  0  0  0  0  0  0  0  0  0
   -1.4638   35.6915  -18.2899 C   0  0  0  0  0  0  0  0  0  0  0  0
   -0.4969   35.2317  -19.1823 C   0  0  0  0  0  0  0  0  0  0  0  0
    0.4352   34.2061  -18.9285 N   0  0  0  0  0  0  0  0  0  0  0  0
   -1.7608   35.3419  -17.0203 N   0  0  0  0  0  0  0  0  0  0  0  0
   -2.7971   36.1232  -16.6022 C   0  0  0  0  0  0  0  0  0  0  0  0
   -3.1177   36.9589  -17.5987 N   0  0  0  0  0  0  0  0  0  0  0  0
  -10.1737   27.8700  -15.0030 N   0  0  0  0  0  0  0  0  0  0  0  0
  -10.1541   28.2450  -13.6971 C   0  0  0  0  0  0  0  0  0  0  0  0
   -9.7561   29.5091  -13.3640 N   0  0  0  0  0  0  0  0  0  0  0  0
   -9.3871   30.3891  -14.3335 C   0  0  0  0  0  0  0  0  0  0  0  0
   -9.4085   30.0254  -15.6317 C   0  0  0  0  0  0  0  0  0  0  0  0
   -9.8114   28.7347  -15.9618 C   0  0  0  0  0  0  0  0  0  0  0  0
   -9.8917   28.1315  -17.2675 N   0  0  0  0  0  0  0  0  0  0  0  0
   -8.9934   31.0910  -16.3578 N   0  0  0  0  0  0  0  0  0  0  0  0
   -8.7219   32.1143  -15.4980 C   0  0  0  0  0  0  0  0  0  0  0  0
   -8.9714   31.6713  -14.2492 N   0  0  0  0  0  0  0  0  0  0  0  0
  1  3  1  1  0  0  0
  1  5  2  0  0  0  0
  1  9  1  0  0  0  0
  1 18  1  0  0  0  0
  2  4  1  6  0  0  0
  2  6  2  0  0  0  0
  2 10  1  0  0  0  0
  2 17  1  0  0  0  0
  7  9  1  0  0  0  0
  8 10  1  0  0  0  0
 11  7  1  1  0  0  0
 11 13  1  0  0  0  0
 11 15  1  0  0  0  0
 12  8  1  6  0  0  0
 12 14  1  0  0  0  0
 12 16  1  0  0  0  0
 13 23  1  0  0  0  0
 14 24  1  0  0  0  0
 15 17  1  6  0  0  0
 15 19  1  0  0  0  0
 16 18  1  1  0  0  0
 16 20  1  0  0  0  0
 19 21  1  6  0  0  0
 19 23  1  0  0  0  0
 20 22  1  1  0  0  0
 20 24  1  0  0  0  0
 23 34  1  1  0  0  0
 24 44  1  6  0  0  0
 25 26  2  0  0  0  0
 25 30  1  0  0  0  0
 26 27  1  0  0  0  0
 27 28  2  0  0  0  0
 28 29  1  0  0  0  0
 28 34  1  0  0  0  0
 29 30  2  0  0  0  0
 29 32  1  0  0  0  0
 30 31  1  0  0  0  0
 32 33  2  0  0  0  0
 33 34  1  0  0  0  0
 35 36  2  0  0  0  0
 35 40  1  0  0  0  0
 36 37  1  0  0  0  0
 37 38  2  0  0  0  0
 38 39  1  0  0  0  0
 38 44  1  0  0  0  0
 39 40  2  0  0  0  0
 39 42  1  0  0  0  0
 40 41  1  0  0  0  0
 42 43  2  0  0  0  0
 43 44  1  0  0  0  0
M  CHG  2   3  -1   4  -1
M  END
>  <CHROM.1>
-154.31847788,-134.67030945,-6.29210908,34.57698871,-15.59522306,2.88256300
-0.77635948,-2.52613736

>  <Name>
ligand

>  <RI>
0

>  <Rbt.Current_Directory>
/home/itssahil/PROJECTS/Mol_Feturizer/New_Systems/rnas/4QLM

>  <Rbt.Executable>
rbdock ($Id: //depot/dev/client3/rdock/2013.1/src/exe/rbdock.cxx#4 $)

>  <Rbt.Library>
libRbt.so (2013.1, Build901 2013/11/27)

>  <Rbt.Parameter_File>
/export/apps/rDock/src/rDock_2013.1_src/data/scripts/dock_solv.prm

>  <Rbt.Receptor>
prm/pocket_docking_4.prm

>  <SCORE>
-22.3445

>  <SCORE.INTER>
-22.2958

>  <SCORE.INTER.CONST>
1

>  <SCORE.INTER.POLAR>
0

>  <SCORE.INTER.ROT>
2

>  <SCORE.INTER.SOLV>
34.4886

>  <SCORE.INTER.VDW>
-31.2934

>  <SCORE.INTER.norm>
-0.506722

>  <SCORE.INTRA>
-0.0486742

>  <SCORE.INTRA.DIHEDRAL>
-0.0259631

>  <SCORE.INTRA.DIHEDRAL.0>
2.32994

>  <SCORE.INTRA.POLAR>
0

>  <SCORE.INTRA.POLAR.0>
0

>  <SCORE.INTRA.REPUL>
0

>  <SCORE.INTRA.REPUL.0>
0

>  <SCORE.INTRA.SOLV>
0.00294005

>  <SCORE.INTRA.SOLV.lig_0>
-117.703

>  <SCORE.INTRA.VDW>
-0.0371627

>  <SCORE.INTRA.VDW.0>
-1.59997

>  <SCORE.INTRA.norm>
-0.00110623

>  <SCORE.RESTR>
0

>  <SCORE.RESTR.CAVITY>
0

>  <SCORE.RESTR.norm>
0

>  <SCORE.SYSTEM>
0

>  <SCORE.SYSTEM.CONST>
0

>  <SCORE.SYSTEM.DIHEDRAL>
0

>  <SCORE.SYSTEM.SOLV>
0

>  <SCORE.SYSTEM.norm>
0

>  <SCORE.heavy>
44

>  <SCORE.norm>
-0.507829

>  <RMSD>
0.848

$$$$
ligand
 OpenBabel11021811513D
libRbt.so/2013.1/901 2013/11/27
 44 50  0  0  0  0  0  0  0  0999 V2000
   -5.1365   35.1177  -12.7041 P   0  0  2  0  0  0  0  0  0  0  0  0
   -8.5307   36.2711  -16.7482 P   0  0  1  0  0  0  0  0  0  0  0  0
   -4.5028   36.1233  -11.7462 O   0  5  0  0  0  0  0  0  0  0  0  0
   -8.0657   35.4147  -17.9007 O   0  5  0  0  0  0  0  0  0  0  0  0
   -4.1988   33.9354  -12.7513 O   0  0  0  0  0  0  0  0  0  0  0  0
   -9.9250   36.8257  -17.1190 O   0  0  0  0  0  0  0  0  0  0  0  0
   -5.4422   37.2991  -13.9649 C   0  0  0  0  0  0  0  0  0  0  0  0
   -8.7087   35.9932  -14.1870 C   0  0  0  0  0  0  0  0  0  0  0  0
   -5.2661   35.8793  -14.0628 O   0  0  0  0  0  0  0  0  0  0  0  0
   -8.4042   35.2974  -15.4288 O   0  0  0  0  0  0  0  0  0  0  0  0
   -5.5062   37.9176  -15.3573 C   0  0  1  0  0  0  0  0  0  0  0  0
   -8.6794   34.9010  -13.0522 C   0  0  1  0  0  0  0  0  0  0  0  0
   -4.2921   38.1275  -15.7626 O   0  0  0  0  0  0  0  0  0  0  0  0
   -9.4331   33.9670  -13.4689 O   0  0  0  0  0  0  0  0  0  0  0  0
   -6.1550   37.0150  -16.3814 C   0  0  1  0  0  0  0  0  0  0  0  0
   -7.3007   34.2144  -12.9826 C   0  0  1  0  0  0  0  0  0  0  0  0
   -7.4347   37.4500  -16.5279 O   0  0  0  0  0  0  0  0  0  0  0  0
   -6.5656   34.6969  -11.9733 O   0  0  0  0  0  0  0  0  0  0  0  0
   -5.3330   37.2905  -17.6885 C   0  0  1  0  0  0  0  0  0  0  0  0
   -7.5601   32.7003  -12.8114 C   0  0  1  0  0  0  0  0  0  0  0  0
   -6.0919   38.2019  -18.5868 O   0  0  0  0  0  0  0  0  0  0  0  0
   -7.3446   32.2889  -11.3868 O   0  0  0  0  0  0  0  0  0  0  0  0
   -4.2151   37.8275  -17.3175 C   0  0  2  0  0  0  0  0  0  0  0  0
   -8.7996   32.5381  -13.1249 C   0  0  2  0  0  0  0  0  0  0  0  0
   -0.4018   35.6829  -20.4288 N   0  0  0  0  0  0  0  0  0  0  0  0
   -1.2625   36.6738  -20.7955 C   0  0  0  0  0  0  0  0  0  0  0  0
   -2.2042   37.1557  -19.9224 N   0  0  0  0  0  0  0  0  0  0  0  0
   -2.2756   36.6250  -18.6640 C   0  0  0  0  0  0  0  0  0  0  0  0
   -1.4407   35.6451  -18.2912 C   0  0  0  0  0  0  0  0  0  0  0  0
   -0.4804   35.1676  -19.1815 C   0  0  0  0  0  0  0  0  0  0  0  0
    0.4526   34.1462  -18.9150 N   0  0  0  0  0  0  0  0  0  0  0  0
   -1.7289   35.3199  -17.0131 N   0  0  0  0  0  0  0  0  0  0  0  0
   -2.7617   36.1099  -16.6026 C   0  0  0  0  0  0  0  0  0  0  0  0
   -3.0887   36.9268  -17.6125 N   0  0  0  0  0  0  0  0  0  0  0  0
  -10.1543   27.8696  -14.9932 N   0  0  0  0  0  0  0  0  0  0  0  0
  -10.1304   28.2490  -13.6887 C   0  0  0  0  0  0  0  0  0  0  0  0
   -9.7410   29.5174  -13.3618 N   0  0  0  0  0  0  0  0  0  0  0  0
   -9.3846   30.3972  -14.3362 C   0  0  0  0  0  0  0  0  0  0  0  0
   -9.4103   30.0292  -15.6331 C   0  0  0  0  0  0  0  0  0  0  0  0
   -9.8045   28.7342  -15.9569 C   0  0  0  0  0  0  0  0  0  0  0  0
   -9.8873   28.1262  -17.2602 N   0  0  0  0  0  0  0  0  0  0  0  0
   -9.0080   31.0958  -16.3649 N   0  0  0  0  0  0  0  0  0  0  0  0
   -8.7401   32.1240  -15.5100 C   0  0  0  0  0  0  0  0  0  0  0  0
   -8.9789   31.6830  -14.2583 N   0  0  0  0  0  0  0  0  0  0  0  0
  1  3  1  1  0  0  0
  1  5  2  0  0  0  0
  1  9  1  0  0  0  0
  1 18  1  0  0  0  0
  2  4  1  6  0  0  0
  2  6  2  0  0  0  0
  2 10  1  0  0  0  0
  2 17  1  0  0  0  0
  7  9  1  0  0  0  0
  8 10  1  0  0  0  0
 11  7  1  1  0  0  0
 11 13  1  0  0  0  0
 11 15  1  0  0  0  0
 12  8  1  6  0  0  0
 12 14  1  0  0  0  0
 12 16  1  0  0  0  0
 13 23  1  0  0  0  0
 14 24  1  0  0  0  0
 15 17  1  6  0  0  0
 15 19  1  0  0  0  0
 16 18  1  1  0  0  0
 16 20  1  0  0  0  0
 19 21  1  6  0  0  0
 19 23  1  0  0  0  0
 20 22  1  1  0  0  0
 20 24  1  0  0  0  0
 23 34  1  1  0  0  0
 24 44  1  6  0  0  0
 25 26  2  0  0  0  0
 25 30  1  0  0  0  0
 26 27  1  0  0  0  0
 27 28  2  0  0  0  0
 28 29  1  0  0  0  0
 28 34  1  0  0  0  0
 29 30  2  0  0  0  0
 29 32  1  0  0  0  0
 30 31  1  0  0  0  0
 32 33  2  0  0  0  0
 33 34  1  0  0  0  0
 35 36  2  0  0  0  0
 35 40  1  0  0  0  0
 36 37  1  0  0  0  0
 37 38  2  0  0  0  0
 38 39  1  0  0  0  0
 38 44  1  0  0  0  0
 39 40  2  0  0  0  0
 39 42  1  0  0  0  0
 40 41  1  0  0  0  0
 42 43  2  0  0  0  0
 43 44  1  0  0  0  0
M  CHG  2   3  -1   4  -1
M  END
>  <CHROM.1>
-155.34791409,-135.58439295,-6.28007198,34.56659170,-15.60946633,2.88008519
-0.77156807,-2.53644832

>  <Name>
ligand

>  <RI>
0

>  <Rbt.Current_Directory>
/home/itssahil/PROJECTS/Mol_Feturizer/New_Systems/rnas/4QLM

>  <Rbt.Executable>
rbdock ($Id: //depot/dev/client3/rdock/2013.1/src/exe/rbdock.cxx#4 $)

>  <Rbt.Library>
libRbt.so (2013.1, Build901 2013/11/27)

>  <Rbt.Parameter_File>
/export/apps/rDock/src/rDock_2013.1_src/data/scripts/dock_solv.prm

>  <Rbt.Receptor>
prm/pocket_docking_4.prm

>  <SCORE>
-22.3083

>  <SCORE.INTER>
-22.2627

>  <SCORE.INTER.CONST>
1

>  <SCORE.INTER.POLAR>
0

>  <SCORE.INTER.ROT>
2

>  <SCORE.INTER.SOLV>
34.6116

>  <SCORE.INTER.VDW>
-31.3123

>  <SCORE.INTER.norm>
-0.505969

>  <SCORE.INTRA>
-0.0456864

>  <SCORE.INTRA.DIHEDRAL>
-0.0246707

>  <SCORE.INTRA.DIHEDRAL.0>
2.32994

>  <SCORE.INTRA.POLAR>
0

>  <SCORE.INTRA.POLAR.0>
0

>  <SCORE.INTRA.REPUL>
0

>  <SCORE.INTRA.REPUL.0>
0

>  <SCORE.INTRA.SOLV>
0.00328703

>  <SCORE.INTRA.SOLV.lig_0>
-117.703

>  <SCORE.INTRA.VDW>
-0.0349946

>  <SCORE.INTRA.VDW.0>
-1.59997

>  <SCORE.INTRA.norm>
-0.00103833

>  <SCORE.RESTR>
0

>  <SCORE.RESTR.CAVITY>
0

>  <SCORE.RESTR.norm>
0

>  <SCORE.SYSTEM>
0

>  <SCORE.SYSTEM.CONST>
0

>  <SCORE.SYSTEM.DIHEDRAL>
0

>  <SCORE.SYSTEM.SOLV>
0

>  <SCORE.SYSTEM.norm>
0

>  <SCORE.heavy>
44

>  <SCORE.norm>
-0.507008

>  <RMSD>
0.854

$$$$
ligand
 OpenBabel11021811513D
libRbt.so/2013.1/901 2013/11/27
 44 50  0  0  0  0  0  0  0  0999 V2000
   -5.1658   35.1699  -12.6981 P   0  0  2  0  0  0  0  0  0  0  0  0
   -8.5482   36.2837  -16.7631 P   0  0  1  0  0  0  0  0  0  0  0  0
   -4.5391   36.1843  -11.7447 O   0  5  0  0  0  0  0  0  0  0  0  0
   -8.0758   35.4208  -17.9078 O   0  5  0  0  0  0  0  0  0  0  0  0
   -4.2239   33.9904  -12.7334 O   0  0  0  0  0  0  0  0  0  0  0  0
   -9.9428   36.8310  -17.1432 O   0  0  0  0  0  0  0  0  0  0  0  0
   -5.4739   37.3414  -13.9752 C   0  0  0  0  0  0  0  0  0  0  0  0
   -8.7352   36.0229  -14.2008 C   0  0  0  0  0  0  0  0  0  0  0  0
   -5.2927   35.9216  -14.0625 O   0  0  0  0  0  0  0  0  0  0  0  0
   -8.4235   35.3196  -15.4365 O   0  0  0  0  0  0  0  0  0  0  0  0
   -5.5346   37.9501  -15.3721 C   0  0  1  0  0  0  0  0  0  0  0  0
   -8.7065   34.9388  -13.0583 C   0  0  1  0  0  0  0  0  0  0  0  0
   -4.3196   38.1612  -15.7742 O   0  0  0  0  0  0  0  0  0  0  0  0
   -9.4555   33.9994  -13.4713 O   0  0  0  0  0  0  0  0  0  0  0  0
   -6.1763   37.0381  -16.3924 C   0  0  1  0  0  0  0  0  0  0  0  0
   -7.3258   34.2574  -12.9786 C   0  0  1  0  0  0  0  0  0  0  0  0
   -7.4569   37.4677  -16.5469 O   0  0  0  0  0  0  0  0  0  0  0  0
   -6.5963   34.7493  -11.9699 O   0  0  0  0  0  0  0  0  0  0  0  0
   -5.3502   37.3073  -17.6982 C   0  0  1  0  0  0  0  0  0  0  0  0
   -7.5808   32.7436  -12.7979 C   0  0  1  0  0  0  0  0  0  0  0  0
   -6.1087   38.2099  -18.6057 O   0  0  0  0  0  0  0  0  0  0  0  0
   -7.3694   32.3429  -11.3696 O   0  0  0  0  0  0  0  0  0  0  0  0
   -4.2356   37.8507  -17.3267 C   0  0  2  0  0  0  0  0  0  0  0  0
   -8.8185   32.5750  -13.1150 C   0  0  2  0  0  0  0  0  0  0  0  0
   -0.4126   35.6868  -20.4127 N   0  0  0  0  0  0  0  0  0  0  0  0
   -1.2779   36.6693  -20.7911 C   0  0  0  0  0  0  0  0  0  0  0  0
   -2.2218   37.1572  -19.9236 N   0  0  0  0  0  0  0  0  0  0  0  0
   -2.2907   36.6412  -18.6590 C   0  0  0  0  0  0  0  0  0  0  0  0
   -1.4512   35.6697  -18.2746 C   0  0  0  0  0  0  0  0  0  0  0  0
   -0.4888   35.1861  -19.1593 C   0  0  0  0  0  0  0  0  0  0  0  0
    0.4490   34.1722  -18.8807 N   0  0  0  0  0  0  0  0  0  0  0  0
   -1.7378   35.3584  -16.9927 N   0  0  0  0  0  0  0  0  0  0  0  0
   -2.7742   36.1485  -16.5915 C   0  0  0  0  0  0  0  0  0  0  0  0
   -3.1050   36.9518  -17.6110 N   0  0  0  0  0  0  0  0  0  0  0  0
  -10.1709   27.8958  -14.9580 N   0  0  0  0  0  0  0  0  0  0  0  0
  -10.1571   28.2855  -13.6563 C   0  0  0  0  0  0  0  0  0  0  0  0
   -9.7668   29.5553  -13.3361 N   0  0  0  0  0  0  0  0  0  0  0  0
   -9.3994   30.4263  -14.3143 C   0  0  0  0  0  0  0  0  0  0  0  0
   -9.4150   30.0481  -15.6084 C   0  0  0  0  0  0  0  0  0  0  0  0
   -9.8102   28.7517  -15.9253 C   0  0  0  0  0  0  0  0  0  0  0  0
   -9.8835   28.1336  -17.2244 N   0  0  0  0  0  0  0  0  0  0  0  0
   -9.0033   31.1077  -16.3451 N   0  0  0  0  0  0  0  0  0  0  0  0
   -8.7397   32.1419  -15.4961 C   0  0  0  0  0  0  0  0  0  0  0  0
   -8.9906   31.7115  -14.2431 N   0  0  0  0  0  0  0  0  0  0  0  0
  1  3  1  1  0  0  0
  1  5  2  0  0  0  0
  1  9  1  0  0  0  0
  1 18  1  0  0  0  0
  2  4  1  6  0  0  0
  2  6  2  0  0  0  0
  2 10  1  0  0  0  0
  2 17  1  0  0  0  0
  7  9  1  0  0  0  0
  8 10  1  0  0  0  0
 11  7  1  1  0  0  0
 11 13  1  0  0  0  0
 11 15  1  0  0  0  0
 12  8  1  6  0  0  0
 12 14  1  0  0  0  0
 12 16  1  0  0  0  0
 13 23  1  0  0  0  0
 14 24  1  0  0  0  0
 15 17  1  6  0  0  0
 15 19  1  0  0  0  0
 16 18  1  1  0  0  0
 16 20  1  0  0  0  0
 19 21  1  6  0  0  0
 19 23  1  0  0  0  0
 20 22  1  1  0  0  0
 20 24  1  0  0  0  0
 23 34  1  1  0  0  0
 24 44  1  6  0  0  0
 25 26  2  0  0  0  0
 25 30  1  0  0  0  0
 26 27  1  0  0  0  0
 27 28  2  0  0  0  0
 28 29  1  0  0  0  0
 28 34  1  0  0  0  0
 29 30  2  0  0  0  0
 29 32  1  0  0  0  0
 30 31  1  0  0  0  0
 32 33  2  0  0  0  0
 33 34  1  0  0  0  0
 35 36  2  0  0  0  0
 35 40  1  0  0  0  0
 36 37  1  0  0  0  0
 37 38  2  0  0  0  0
 38 39  1  0  0  0  0
 38 44  1  0  0  0  0
 39 40  2  0  0  0  0
 39 42  1  0  0  0  0
 40 41  1  0  0  0  0
 42 43  2  0  0  0  0
 43 44  1  0  0  0  0
M  CHG  2   3  -1   4  -1
M  END
>  <CHROM.1>
-155.71914262,-135.12802439,-6.29844344,34.59453586,-15.60434326,2.87796413
-0.77090633,-2.54178219

>  <Name>
ligand

>  <RI>
0

>  <Rbt.Current_Directory>
/home/itssahil/PROJECTS/Mol_Feturizer/New_Systems/rnas/4QLM

>  <Rbt.Executable>
rbdock ($Id: //depot/dev/client3/rdock/2013.1/src/exe/rbdock.cxx#4 $)

>  <Rbt.Library>
libRbt.so (2013.1, Build901 2013/11/27)

>  <Rbt.Parameter_File>
/export/apps/rDock/src/rDock_2013.1_src/data/scripts/dock_solv.prm

>  <Rbt.Receptor>
prm/pocket_docking_4.prm

>  <SCORE>
-22.3163

>  <SCORE.INTER>
-22.276

>  <SCORE.INTER.CONST>
1

>  <SCORE.INTER.POLAR>
0

>  <SCORE.INTER.ROT>
2

>  <SCORE.INTER.SOLV>
34.4781

>  <SCORE.INTER.VDW>
-31.2767

>  <SCORE.INTER.norm>
-0.506274

>  <SCORE.INTRA>
-0.0404097

>  <SCORE.INTRA.DIHEDRAL>
-0.0244402

>  <SCORE.INTRA.DIHEDRAL.0>
2.32994

>  <SCORE.INTRA.POLAR>
0

>  <SCORE.INTRA.POLAR.0>
0

>  <SCORE.INTRA.REPUL>
0

>  <SCORE.INTRA.REPUL.0>
0

>  <SCORE.INTRA.SOLV>
0.00334361

>  <SCORE.INTRA.SOLV.lig_0>
-117.703

>  <SCORE.INTRA.VDW>
-0.0298614

>  <SCORE.INTRA.VDW.0>
-1.59997

>  <SCORE.INTRA.norm>
-0.000918402

>  <SCORE.RESTR>
0.000141681

>  <SCORE.RESTR.CAVITY>
0.000141681

>  <SCORE.RESTR.norm>
3.22001e-06

>  <SCORE.SYSTEM>
0

>  <SCORE.SYSTEM.CONST>
0

>  <SCORE.SYSTEM.DIHEDRAL>
0

>  <SCORE.SYSTEM.SOLV>
0

>  <SCORE.SYSTEM.norm>
0

>  <SCORE.heavy>
44

>  <SCORE.norm>
-0.507189

>  <RMSD>
0.862

$$$$
ligand
 OpenBabel11021811513D
libRbt.so/2013.1/901 2013/11/27
 44 50  0  0  0  0  0  0  0  0999 V2000
   -9.5191   35.6752  -16.8240 P   0  0  2  0  0  0  0  0  0  0  0  0
   -5.8153   34.7962  -12.9880 P   0  0  1  0  0  0  0  0  0  0  0  0
  -10.9271   36.2236  -16.6071 O   0  5  0  0  0  0  0  0  0  0  0  0
   -5.2024   33.4624  -13.3393 O   0  5  0  0  0  0  0  0  0  0  0  0
   -9.5794   34.8539  -18.0894 O   0  0  0  0  0  0  0  0  0  0  0  0
   -4.9116   35.4516  -11.9189 O   0  0  0  0  0  0  0  0  0  0  0  0
   -9.8501   35.2861  -14.3380 C   0  0  0  0  0  0  0  0  0  0  0  0
   -6.6861   36.8396  -14.3050 C   0  0  0  0  0  0  0  0  0  0  0  0
   -9.2076   34.8403  -15.5400 O   0  0  0  0  0  0  0  0  0  0  0  0
   -5.9981   35.5631  -14.4313 O   0  0  0  0  0  0  0  0  0  0  0  0
   -9.4984   34.3589  -13.1794 C   0  0  1  0  0  0  0  0  0  0  0  0
   -6.6546   37.4997  -15.7350 C   0  0  1  0  0  0  0  0  0  0  0  0
  -10.3152   33.3517  -13.2055 O   0  0  0  0  0  0  0  0  0  0  0  0
   -5.4370   37.4570  -16.0950 O   0  0  0  0  0  0  0  0  0  0  0  0
   -8.1026   33.7874  -13.2759 C   0  0  1  0  0  0  0  0  0  0  0  0
   -7.3446   36.5954  -16.7756 C   0  0  1  0  0  0  0  0  0  0  0  0
   -7.3217   34.5256  -12.4430 O   0  0  0  0  0  0  0  0  0  0  0  0
   -8.5818   37.0254  -17.0521 O   0  0  0  0  0  0  0  0  0  0  0  0
   -8.2627   32.3288  -12.7219 C   0  0  1  0  0  0  0  0  0  0  0  0
   -6.4547   36.6033  -18.0394 C   0  0  1  0  0  0  0  0  0  0  0  0
   -7.7723   32.2582  -11.3191 O   0  0  0  0  0  0  0  0  0  0  0  0
   -7.0380   37.5027  -19.0863 O   0  0  0  0  0  0  0  0  0  0  0  0
   -9.5235   32.0429  -12.7889 C   0  0  2  0  0  0  0  0  0  0  0  0
   -5.3225   37.0768  -17.6455 C   0  0  2  0  0  0  0  0  0  0  0  0
  -10.6568   27.0178  -14.3007 N   0  0  0  0  0  0  0  0  0  0  0  0
  -10.6080   27.4692  -13.0158 C   0  0  0  0  0  0  0  0  0  0  0  0
  -10.3091   28.7779  -12.7337 N   0  0  0  0  0  0  0  0  0  0  0  0
  -10.0542   29.6378  -13.7661 C   0  0  0  0  0  0  0  0  0  0  0  0
  -10.0913   29.2068  -15.0346 C   0  0  0  0  0  0  0  0  0  0  0  0
  -10.4052   27.8776  -15.3131 C   0  0  0  0  0  0  0  0  0  0  0  0
  -10.4773   27.3011  -16.5966 N   0  0  0  0  0  0  0  0  0  0  0  0
   -9.8084   30.2554  -15.8363 N   0  0  0  0  0  0  0  0  0  0  0  0
   -9.5879   31.3420  -15.0425 C   0  0  0  0  0  0  0  0  0  0  0  0
   -9.7559   30.9678  -13.7674 N   0  0  0  0  0  0  0  0  0  0  0  0
   -0.8973   35.7717  -20.0609 N   0  0  0  0  0  0  0  0  0  0  0  0
   -1.6538   36.8772  -20.2885 C   0  0  0  0  0  0  0  0  0  0  0  0
   -2.7994   37.0708  -19.5692 N   0  0  0  0  0  0  0  0  0  0  0  0
   -3.1781   36.1655  -18.6270 C   0  0  0  0  0  0  0  0  0  0  0  0
   -2.4300   35.0684  -18.3926 C   0  0  0  0  0  0  0  0  0  0  0  0
   -1.2667   34.8772  -19.1325 C   0  0  0  0  0  0  0  0  0  0  0  0
   -0.3357   33.7802  -19.0637 N   0  0  0  0  0  0  0  0  0  0  0  0
   -3.0465   34.3586  -17.4175 N   0  0  0  0  0  0  0  0  0  0  0  0
   -4.1757   35.0290  -17.0497 C   0  0  0  0  0  0  0  0  0  0  0  0
   -4.2465   36.1463  -17.8012 N   0  0  0  0  0  0  0  0  0  0  0  0
  1  3  1  1  0  0  0
  1  5  2  0  0  0  0
  1  9  1  0  0  0  0
  1 18  1  0  0  0  0
  2  4  1  6  0  0  0
  2  6  2  0  0  0  0
  2 10  1  0  0  0  0
  2 17  1  0  0  0  0
  7  9  1  0  0  0  0
  8 10  1  0  0  0  0
 11  7  1  6  0  0  0
 11 13  1  0  0  0  0
 11 15  1  0  0  0  0
 12  8  1  1  0  0  0
 12 14  1  0  0  0  0
 12 16  1  0  0  0  0
 13 23  1  0  0  0  0
 14 24  1  0  0  0  0
 15 17  1  1  0  0  0
 15 19  1  0  0  0  0
 16 18  1  6  0  0  0
 16 20  1  0  0  0  0
 19 21  1  1  0  0  0
 19 23  1  0  0  0  0
 20 22  1  6  0  0  0
 20 24  1  0  0  0  0
 23 34  1  6  0  0  0
 24 44  1  1  0  0  0
 25 26  2  0  0  0  0
 25 30  1  0  0  0  0
 26 27  1  0  0  0  0
 27 28  2  0  0  0  0
 28 29  1  0  0  0  0
 28 34  1  0  0  0  0
 29 30  2  0  0  0  0
 29 32  1  0  0  0  0
 30 31  1  0  0  0  0
 32 33  2  0  0  0  0
 33 34  1  0  0  0  0
 35 36  2  0  0  0  0
 35 40  1  0  0  0  0
 36 37  1  0  0  0  0
 37 38  2  0  0  0  0
 38 39  1  0  0  0  0
 38 44  1  0  0  0  0
 39 40  2  0  0  0  0
 39 42  1  0  0  0  0
 40 41  1  0  0  0  0
 42 43  2  0  0  0  0
 43 44  1  0  0  0  0
M  CHG  2   3  -1   4  -1
M  END
>  <CHROM.1>
-134.33397566,-127.78114268,-7.14041207,34.02660557,-15.60584606,2.46857684
-0.58248178,3.12268896

>  <Name>
ligand

>  <RI>
0

>  <Rbt.Current_Directory>
/home/itssahil/PROJECTS/Mol_Feturizer/New_Systems/rnas/4QLM

>  <Rbt.Executable>
rbdock ($Id: //depot/dev/client3/rdock/2013.1/src/exe/rbdock.cxx#4 $)

>  <Rbt.Library>
libRbt.so (2013.1, Build901 2013/11/27)

>  <Rbt.Parameter_File>
/export/apps/rDock/src/rDock_2013.1_src/data/scripts/dock_solv.prm

>  <Rbt.Receptor>
prm/pocket_docking_2.prm

>  <SCORE>
-7.44515

>  <SCORE.INTER>
-7.79798

>  <SCORE.INTER.CONST>
1

>  <SCORE.INTER.POLAR>
0

>  <SCORE.INTER.ROT>
2

>  <SCORE.INTER.SOLV>
34.1366

>  <SCORE.INTER.VDW>
-21.5108

>  <SCORE.INTER.norm>
-0.177227

>  <SCORE.INTRA>
0.162443

>  <SCORE.INTRA.DIHEDRAL>
0.0100284

>  <SCORE.INTRA.DIHEDRAL.0>
2.32994

>  <SCORE.INTRA.POLAR>
0

>  <SCORE.INTRA.POLAR.0>
0

>  <SCORE.INTRA.REPUL>
0

>  <SCORE.INTRA.REPUL.0>
0

>  <SCORE.INTRA.SOLV>
-0.00179606

>  <SCORE.INTRA.SOLV.lig_0>
-117.703

>  <SCORE.INTRA.VDW>
0.158327

>  <SCORE.INTRA.VDW.0>
-1.59997

>  <SCORE.INTRA.norm>
0.00369189

>  <SCORE.RESTR>
0.190384

>  <SCORE.RESTR.CAVITY>
0.190384

>  <SCORE.RESTR.norm>
0.00432691

>  <SCORE.SYSTEM>
0

>  <SCORE.SYSTEM.CONST>
0

>  <SCORE.SYSTEM.DIHEDRAL>
0

>  <SCORE.SYSTEM.SOLV>
0

>  <SCORE.SYSTEM.norm>
0

>  <SCORE.heavy>
44

>  <SCORE.norm>
-0.169208

>  <RMSD>
0.879

$$$$
ligand
 OpenBabel11021811513D
libRbt.so/2013.1/901 2013/11/27
 44 50  0  0  0  0  0  0  0  0999 V2000
   -5.1167   35.1511  -12.7093 P   0  0  2  0  0  0  0  0  0  0  0  0
   -8.5260   36.3348  -16.7318 P   0  0  1  0  0  0  0  0  0  0  0  0
   -4.4786   36.1496  -11.7468 O   0  5  0  0  0  0  0  0  0  0  0  0
   -8.0660   35.4862  -17.8921 O   0  5  0  0  0  0  0  0  0  0  0  0
   -4.1799   33.9685  -12.7684 O   0  0  0  0  0  0  0  0  0  0  0  0
   -9.9213   36.8929  -17.0934 O   0  0  0  0  0  0  0  0  0  0  0  0
   -5.4259   37.3414  -13.9536 C   0  0  0  0  0  0  0  0  0  0  0  0
   -8.6941   36.0391  -14.1720 C   0  0  0  0  0  0  0  0  0  0  0  0
   -5.2511   35.9222  -14.0620 O   0  0  0  0  0  0  0  0  0  0  0  0
   -8.3949   35.3519  -15.4198 O   0  0  0  0  0  0  0  0  0  0  0  0
   -5.4950   37.9697  -15.3414 C   0  0  1  0  0  0  0  0  0  0  0  0
   -8.6610   34.9390  -13.0450 C   0  0  1  0  0  0  0  0  0  0  0  0
   -4.2823   38.1816  -15.7500 O   0  0  0  0  0  0  0  0  0  0  0  0
   -9.4170   34.0085  -13.4652 O   0  0  0  0  0  0  0  0  0  0  0  0
   -6.1483   37.0747  -16.3692 C   0  0  1  0  0  0  0  0  0  0  0  0
   -7.2825   34.2512  -12.9856 C   0  0  1  0  0  0  0  0  0  0  0  0
   -7.4283   37.5114  -16.5077 O   0  0  0  0  0  0  0  0  0  0  0  0
   -6.5432   34.7261  -11.9758 O   0  0  0  0  0  0  0  0  0  0  0  0
   -5.3313   37.3587  -17.6776 C   0  0  1  0  0  0  0  0  0  0  0  0
   -7.5422   32.7360  -12.8239 C   0  0  1  0  0  0  0  0  0  0  0  0
   -6.0931   38.2769  -18.5665 O   0  0  0  0  0  0  0  0  0  0  0  0
   -7.3214   32.3146  -11.4030 O   0  0  0  0  0  0  0  0  0  0  0  0
   -4.2116   37.8925  -17.3072 C   0  0  2  0  0  0  0  0  0  0  0  0
   -8.7831   32.5767  -13.1337 C   0  0  2  0  0  0  0  0  0  0  0  0
   -0.4122   35.7669  -20.4485 N   0  0  0  0  0  0  0  0  0  0  0  0
   -1.2738   36.7608  -20.8050 C   0  0  0  0  0  0  0  0  0  0  0  0
   -2.2117   37.2373  -19.9247 N   0  0  0  0  0  0  0  0  0  0  0  0
   -2.2783   36.6980  -18.6697 C   0  0  0  0  0  0  0  0  0  0  0  0
   -1.4425   35.7151  -18.3070 C   0  0  0  0  0  0  0  0  0  0  0  0
   -0.4861   35.2432  -19.2044 C   0  0  0  0  0  0  0  0  0  0  0  0
    0.4474   34.2194  -18.9486 N   0  0  0  0  0  0  0  0  0  0  0  0
   -1.7257   35.3814  -17.0300 N   0  0  0  0  0  0  0  0  0  0  0  0
   -2.7563   36.1692  -16.6099 C   0  0  0  0  0  0  0  0  0  0  0  0
   -3.0869   36.9932  -17.6129 N   0  0  0  0  0  0  0  0  0  0  0  0
  -10.1422   27.9204  -15.0288 N   0  0  0  0  0  0  0  0  0  0  0  0
  -10.1118   28.2903  -13.7216 C   0  0  0  0  0  0  0  0  0  0  0  0
   -9.7221   29.5567  -13.3876 N   0  0  0  0  0  0  0  0  0  0  0  0
   -9.3720   30.4441  -14.3574 C   0  0  0  0  0  0  0  0  0  0  0  0
   -9.4041   30.0854  -15.6568 C   0  0  0  0  0  0  0  0  0  0  0  0
   -9.7985   28.7923  -15.9879 C   0  0  0  0  0  0  0  0  0  0  0  0
   -9.8874   28.1937  -17.2951 N   0  0  0  0  0  0  0  0  0  0  0  0
   -9.0070   31.1578  -16.3829 N   0  0  0  0  0  0  0  0  0  0  0  0
   -8.7357   32.1801  -15.5220 C   0  0  0  0  0  0  0  0  0  0  0  0
   -8.9674   31.7297  -14.2723 N   0  0  0  0  0  0  0  0  0  0  0  0
  1  3  1  1  0  0  0
  1  5  2  0  0  0  0
  1  9  1  0  0  0  0
  1 18  1  0  0  0  0
  2  4  1  6  0  0  0
  2  6  2  0  0  0  0
  2 10  1  0  0  0  0
  2 17  1  0  0  0  0
  7  9  1  0  0  0  0
  8 10  1  0  0  0  0
 11  7  1  1  0  0  0
 11 13  1  0  0  0  0
 11 15  1  0  0  0  0
 12  8  1  6  0  0  0
 12 14  1  0  0  0  0
 12 16  1  0  0  0  0
 13 23  1  0  0  0  0
 14 24  1  0  0  0  0
 15 17  1  6  0  0  0
 15 19  1  0  0  0  0
 16 18  1  1  0  0  0
 16 20  1  0  0  0  0
 19 21  1  6  0  0  0
 19 23  1  0  0  0  0
 20 22  1  1  0  0  0
 20 24  1  0  0  0  0
 23 34  1  1  0  0  0
 24 44  1  6  0  0  0
 25 26  2  0  0  0  0
 25 30  1  0  0  0  0
 26 27  1  0  0  0  0
 27 28  2  0  0  0  0
 28 29  1  0  0  0  0
 28 34  1  0  0  0  0
 29 30  2  0  0  0  0
 29 32  1  0  0  0  0
 30 31  1  0  0  0  0
 32 33  2  0  0  0  0
 33 34  1  0  0  0  0
 35 36  2  0  0  0  0
 35 40  1  0  0  0  0
 36 37  1  0  0  0  0
 37 38  2  0  0  0  0
 38 39  1  0  0  0  0
 38 44  1  0  0  0  0
 39 40  2  0  0  0  0
 39 42  1  0  0  0  0
 40 41  1  0  0  0  0
 42 43  2  0  0  0  0
 43 44  1  0  0  0  0
M  CHG  2   3  -1   4  -1
M  END
>  <CHROM.1>
-155.35999964,-135.71638842,-6.27154188,34.62082401,-15.61386262,2.88289835
-0.77438634,-2.52821093

>  <Name>
ligand

>  <RI>
0

>  <Rbt.Current_Directory>
/home/itssahil/PROJECTS/Mol_Feturizer/New_Systems/rnas/4QLM

>  <Rbt.Executable>
rbdock ($Id: //depot/dev/client3/rdock/2013.1/src/exe/rbdock.cxx#4 $)

>  <Rbt.Library>
libRbt.so (2013.1, Build901 2013/11/27)

>  <Rbt.Parameter_File>
/export/apps/rDock/src/rDock_2013.1_src/data/scripts/dock_solv.prm

>  <Rbt.Receptor>
prm/pocket_docking_4.prm

>  <SCORE>
-22.3077

>  <SCORE.INTER>
-22.2615

>  <SCORE.INTER.CONST>
1

>  <SCORE.INTER.POLAR>
0

>  <SCORE.INTER.ROT>
2

>  <SCORE.INTER.SOLV>
34.8084

>  <SCORE.INTER.VDW>
-31.3771

>  <SCORE.INTER.norm>
-0.505943

>  <SCORE.INTRA>
-0.0462021

>  <SCORE.INTRA.DIHEDRAL>
-0.0246072

>  <SCORE.INTRA.DIHEDRAL.0>
2.32994

>  <SCORE.INTRA.POLAR>
0

>  <SCORE.INTRA.POLAR.0>
0

>  <SCORE.INTRA.REPUL>
0

>  <SCORE.INTRA.REPUL.0>
0

>  <SCORE.INTRA.SOLV>
0.00330218

>  <SCORE.INTRA.SOLV.lig_0>
-117.703

>  <SCORE.INTRA.VDW>
-0.0355496

>  <SCORE.INTRA.VDW.0>
-1.59997

>  <SCORE.INTRA.norm>
-0.00105005

>  <SCORE.RESTR>
0

>  <SCORE.RESTR.CAVITY>
0

>  <SCORE.RESTR.norm>
0

>  <SCORE.SYSTEM>
0

>  <SCORE.SYSTEM.CONST>
0

>  <SCORE.SYSTEM.DIHEDRAL>
0

>  <SCORE.SYSTEM.SOLV>
0

>  <SCORE.SYSTEM.norm>
0

>  <SCORE.heavy>
44

>  <SCORE.norm>
-0.506993

>  <RMSD>
0.894

$$$$
ligand
 OpenBabel11021811513D
libRbt.so/2013.1/901 2013/11/27
 44 50  0  0  0  0  0  0  0  0999 V2000
   -9.0544   35.9943  -16.3391 P   0  0  2  0  0  0  0  0  0  0  0  0
   -5.1245   34.0672  -13.1693 P   0  0  1  0  0  0  0  0  0  0  0  0
  -10.3860   36.5750  -15.8700 O   0  5  0  0  0  0  0  0  0  0  0  0
   -4.6615   32.8028  -13.8512 O   0  5  0  0  0  0  0  0  0  0  0  0
   -9.2939   35.4705  -17.7348 O   0  0  0  0  0  0  0  0  0  0  0  0
   -4.0791   34.4158  -12.0855 O   0  0  0  0  0  0  0  0  0  0  0  0
   -9.2029   35.1019  -13.9679 C   0  0  0  0  0  0  0  0  0  0  0  0
   -5.9256   36.3992  -13.9364 C   0  0  0  0  0  0  0  0  0  0  0  0
   -8.7070   34.8839  -15.2956 O   0  0  0  0  0  0  0  0  0  0  0  0
   -5.3638   35.1372  -14.3951 O   0  0  0  0  0  0  0  0  0  0  0  0
   -8.8344   33.9259  -13.0698 C   0  0  1  0  0  0  0  0  0  0  0  0
   -5.9601   37.3482  -15.1933 C   0  0  1  0  0  0  0  0  0  0  0  0
   -9.7343   33.0041  -13.2210 O   0  0  0  0  0  0  0  0  0  0  0  0
   -4.7862   37.3036  -15.6769 O   0  0  0  0  0  0  0  0  0  0  0  0
   -7.5065   33.2975  -13.4253 C   0  0  1  0  0  0  0  0  0  0  0  0
   -6.8125   36.7367  -16.3231 C   0  0  1  0  0  0  0  0  0  0  0  0
   -6.5962   33.7858  -12.5414 O   0  0  0  0  0  0  0  0  0  0  0  0
   -8.0271   37.2970  -16.3760 O   0  0  0  0  0  0  0  0  0  0  0  0
   -7.7438   31.7677  -13.1734 C   0  0  1  0  0  0  0  0  0  0  0  0
   -6.0371   36.9577  -17.6418 C   0  0  1  0  0  0  0  0  0  0  0  0
   -7.1426   31.3645  -11.8736 O   0  0  0  0  0  0  0  0  0  0  0  0
   -6.6284   38.0979  -18.4134 O   0  0  0  0  0  0  0  0  0  0  0  0
   -9.0256   31.5868  -13.1691 C   0  0  2  0  0  0  0  0  0  0  0  0
   -4.8387   37.2594  -17.2760 C   0  0  2  0  0  0  0  0  0  0  0  0
  -10.7390   27.0989  -15.5657 N   0  0  0  0  0  0  0  0  0  0  0  0
  -10.5483   27.2614  -14.2262 C   0  0  0  0  0  0  0  0  0  0  0  0
  -10.1071   28.4536  -13.7111 N   0  0  0  0  0  0  0  0  0  0  0  0
   -9.8538   29.4920  -14.5643 C   0  0  0  0  0  0  0  0  0  0  0  0
  -10.0297   29.3451  -15.8848 C   0  0  0  0  0  0  0  0  0  0  0  0
  -10.4874   28.1332  -16.3991 C   0  0  0  0  0  0  0  0  0  0  0  0
  -10.7129   27.8502  -17.7607 N   0  0  0  0  0  0  0  0  0  0  0  0
   -9.7129   30.5160  -16.4771 N   0  0  0  0  0  0  0  0  0  0  0  0
   -9.3306   31.3888  -15.5019 C   0  0  0  0  0  0  0  0  0  0  0  0
   -9.4332   30.7654  -14.3208 N   0  0  0  0  0  0  0  0  0  0  0  0
   -0.9890   36.0996  -20.5858 N   0  0  0  0  0  0  0  0  0  0  0  0
   -1.7054   37.2533  -20.5421 C   0  0  0  0  0  0  0  0  0  0  0  0
   -2.6944   37.3986  -19.6104 N   0  0  0  0  0  0  0  0  0  0  0  0
   -2.9570   36.3972  -18.7280 C   0  0  0  0  0  0  0  0  0  0  0  0
   -2.2470   35.2513  -18.7625 C   0  0  0  0  0  0  0  0  0  0  0  0
   -1.2442   35.1102  -19.7173 C   0  0  0  0  0  0  0  0  0  0  0  0
   -0.3833   33.9782  -19.9464 N   0  0  0  0  0  0  0  0  0  0  0  0
   -2.7259   34.4485  -17.7820 N   0  0  0  0  0  0  0  0  0  0  0  0
   -3.7312   35.1103  -17.1407 C   0  0  0  0  0  0  0  0  0  0  0  0
   -3.8643   36.3152  -17.7311 N   0  0  0  0  0  0  0  0  0  0  0  0
  1  3  1  1  0  0  0
  1  5  2  0  0  0  0
  1  9  1  0  0  0  0
  1 18  1  0  0  0  0
  2  4  1  6  0  0  0
  2  6  2  0  0  0  0
  2 10  1  0  0  0  0
  2 17  1  0  0  0  0
  7  9  1  0  0  0  0
  8 10  1  0  0  0  0
 11  7  1  6  0  0  0
 11 13  1  0  0  0  0
 11 15  1  0  0  0  0
 12  8  1  1  0  0  0
 12 14  1  0  0  0  0
 12 16  1  0  0  0  0
 13 23  1  0  0  0  0
 14 24  1  0  0  0  0
 15 17  1  1  0  0  0
 15 19  1  0  0  0  0
 16 18  1  6  0  0  0
 16 20  1  0  0  0  0
 19 21  1  1  0  0  0
 19 23  1  0  0  0  0
 20 22  1  1  0  0  0
 20 24  1  0  0  0  0
 23 34  1  6  0  0  0
 24 44  1  1  0  0  0
 25 26  2  0  0  0  0
 25 30  1  0  0  0  0
 26 27  1  0  0  0  0
 27 28  2  0  0  0  0
 28 29  1  0  0  0  0
 28 34  1  0  0  0  0
 29 30  2  0  0  0  0
 29 32  1  0  0  0  0
 30 31  1  0  0  0  0
 32 33  2  0  0  0  0
 33 34  1  0  0  0  0
 35 36  2  0  0  0  0
 35 40  1  0  0  0  0
 36 37  1  0  0  0  0
 37 38  2  0  0  0  0
 38 39  1  0  0  0  0
 38 44  1  0  0  0  0
 39 40  2  0  0  0  0
 39 42  1  0  0  0  0
 40 41  1  0  0  0  0
 42 43  2  0  0  0  0
 43 44  1  0  0  0  0
M  CHG  2   3  -1   4  -1
M  END
>  <CHROM.1>
-133.67944560,-135.03154260,-6.74978620,33.96024862,-15.75832060,0.51569492
0.71406322,0.32911393

>  <Name>
ligand

>  <RI>
0

>  <Rbt.Current_Directory>
/home/itssahil/PROJECTS/Mol_Feturizer/New_Systems/rnas/4QLM

>  <Rbt.Executable>
rbdock ($Id: //depot/dev/client3/rdock/2013.1/src/exe/rbdock.cxx#4 $)

>  <Rbt.Library>
libRbt.so (2013.1, Build901 2013/11/27)

>  <Rbt.Parameter_File>
/export/apps/rDock/src/rDock_2013.1_src/data/scripts/dock_solv.prm

>  <Rbt.Receptor>
prm/pocket_docking_2.prm

>  <SCORE>
-19.381

>  <SCORE.INTER>
-20.322

>  <SCORE.INTER.CONST>
1

>  <SCORE.INTER.POLAR>
0

>  <SCORE.INTER.ROT>
2

>  <SCORE.INTER.SOLV>
36.9043

>  <SCORE.INTER.VDW>
-30.7828

>  <SCORE.INTER.norm>
-0.461864

>  <SCORE.INTRA>
0.0986803

>  <SCORE.INTRA.DIHEDRAL>
0.0162615

>  <SCORE.INTRA.DIHEDRAL.0>
2.32994

>  <SCORE.INTRA.POLAR>
0

>  <SCORE.INTRA.POLAR.0>
0

>  <SCORE.INTRA.REPUL>
0

>  <SCORE.INTRA.REPUL.0>
0

>  <SCORE.INTRA.SOLV>
-0.00145773

>  <SCORE.INTRA.SOLV.lig_0>
-117.703

>  <SCORE.INTRA.VDW>
0.0912784

>  <SCORE.INTRA.VDW.0>
-1.59997

>  <SCORE.INTRA.norm>
0.00224273

>  <SCORE.RESTR>
0.842331

>  <SCORE.RESTR.CAVITY>
0.842331

>  <SCORE.RESTR.norm>
0.0191439

>  <SCORE.SYSTEM>
0

>  <SCORE.SYSTEM.CONST>
0

>  <SCORE.SYSTEM.DIHEDRAL>
0

>  <SCORE.SYSTEM.SOLV>
0

>  <SCORE.SYSTEM.norm>
0

>  <SCORE.heavy>
44

>  <SCORE.norm>
-0.440477

>  <RMSD>
0.911

$$$$
ligand
 OpenBabel11021811513D
libRbt.so/2013.1/901 2013/11/27
 44 50  0  0  0  0  0  0  0  0999 V2000
   -9.0980   35.9118  -16.3689 P   0  0  2  0  0  0  0  0  0  0  0  0
   -5.2387   33.9161  -13.1550 P   0  0  1  0  0  0  0  0  0  0  0  0
  -10.4245   36.5157  -15.9148 O   0  5  0  0  0  0  0  0  0  0  0  0
   -4.7902   32.6438  -13.8319 O   0  5  0  0  0  0  0  0  0  0  0  0
   -9.3307   35.3923  -17.7673 O   0  0  0  0  0  0  0  0  0  0  0  0
   -4.1999   34.2463  -12.0592 O   0  0  0  0  0  0  0  0  0  0  0  0
   -9.2891   35.0219  -13.9997 C   0  0  0  0  0  0  0  0  0  0  0  0
   -5.9902   36.2617  -13.9305 C   0  0  0  0  0  0  0  0  0  0  0  0
   -8.7820   34.7954  -15.3217 O   0  0  0  0  0  0  0  0  0  0  0  0
   -5.4453   34.9902  -14.3832 O   0  0  0  0  0  0  0  0  0  0  0  0
   -8.9514   33.8396  -13.0977 C   0  0  1  0  0  0  0  0  0  0  0  0
   -5.9938   37.2113  -15.1875 C   0  0  1  0  0  0  0  0  0  0  0  0
   -9.8656   32.9337  -13.2595 O   0  0  0  0  0  0  0  0  0  0  0  0
   -4.8154   37.1462  -15.6577 O   0  0  0  0  0  0  0  0  0  0  0  0
   -7.6308   33.1881  -13.4382 C   0  0  1  0  0  0  0  0  0  0  0  0
   -6.8438   36.6149  -16.3271 C   0  0  1  0  0  0  0  0  0  0  0  0
   -6.7223   33.6604  -12.5440 O   0  0  0  0  0  0  0  0  0  0  0  0
   -8.0477   37.1963  -16.3937 O   0  0  0  0  0  0  0  0  0  0  0  0
   -7.8977   31.6627  -13.1895 C   0  0  1  0  0  0  0  0  0  0  0  0
   -6.0496   36.8223  -17.6369 C   0  0  1  0  0  0  0  0  0  0  0  0
   -7.3185   31.2490  -11.8831 O   0  0  0  0  0  0  0  0  0  0  0  0
   -6.6121   37.9728  -18.4149 O   0  0  0  0  0  0  0  0  0  0  0  0
   -9.1824   31.5043  -13.1999 C   0  0  2  0  0  0  0  0  0  0  0  0
   -4.8504   37.1030  -17.2573 C   0  0  2  0  0  0  0  0  0  0  0  0
  -10.7983   27.0026  -15.6381 N   0  0  0  0  0  0  0  0  0  0  0  0
  -10.5777   27.1470  -14.3010 C   0  0  0  0  0  0  0  0  0  0  0  0
  -10.1656   28.3446  -13.7744 N   0  0  0  0  0  0  0  0  0  0  0  0
   -9.9725   29.4071  -14.6135 C   0  0  0  0  0  0  0  0  0  0  0  0
  -10.1784   29.2785  -15.9316 C   0  0  0  0  0  0  0  0  0  0  0  0
  -10.6062   28.0606  -16.4574 C   0  0  0  0  0  0  0  0  0  0  0  0
  -10.8578   27.7950  -17.8179 N   0  0  0  0  0  0  0  0  0  0  0  0
   -9.9195   30.4709  -16.5091 N   0  0  0  0  0  0  0  0  0  0  0  0
   -9.5425   31.3387  -15.5273 C   0  0  0  0  0  0  0  0  0  0  0  0
   -9.5912   30.6902  -14.3563 N   0  0  0  0  0  0  0  0  0  0  0  0
   -0.9507   35.8943  -20.4903 N   0  0  0  0  0  0  0  0  0  0  0  0
   -1.6411   37.0639  -20.4486 C   0  0  0  0  0  0  0  0  0  0  0  0
   -2.6484   37.2208  -19.5386 N   0  0  0  0  0  0  0  0  0  0  0  0
   -2.9551   36.2149  -18.6757 C   0  0  0  0  0  0  0  0  0  0  0  0
   -2.2712   35.0533  -18.7083 C   0  0  0  0  0  0  0  0  0  0  0  0
   -1.2494   34.9005  -19.6409 C   0  0  0  0  0  0  0  0  0  0  0  0
   -0.4097   33.7516  -19.8643 N   0  0  0  0  0  0  0  0  0  0  0  0
   -2.7917   34.2498  -17.7498 N   0  0  0  0  0  0  0  0  0  0  0  0
   -3.7965   34.9270  -17.1239 C   0  0  0  0  0  0  0  0  0  0  0  0
   -3.8876   36.1419  -17.7015 N   0  0  0  0  0  0  0  0  0  0  0  0
  1  3  1  1  0  0  0
  1  5  2  0  0  0  0
  1  9  1  0  0  0  0
  1 18  1  0  0  0  0
  2  4  1  6  0  0  0
  2  6  2  0  0  0  0
  2 10  1  0  0  0  0
  2 17  1  0  0  0  0
  7  9  1  0  0  0  0
  8 10  1  0  0  0  0
 11  7  1  6  0  0  0
 11 13  1  0  0  0  0
 11 15  1  0  0  0  0
 12  8  1  1  0  0  0
 12 14  1  0  0  0  0
 12 16  1  0  0  0  0
 13 23  1  0  0  0  0
 14 24  1  0  0  0  0
 15 17  1  1  0  0  0
 15 19  1  0  0  0  0
 16 18  1  6  0  0  0
 16 20  1  0  0  0  0
 19 21  1  1  0  0  0
 19 23  1  0  0  0  0
 20 22  1  1  0  0  0
 20 24  1  0  0  0  0
 23 34  1  6  0  0  0
 24 44  1  1  0  0  0
 25 26  2  0  0  0  0
 25 30  1  0  0  0  0
 26 27  1  0  0  0  0
 27 28  2  0  0  0  0
 28 29  1  0  0  0  0
 28 34  1  0  0  0  0
 29 30  2  0  0  0  0
 29 32  1  0  0  0  0
 30 31  1  0  0  0  0
 32 33  2  0  0  0  0
 33 34  1  0  0  0  0
 35 36  2  0  0  0  0
 35 40  1  0  0  0  0
 36 37  1  0  0  0  0
 37 38  2  0  0  0  0
 38 39  1  0  0  0  0
 38 44  1  0  0  0  0
 39 40  2  0  0  0  0
 39 42  1  0  0  0  0
 40 41  1  0  0  0  0
 42 43  2  0  0  0  0
 43 44  1  0  0  0  0
M  CHG  2   3  -1   4  -1
M  END
>  <CHROM.1>
-137.58238546,-133.97193604,-6.82347715,33.83632460,-15.76144328,0.52276931
0.68620981,0.30853396

>  <Name>
ligand

>  <RI>
0

>  <Rbt.Current_Directory>
/home/itssahil/PROJECTS/Mol_Feturizer/New_Systems/rnas/4QLM

>  <Rbt.Executable>
rbdock ($Id: //depot/dev/client3/rdock/2013.1/src/exe/rbdock.cxx#4 $)

>  <Rbt.Library>
libRbt.so (2013.1, Build901 2013/11/27)

>  <Rbt.Parameter_File>
/export/apps/rDock/src/rDock_2013.1_src/data/scripts/dock_solv.prm

>  <Rbt.Receptor>
prm/pocket_docking_2.prm

>  <SCORE>
-18.6203

>  <SCORE.INTER>
-19.1678

>  <SCORE.INTER.CONST>
1

>  <SCORE.INTER.POLAR>
0

>  <SCORE.INTER.ROT>
2

>  <SCORE.INTER.SOLV>
38.1066

>  <SCORE.INTER.VDW>
-30.4141

>  <SCORE.INTER.norm>
-0.435631

>  <SCORE.INTRA>
0.0329865

>  <SCORE.INTRA.DIHEDRAL>
-6.4537e-05

>  <SCORE.INTRA.DIHEDRAL.0>
2.32994

>  <SCORE.INTRA.POLAR>
0

>  <SCORE.INTRA.POLAR.0>
0

>  <SCORE.INTRA.REPUL>
0

>  <SCORE.INTRA.REPUL.0>
0

>  <SCORE.INTRA.SOLV>
-0.000867142

>  <SCORE.INTRA.SOLV.lig_0>
-117.703

>  <SCORE.INTRA.VDW>
0.0334524

>  <SCORE.INTRA.VDW.0>
-1.59997

>  <SCORE.INTRA.norm>
0.000749694

>  <SCORE.RESTR>
0.514473

>  <SCORE.RESTR.CAVITY>
0.514473

>  <SCORE.RESTR.norm>
0.0116926

>  <SCORE.SYSTEM>
0

>  <SCORE.SYSTEM.CONST>
0

>  <SCORE.SYSTEM.DIHEDRAL>
0

>  <SCORE.SYSTEM.SOLV>
0

>  <SCORE.SYSTEM.norm>
0

>  <SCORE.heavy>
44

>  <SCORE.norm>
-0.423189

>  <RMSD>
0.918

$$$$
ligand
 OpenBabel11021811513D
libRbt.so/2013.1/901 2013/11/27
 44 50  0  0  0  0  0  0  0  0999 V2000
   -9.0815   35.9089  -16.3707 P   0  0  2  0  0  0  0  0  0  0  0  0
   -5.2333   33.9057  -13.1484 P   0  0  1  0  0  0  0  0  0  0  0  0
  -10.4073   36.5165  -15.9195 O   0  5  0  0  0  0  0  0  0  0  0  0
   -4.7867   32.6318  -13.8235 O   0  5  0  0  0  0  0  0  0  0  0  0
   -9.3130   35.3891  -17.7692 O   0  0  0  0  0  0  0  0  0  0  0  0
   -4.1956   34.2340  -12.0509 O   0  0  0  0  0  0  0  0  0  0  0  0
   -9.2793   35.0213  -14.0013 C   0  0  0  0  0  0  0  0  0  0  0  0
   -5.9773   36.2527  -13.9269 C   0  0  0  0  0  0  0  0  0  0  0  0
   -8.7703   34.7925  -15.3223 O   0  0  0  0  0  0  0  0  0  0  0  0
   -5.4348   34.9794  -14.3777 O   0  0  0  0  0  0  0  0  0  0  0  0
   -8.9462   33.8387  -13.0979 C   0  0  1  0  0  0  0  0  0  0  0  0
   -5.9762   37.2014  -15.1845 C   0  0  1  0  0  0  0  0  0  0  0  0
   -9.8624   32.9350  -13.2607 O   0  0  0  0  0  0  0  0  0  0  0  0
   -4.7971   37.1330  -15.6526 O   0  0  0  0  0  0  0  0  0  0  0  0
   -7.6267   33.1836  -13.4355 C   0  0  1  0  0  0  0  0  0  0  0  0
   -6.8256   36.6063  -16.3253 C   0  0  1  0  0  0  0  0  0  0  0  0
   -6.7186   33.6542  -12.5399 O   0  0  0  0  0  0  0  0  0  0  0  0
   -8.0279   37.1908  -16.3945 O   0  0  0  0  0  0  0  0  0  0  0  0
   -7.8979   31.6590  -13.1863 C   0  0  1  0  0  0  0  0  0  0  0  0
   -6.0285   36.8108  -17.6338 C   0  0  1  0  0  0  0  0  0  0  0  0
   -7.3221   31.2448  -11.8784 O   0  0  0  0  0  0  0  0  0  0  0  0
   -6.5867   37.9622  -18.4136 O   0  0  0  0  0  0  0  0  0  0  0  0
   -9.1830   31.5039  -13.1989 C   0  0  2  0  0  0  0  0  0  0  0  0
   -4.8293   37.0887  -17.2522 C   0  0  2  0  0  0  0  0  0  0  0  0
  -10.8009   27.0033  -15.6377 N   0  0  0  0  0  0  0  0  0  0  0  0
  -10.5810   27.1476  -14.3005 C   0  0  0  0  0  0  0  0  0  0  0  0
  -10.1683   28.3450  -13.7738 N   0  0  0  0  0  0  0  0  0  0  0  0
   -9.9738   29.4072  -14.6128 C   0  0  0  0  0  0  0  0  0  0  0  0
  -10.1790   29.2787  -15.9311 C   0  0  0  0  0  0  0  0  0  0  0  0
  -10.6075   28.0611  -16.4569 C   0  0  0  0  0  0  0  0  0  0  0  0
  -10.8585   27.7956  -17.8176 N   0  0  0  0  0  0  0  0  0  0  0  0
   -9.9189   30.4708  -16.5084 N   0  0  0  0  0  0  0  0  0  0  0  0
   -9.5418   31.3384  -15.5265 C   0  0  0  0  0  0  0  0  0  0  0  0
   -9.5917   30.6900  -14.3555 N   0  0  0  0  0  0  0  0  0  0  0  0
   -0.9375   35.8622  -20.4879 N   0  0  0  0  0  0  0  0  0  0  0  0
   -1.6270   37.0324  -20.4502 C   0  0  0  0  0  0  0  0  0  0  0  0
   -2.6322   37.1943  -19.5388 N   0  0  0  0  0  0  0  0  0  0  0  0
   -2.9376   36.1927  -18.6705 C   0  0  0  0  0  0  0  0  0  0  0  0
   -2.2547   35.0304  -18.6991 C   0  0  0  0  0  0  0  0  0  0  0  0
   -1.2350   34.8726  -19.6332 C   0  0  0  0  0  0  0  0  0  0  0  0
   -0.3966   33.7220  -19.8530 N   0  0  0  0  0  0  0  0  0  0  0  0
   -2.7737   34.2319  -17.7357 N   0  0  0  0  0  0  0  0  0  0  0  0
   -3.7766   34.9126  -17.1108 C   0  0  0  0  0  0  0  0  0  0  0  0
   -3.8681   36.1249  -17.6940 N   0  0  0  0  0  0  0  0  0  0  0  0
  1  3  1  1  0  0  0
  1  5  2  0  0  0  0
  1  9  1  0  0  0  0
  1 18  1  0  0  0  0
  2  4  1  6  0  0  0
  2  6  2  0  0  0  0
  2 10  1  0  0  0  0
  2 17  1  0  0  0  0
  7  9  1  0  0  0  0
  8 10  1  0  0  0  0
 11  7  1  6  0  0  0
 11 13  1  0  0  0  0
 11 15  1  0  0  0  0
 12  8  1  1  0  0  0
 12 14  1  0  0  0  0
 12 16  1  0  0  0  0
 13 23  1  0  0  0  0
 14 24  1  0  0  0  0
 15 17  1  1  0  0  0
 15 19  1  0  0  0  0
 16 18  1  6  0  0  0
 16 20  1  0  0  0  0
 19 21  1  1  0  0  0
 19 23  1  0  0  0  0
 20 22  1  1  0  0  0
 20 24  1  0  0  0  0
 23 34  1  6  0  0  0
 24 44  1  1  0  0  0
 25 26  2  0  0  0  0
 25 30  1  0  0  0  0
 26 27  1  0  0  0  0
 27 28  2  0  0  0  0
 28 29  1  0  0  0  0
 28 34  1  0  0  0  0
 29 30  2  0  0  0  0
 29 32  1  0  0  0  0
 30 31  1  0  0  0  0
 32 33  2  0  0  0  0
 33 34  1  0  0  0  0
 35 36  2  0  0  0  0
 35 40  1  0  0  0  0
 36 37  1  0  0  0  0
 37 38  2  0  0  0  0
 38 39  1  0  0  0  0
 38 44  1  0  0  0  0
 39 40  2  0  0  0  0
 39 42  1  0  0  0  0
 40 41  1  0  0  0  0
 42 43  2  0  0  0  0
 43 44  1  0  0  0  0
M  CHG  2   3  -1   4  -1
M  END
>  <CHROM.1>
-137.71130209,-134.31307053,-6.81388889,33.82762236,-15.75857636,0.51880881
0.68552378,0.31171986

>  <Name>
ligand

>  <RI>
0

>  <Rbt.Current_Directory>
/home/itssahil/PROJECTS/Mol_Feturizer/New_Systems/rnas/4QLM

>  <Rbt.Executable>
rbdock ($Id: //depot/dev/client3/rdock/2013.1/src/exe/rbdock.cxx#4 $)

>  <Rbt.Library>
libRbt.so (2013.1, Build901 2013/11/27)

>  <Rbt.Parameter_File>
/export/apps/rDock/src/rDock_2013.1_src/data/scripts/dock_solv.prm

>  <Rbt.Receptor>
prm/pocket_docking_2.prm

>  <SCORE>
-18.6104

>  <SCORE.INTER>
-19.1542

>  <SCORE.INTER.CONST>
1

>  <SCORE.INTER.POLAR>
0

>  <SCORE.INTER.ROT>
2

>  <SCORE.INTER.SOLV>
38.243

>  <SCORE.INTER.VDW>
-30.4505

>  <SCORE.INTER.norm>
-0.435323

>  <SCORE.INTRA>
0.0284766

>  <SCORE.INTRA.DIHEDRAL>
-0.000395704

>  <SCORE.INTRA.DIHEDRAL.0>
2.32994

>  <SCORE.INTRA.POLAR>
0

>  <SCORE.INTRA.POLAR.0>
0

>  <SCORE.INTRA.REPUL>
0

>  <SCORE.INTRA.REPUL.0>
0

>  <SCORE.INTRA.SOLV>
-0.000815834

>  <SCORE.INTRA.SOLV.lig_0>
-117.703

>  <SCORE.INTRA.VDW>
0.0290823

>  <SCORE.INTRA.VDW.0>
-1.59997

>  <SCORE.INTRA.norm>
0.000647194

>  <SCORE.RESTR>
0.515376

>  <SCORE.RESTR.CAVITY>
0.515376

>  <SCORE.RESTR.norm>
0.0117131

>  <SCORE.SYSTEM>
0

>  <SCORE.SYSTEM.CONST>
0

>  <SCORE.SYSTEM.DIHEDRAL>
0

>  <SCORE.SYSTEM.SOLV>
0

>  <SCORE.SYSTEM.norm>
0

>  <SCORE.heavy>
44

>  <SCORE.norm>
-0.422963

>  <RMSD>
0.919

$$$$
ligand
 OpenBabel11021811513D
libRbt.so/2013.1/901 2013/11/27
 44 50  0  0  0  0  0  0  0  0999 V2000
   -9.0741   35.8497  -16.4526 P   0  0  2  0  0  0  0  0  0  0  0  0
   -5.3138   33.8553  -13.1228 P   0  0  1  0  0  0  0  0  0  0  0  0
  -10.4037   36.4749  -16.0378 O   0  5  0  0  0  0  0  0  0  0  0  0
   -4.8646   32.5687  -13.7716 O   0  5  0  0  0  0  0  0  0  0  0  0
   -9.2805   35.3136  -17.8488 O   0  0  0  0  0  0  0  0  0  0  0  0
   -4.2967   34.1890  -12.0077 O   0  0  0  0  0  0  0  0  0  0  0  0
   -9.3304   34.9952  -14.0766 C   0  0  0  0  0  0  0  0  0  0  0  0
   -6.0197   36.1984  -13.9475 C   0  0  0  0  0  0  0  0  0  0  0  0
   -8.7955   34.7445  -15.3832 O   0  0  0  0  0  0  0  0  0  0  0  0
   -5.4794   34.9145  -14.3700 O   0  0  0  0  0  0  0  0  0  0  0  0
   -9.0274   33.8218  -13.1509 C   0  0  1  0  0  0  0  0  0  0  0  0
   -5.9832   37.1303  -15.2171 C   0  0  1  0  0  0  0  0  0  0  0  0
   -9.9481   32.9242  -13.3215 O   0  0  0  0  0  0  0  0  0  0  0  0
   -4.7950   37.0453  -15.6589 O   0  0  0  0  0  0  0  0  0  0  0  0
   -7.7070   33.1507  -13.4517 C   0  0  1  0  0  0  0  0  0  0  0  0
   -6.8135   36.5277  -16.3679 C   0  0  1  0  0  0  0  0  0  0  0  0
   -6.8139   33.6251  -12.5430 O   0  0  0  0  0  0  0  0  0  0  0  0
   -8.0087   37.1218  -16.4705 O   0  0  0  0  0  0  0  0  0  0  0  0
   -7.9973   31.6320  -13.1884 C   0  0  1  0  0  0  0  0  0  0  0  0
   -5.9869   36.7079  -17.6616 C   0  0  1  0  0  0  0  0  0  0  0  0
   -7.4534   31.2300  -11.8633 O   0  0  0  0  0  0  0  0  0  0  0  0
   -6.5178   37.8537  -18.4681 O   0  0  0  0  0  0  0  0  0  0  0  0
   -9.2832   31.4881  -13.2265 C   0  0  2  0  0  0  0  0  0  0  0  0
   -4.7936   36.9802  -17.2581 C   0  0  2  0  0  0  0  0  0  0  0  0
  -10.8324   26.9545  -15.6490 N   0  0  0  0  0  0  0  0  0  0  0  0
  -10.6233   27.1093  -14.3113 C   0  0  0  0  0  0  0  0  0  0  0  0
  -10.2280   28.3145  -13.7890 N   0  0  0  0  0  0  0  0  0  0  0  0
  -10.0401   29.3740  -14.6331 C   0  0  0  0  0  0  0  0  0  0  0  0
  -10.2348   29.2352  -15.9519 C   0  0  0  0  0  0  0  0  0  0  0  0
  -10.6456   28.0096  -16.4733 C   0  0  0  0  0  0  0  0  0  0  0  0
  -10.8843   27.7331  -17.8340 N   0  0  0  0  0  0  0  0  0  0  0  0
   -9.9846   30.4268  -16.5347 N   0  0  0  0  0  0  0  0  0  0  0  0
   -9.6243   31.3046  -15.5554 C   0  0  0  0  0  0  0  0  0  0  0  0
   -9.6746   30.6626  -14.3809 N   0  0  0  0  0  0  0  0  0  0  0  0
   -0.8242   35.6882  -20.3718 N   0  0  0  0  0  0  0  0  0  0  0  0
   -1.4998   36.8671  -20.3602 C   0  0  0  0  0  0  0  0  0  0  0  0
   -2.5292   37.0463  -19.4796 N   0  0  0  0  0  0  0  0  0  0  0  0
   -2.8725   36.0532  -18.6156 C   0  0  0  0  0  0  0  0  0  0  0  0
   -2.2037   34.8824  -18.6184 C   0  0  0  0  0  0  0  0  0  0  0  0
   -1.1591   34.7069  -19.5213 C   0  0  0  0  0  0  0  0  0  0  0  0
   -0.3291   33.5449  -19.7106 N   0  0  0  0  0  0  0  0  0  0  0  0
   -2.7607   34.0955  -17.6668 N   0  0  0  0  0  0  0  0  0  0  0  0
   -3.7729   34.7920  -17.0750 C   0  0  0  0  0  0  0  0  0  0  0  0
   -3.8320   36.0022  -17.6666 N   0  0  0  0  0  0  0  0  0  0  0  0
  1  3  1  1  0  0  0
  1  5  2  0  0  0  0
  1  9  1  0  0  0  0
  1 18  1  0  0  0  0
  2  4  1  6  0  0  0
  2  6  2  0  0  0  0
  2 10  1  0  0  0  0
  2 17  1  0  0  0  0
  7  9  1  0  0  0  0
  8 10  1  0  0  0  0
 11  7  1  6  0  0  0
 11 13  1  0  0  0  0
 11 15  1  0  0  0  0
 12  8  1  1  0  0  0
 12 14  1  0  0  0  0
 12 16  1  0  0  0  0
 13 23  1  0  0  0  0
 14 24  1  0  0  0  0
 15 17  1  1  0  0  0
 15 19  1  0  0  0  0
 16 18  1  6  0  0  0
 16 20  1  0  0  0  0
 19 21  1  1  0  0  0
 19 23  1  0  0  0  0
 20 22  1  6  0  0  0
 20 24  1  0  0  0  0
 23 34  1  6  0  0  0
 24 44  1  1  0  0  0
 25 26  2  0  0  0  0
 25 30  1  0  0  0  0
 26 27  1  0  0  0  0
 27 28  2  0  0  0  0
 28 29  1  0  0  0  0
 28 34  1  0  0  0  0
 29 30  2  0  0  0  0
 29 32  1  0  0  0  0
 30 31  1  0  0  0  0
 32 33  2  0  0  0  0
 33 34  1  0  0  0  0
 35 36  2  0  0  0  0
 35 40  1  0  0  0  0
 36 37  1  0  0  0  0
 37 38  2  0  0  0  0
 38 39  1  0  0  0  0
 38 44  1  0  0  0  0
 39 40  2  0  0  0  0
 39 42  1  0  0  0  0
 40 41  1  0  0  0  0
 42 43  2  0  0  0  0
 43 44  1  0  0  0  0
M  CHG  2   3  -1   4  -1
M  END
>  <CHROM.1>
-139.21097253,-133.63461165,-6.83364563,33.75669411,-15.76393063,0.52592889
0.65651530,0.28666581

>  <Name>
ligand

>  <RI>
0

>  <Rbt.Current_Directory>
/home/itssahil/PROJECTS/Mol_Feturizer/New_Systems/rnas/4QLM

>  <Rbt.Executable>
rbdock ($Id: //depot/dev/client3/rdock/2013.1/src/exe/rbdock.cxx#4 $)

>  <Rbt.Library>
libRbt.so (2013.1, Build901 2013/11/27)

>  <Rbt.Parameter_File>
/export/apps/rDock/src/rDock_2013.1_src/data/scripts/dock_solv.prm

>  <Rbt.Receptor>
prm/pocket_docking_2.prm

>  <SCORE>
-17.7445

>  <SCORE.INTER>
-18.0722

>  <SCORE.INTER.CONST>
1

>  <SCORE.INTER.POLAR>
0

>  <SCORE.INTER.ROT>
2

>  <SCORE.INTER.SOLV>
39.1351

>  <SCORE.INTER.VDW>
-30.0265

>  <SCORE.INTER.norm>
-0.410732

>  <SCORE.INTRA>
0.00678115

>  <SCORE.INTRA.DIHEDRAL>
-0.00591931

>  <SCORE.INTRA.DIHEDRAL.0>
2.32994

>  <SCORE.INTRA.POLAR>
0

>  <SCORE.INTRA.POLAR.0>
0

>  <SCORE.INTRA.REPUL>
0

>  <SCORE.INTRA.REPUL.0>
0

>  <SCORE.INTRA.SOLV>
-0.000586128

>  <SCORE.INTRA.SOLV.lig_0>
-117.703

>  <SCORE.INTRA.VDW>
0.0100339

>  <SCORE.INTRA.VDW.0>
-1.59997

>  <SCORE.INTRA.norm>
0.000154117

>  <SCORE.RESTR>
0.320898

>  <SCORE.RESTR.CAVITY>
0.320898

>  <SCORE.RESTR.norm>
0.00729315

>  <SCORE.SYSTEM>
0

>  <SCORE.SYSTEM.CONST>
0

>  <SCORE.SYSTEM.DIHEDRAL>
0

>  <SCORE.SYSTEM.SOLV>
0

>  <SCORE.SYSTEM.norm>
0

>  <SCORE.heavy>
44

>  <SCORE.norm>
-0.403285

>  <RMSD>
0.922

$$$$
ligand
 OpenBabel11021811513D
libRbt.so/2013.1/901 2013/11/27
 44 50  0  0  0  0  0  0  0  0999 V2000
   -9.1104   35.8576  -16.4030 P   0  0  2  0  0  0  0  0  0  0  0  0
   -5.2638   33.8851  -13.1597 P   0  0  1  0  0  0  0  0  0  0  0  0
  -10.4422   36.4573  -15.9589 O   0  5  0  0  0  0  0  0  0  0  0  0
   -4.8060   32.6130  -13.8306 O   0  5  0  0  0  0  0  0  0  0  0  0
   -9.3322   35.3338  -17.8015 O   0  0  0  0  0  0  0  0  0  0  0  0
   -4.2333   34.2222  -12.0582 O   0  0  0  0  0  0  0  0  0  0  0  0
   -9.3132   34.9728  -14.0329 C   0  0  0  0  0  0  0  0  0  0  0  0
   -6.0196   36.2259  -13.9459 C   0  0  0  0  0  0  0  0  0  0  0  0
   -8.7967   34.7450  -15.3511 O   0  0  0  0  0  0  0  0  0  0  0  0
   -5.4669   34.9554  -14.3919 O   0  0  0  0  0  0  0  0  0  0  0  0
   -8.9765   33.7941  -13.1259 C   0  0  1  0  0  0  0  0  0  0  0  0
   -6.0190   37.1723  -15.2052 C   0  0  1  0  0  0  0  0  0  0  0  0
   -9.8860   32.8842  -13.2911 O   0  0  0  0  0  0  0  0  0  0  0  0
   -4.8374   37.1108  -15.6678 O   0  0  0  0  0  0  0  0  0  0  0  0
   -7.6512   33.1470  -13.4563 C   0  0  1  0  0  0  0  0  0  0  0  0
   -6.8594   36.5697  -16.3487 C   0  0  1  0  0  0  0  0  0  0  0  0
   -6.7502   33.6251  -12.5575 O   0  0  0  0  0  0  0  0  0  0  0  0
   -8.0652   37.1462  -16.4243 O   0  0  0  0  0  0  0  0  0  0  0  0
   -7.9136   31.6211  -13.2055 C   0  0  1  0  0  0  0  0  0  0  0  0
   -6.0578   36.7771  -17.6539 C   0  0  1  0  0  0  0  0  0  0  0  0
   -7.3411   31.2129  -11.8944 O   0  0  0  0  0  0  0  0  0  0  0  0
   -6.6199   37.9234  -18.4383 O   0  0  0  0  0  0  0  0  0  0  0  0
   -9.1975   31.4576  -13.2236 C   0  0  2  0  0  0  0  0  0  0  0  0
   -4.8621   37.0635  -17.2674 C   0  0  2  0  0  0  0  0  0  0  0  0
  -10.8003   26.9490  -15.6578 N   0  0  0  0  0  0  0  0  0  0  0  0
  -10.5946   27.0994  -14.3190 C   0  0  0  0  0  0  0  0  0  0  0  0
  -10.1846   28.2983  -13.7937 N   0  0  0  0  0  0  0  0  0  0  0  0
   -9.9783   29.3559  -14.6358 C   0  0  0  0  0  0  0  0  0  0  0  0
  -10.1695   29.2214  -15.9555 C   0  0  0  0  0  0  0  0  0  0  0  0
  -10.5953   28.0022  -16.4801 C   0  0  0  0  0  0  0  0  0  0  0  0
  -10.8322   27.7306  -17.8421 N   0  0  0  0  0  0  0  0  0  0  0  0
   -9.9001   30.4100  -16.5359 N   0  0  0  0  0  0  0  0  0  0  0  0
   -9.5315   31.2815  -15.5542 C   0  0  0  0  0  0  0  0  0  0  0  0
   -9.5957   30.6390  -14.3806 N   0  0  0  0  0  0  0  0  0  0  0  0
   -0.9342   35.8641  -20.4695 N   0  0  0  0  0  0  0  0  0  0  0  0
   -1.6289   37.0313  -20.4346 C   0  0  0  0  0  0  0  0  0  0  0  0
   -2.6436   37.1859  -19.5324 N   0  0  0  0  0  0  0  0  0  0  0  0
   -2.9531   36.1801  -18.6704 C   0  0  0  0  0  0  0  0  0  0  0  0
   -2.2651   35.0208  -18.6963 C   0  0  0  0  0  0  0  0  0  0  0  0
   -1.2358   34.8703  -19.6210 C   0  0  0  0  0  0  0  0  0  0  0  0
   -0.3905   33.7240  -19.8366 N   0  0  0  0  0  0  0  0  0  0  0  0
   -2.7900   34.2168  -17.7407 N   0  0  0  0  0  0  0  0  0  0  0  0
   -3.8017   34.8913  -17.1232 C   0  0  0  0  0  0  0  0  0  0  0  0
   -3.8926   36.1052  -17.7031 N   0  0  0  0  0  0  0  0  0  0  0  0
  1  3  1  1  0  0  0
  1  5  2  0  0  0  0
  1  9  1  0  0  0  0
  1 18  1  0  0  0  0
  2  4  1  6  0  0  0
  2  6  2  0  0  0  0
  2 10  1  0  0  0  0
  2 17  1  0  0  0  0
  7  9  1  0  0  0  0
  8 10  1  0  0  0  0
 11  7  1  6  0  0  0
 11 13  1  0  0  0  0
 11 15  1  0  0  0  0
 12  8  1  1  0  0  0
 12 14  1  0  0  0  0
 12 16  1  0  0  0  0
 13 23  1  0  0  0  0
 14 24  1  0  0  0  0
 15 17  1  1  0  0  0
 15 19  1  0  0  0  0
 16 18  1  6  0  0  0
 16 20  1  0  0  0  0
 19 21  1  1  0  0  0
 19 23  1  0  0  0  0
 20 22  1  1  0  0  0
 20 24  1  0  0  0  0
 23 34  1  6  0  0  0
 24 44  1  1  0  0  0
 25 26  2  0  0  0  0
 25 30  1  0  0  0  0
 26 27  1  0  0  0  0
 27 28  2  0  0  0  0
 28 29  1  0  0  0  0
 28 34  1  0  0  0  0
 29 30  2  0  0  0  0
 29 32  1  0  0  0  0
 30 31  1  0  0  0  0
 32 33  2  0  0  0  0
 33 34  1  0  0  0  0
 35 36  2  0  0  0  0
 35 40  1  0  0  0  0
 36 37  1  0  0  0  0
 37 38  2  0  0  0  0
 38 39  1  0  0  0  0
 38 44  1  0  0  0  0
 39 40  2  0  0  0  0
 39 42  1  0  0  0  0
 40 41  1  0  0  0  0
 42 43  2  0  0  0  0
 43 44  1  0  0  0  0
M  CHG  2   3  -1   4  -1
M  END
>  <CHROM.1>
-137.05332270,-133.87554983,-6.83279987,33.79314472,-15.77551531,0.52851117
0.68148939,0.30338302

>  <Name>
ligand

>  <RI>
0

>  <Rbt.Current_Directory>
/home/itssahil/PROJECTS/Mol_Feturizer/New_Systems/rnas/4QLM

>  <Rbt.Executable>
rbdock ($Id: //depot/dev/client3/rdock/2013.1/src/exe/rbdock.cxx#4 $)

>  <Rbt.Library>
libRbt.so (2013.1, Build901 2013/11/27)

>  <Rbt.Parameter_File>
/export/apps/rDock/src/rDock_2013.1_src/data/scripts/dock_solv.prm

>  <Rbt.Receptor>
prm/pocket_docking_2.prm

>  <SCORE>
-18.317

>  <SCORE.INTER>
-18.8075

>  <SCORE.INTER.CONST>
1

>  <SCORE.INTER.POLAR>
0

>  <SCORE.INTER.ROT>
2

>  <SCORE.INTER.SOLV>
38.2889

>  <SCORE.INTER.VDW>
-30.2346

>  <SCORE.INTER.norm>
-0.427444

>  <SCORE.INTRA>
0.0439332

>  <SCORE.INTRA.DIHEDRAL>
0.00187375

>  <SCORE.INTRA.DIHEDRAL.0>
2.32994

>  <SCORE.INTRA.POLAR>
0

>  <SCORE.INTRA.POLAR.0>
0

>  <SCORE.INTRA.REPUL>
0

>  <SCORE.INTRA.REPUL.0>
0

>  <SCORE.INTRA.SOLV>
-0.000971605

>  <SCORE.INTRA.SOLV.lig_0>
-117.703

>  <SCORE.INTRA.VDW>
0.0434821

>  <SCORE.INTRA.VDW.0>
-1.59997

>  <SCORE.INTRA.norm>
0.000998482

>  <SCORE.RESTR>
0.446581

>  <SCORE.RESTR.CAVITY>
0.446581

>  <SCORE.RESTR.norm>
0.0101496

>  <SCORE.SYSTEM>
0

>  <SCORE.SYSTEM.CONST>
0

>  <SCORE.SYSTEM.DIHEDRAL>
0

>  <SCORE.SYSTEM.SOLV>
0

>  <SCORE.SYSTEM.norm>
0

>  <SCORE.heavy>
44

>  <SCORE.norm>
-0.416296

>  <RMSD>
0.924

$$$$
ligand
 OpenBabel11021811513D
libRbt.so/2013.1/901 2013/11/27
 44 50  0  0  0  0  0  0  0  0999 V2000
   -6.5153   34.2029  -12.7756 P   0  0  2  0  0  0  0  0  0  0  0  0
  -10.1235   35.2821  -16.6514 P   0  0  1  0  0  0  0  0  0  0  0  0
   -5.9330   35.2061  -11.7831 O   0  5  0  0  0  0  0  0  0  0  0  0
   -9.6296   34.5275  -17.8617 O   0  5  0  0  0  0  0  0  0  0  0  0
   -5.4876   33.1055  -12.9140 O   0  0  0  0  0  0  0  0  0  0  0  0
  -11.5693   35.7389  -16.9512 O   0  0  0  0  0  0  0  0  0  0  0  0
   -7.0369   36.4142  -13.9067 C   0  0  0  0  0  0  0  0  0  0  0  0
  -10.1935   34.8581  -14.1051 C   0  0  0  0  0  0  0  0  0  0  0  0
   -6.7507   35.0207  -14.0865 O   0  0  0  0  0  0  0  0  0  0  0  0
   -9.8754   34.2550  -15.3911 O   0  0  0  0  0  0  0  0  0  0  0  0
   -7.1966   37.0968  -15.2610 C   0  0  1  0  0  0  0  0  0  0  0  0
  -10.0388   33.7147  -13.0326 C   0  0  1  0  0  0  0  0  0  0  0  0
   -6.0174   37.4262  -15.6891 O   0  0  0  0  0  0  0  0  0  0  0  0
  -10.7285   32.7449  -13.4775 O   0  0  0  0  0  0  0  0  0  0  0  0
   -7.8043   36.1983  -16.3134 C   0  0  1  0  0  0  0  0  0  0  0  0
   -8.6079   33.1408  -13.0402 C   0  0  1  0  0  0  0  0  0  0  0  0
   -9.1190   36.5338  -16.3991 O   0  0  0  0  0  0  0  0  0  0  0  0
   -7.8809   33.6290  -12.0278 O   0  0  0  0  0  0  0  0  0  0  0  0
   -7.0509   36.6076  -17.6268 C   0  0  1  0  0  0  0  0  0  0  0  0
   -8.7389   31.6037  -12.9441 C   0  0  1  0  0  0  0  0  0  0  0  0
   -7.9099   37.4990  -18.4520 O   0  0  0  0  0  0  0  0  0  0  0  0
   -8.4440   31.1381  -11.5508 O   0  0  0  0  0  0  0  0  0  0  0  0
   -5.9681   37.2146  -17.2596 C   0  0  2  0  0  0  0  0  0  0  0  0
   -9.9711   31.3568  -13.2301 C   0  0  2  0  0  0  0  0  0  0  0  0
   -1.3311   36.3415  -19.8203 N   0  0  0  0  0  0  0  0  0  0  0  0
   -2.0622   37.4905  -19.8698 C   0  0  0  0  0  0  0  0  0  0  0  0
   -3.2383   37.6145  -19.1749 N   0  0  0  0  0  0  0  0  0  0  0  0
   -3.6794   36.5605  -18.4235 C   0  0  0  0  0  0  0  0  0  0  0  0
   -2.9750   35.4214  -18.3707 C   0  0  0  0  0  0  0  0  0  0  0  0
   -1.7761   35.3071  -19.0723 C   0  0  0  0  0  0  0  0  0  0  0  0
   -0.9447   34.1700  -19.1002 N   0  0  0  0  0  0  0  0  0  0  0  0
   -3.6336   34.5649  -17.5614 N   0  0  0  0  0  0  0  0  0  0  0  0
   -4.7619   35.1899  -17.1194 C   0  0  0  0  0  0  0  0  0  0  0  0
   -4.7834   36.4258  -17.6354 N   0  0  0  0  0  0  0  0  0  0  0  0
  -10.9045   26.6731  -15.3067 N   0  0  0  0  0  0  0  0  0  0  0  0
  -10.8489   26.9812  -13.9844 C   0  0  0  0  0  0  0  0  0  0  0  0
  -10.5843   28.2660  -13.6015 N   0  0  0  0  0  0  0  0  0  0  0  0
  -10.3833   29.2324  -14.5376 C   0  0  0  0  0  0  0  0  0  0  0  0
  -10.4416   28.9349  -15.8515 C   0  0  0  0  0  0  0  0  0  0  0  0
  -10.7077   27.6229  -16.2326 C   0  0  0  0  0  0  0  0  0  0  0  0
  -10.7964   27.0813  -17.5645 N   0  0  0  0  0  0  0  0  0  0  0  0
  -10.2019   30.0786  -16.5367 N   0  0  0  0  0  0  0  0  0  0  0  0
  -10.0014   31.0825  -15.6358 C   0  0  0  0  0  0  0  0  0  0  0  0
  -10.1186   30.5498  -14.4027 N   0  0  0  0  0  0  0  0  0  0  0  0
  1  3  1  1  0  0  0
  1  5  2  0  0  0  0
  1  9  1  0  0  0  0
  1 18  1  0  0  0  0
  2  4  1  6  0  0  0
  2  6  2  0  0  0  0
  2 10  1  0  0  0  0
  2 17  1  0  0  0  0
  7  9  1  0  0  0  0
  8 10  1  0  0  0  0
 11  7  1  1  0  0  0
 11 13  1  0  0  0  0
 11 15  1  0  0  0  0
 12  8  1  6  0  0  0
 12 14  1  0  0  0  0
 12 16  1  0  0  0  0
 13 23  1  0  0  0  0
 14 24  1  0  0  0  0
 15 17  1  6  0  0  0
 15 19  1  0  0  0  0
 16 18  1  1  0  0  0
 16 20  1  0  0  0  0
 19 21  1  6  0  0  0
 19 23  1  0  0  0  0
 20 22  1  1  0  0  0
 20 24  1  0  0  0  0
 23 34  1  1  0  0  0
 24 44  1  6  0  0  0
 25 26  2  0  0  0  0
 25 30  1  0  0  0  0
 26 27  1  0  0  0  0
 27 28  2  0  0  0  0
 28 29  1  0  0  0  0
 28 34  1  0  0  0  0
 29 30  2  0  0  0  0
 29 32  1  0  0  0  0
 30 31  1  0  0  0  0
 32 33  2  0  0  0  0
 33 34  1  0  0  0  0
 35 36  2  0  0  0  0
 35 40  1  0  0  0  0
 36 37  1  0  0  0  0
 37 38  2  0  0  0  0
 38 39  1  0  0  0  0
 38 44  1  0  0  0  0
 39 40  2  0  0  0  0
 39 42  1  0  0  0  0
 40 41  1  0  0  0  0
 42 43  2  0  0  0  0
 43 44  1  0  0  0  0
M  CHG  2   3  -1   4  -1
M  END
>  <CHROM.1>
-121.29018508,-137.80555447,-7.64635353,33.76421837,-15.62238271,0.50104361
0.75127136,0.40767108

>  <Name>
ligand

>  <RI>
0

>  <Rbt.Current_Directory>
/home/itssahil/PROJECTS/Mol_Feturizer/New_Systems/rnas/4QLM

>  <Rbt.Executable>
rbdock ($Id: //depot/dev/client3/rdock/2013.1/src/exe/rbdock.cxx#4 $)

>  <Rbt.Library>
libRbt.so (2013.1, Build901 2013/11/27)

>  <Rbt.Parameter_File>
/export/apps/rDock/src/rDock_2013.1_src/data/scripts/dock_solv.prm

>  <Rbt.Receptor>
prm/pocket_docking_3.prm

>  <SCORE>
-16.0408

>  <SCORE.INTER>
-16.6452

>  <SCORE.INTER.CONST>
1

>  <SCORE.INTER.POLAR>
0

>  <SCORE.INTER.ROT>
2

>  <SCORE.INTER.SOLV>
35.1415

>  <SCORE.INTER.VDW>
-27.744

>  <SCORE.INTER.norm>
-0.378301

>  <SCORE.INTRA>
0.604417

>  <SCORE.INTRA.DIHEDRAL>
0.0809117

>  <SCORE.INTRA.DIHEDRAL.0>
2.32994

>  <SCORE.INTRA.POLAR>
0

>  <SCORE.INTRA.POLAR.0>
0

>  <SCORE.INTRA.REPUL>
0

>  <SCORE.INTRA.REPUL.0>
0

>  <SCORE.INTRA.SOLV>
-0.00226568

>  <SCORE.INTRA.SOLV.lig_0>
-117.703

>  <SCORE.INTRA.VDW>
0.565094

>  <SCORE.INTRA.VDW.0>
-1.59997

>  <SCORE.INTRA.norm>
0.0137367

>  <SCORE.RESTR>
0

>  <SCORE.RESTR.CAVITY>
0

>  <SCORE.RESTR.norm>
0

>  <SCORE.SYSTEM>
0

>  <SCORE.SYSTEM.CONST>
0

>  <SCORE.SYSTEM.DIHEDRAL>
0

>  <SCORE.SYSTEM.SOLV>
0

>  <SCORE.SYSTEM.norm>
0

>  <SCORE.heavy>
44

>  <SCORE.norm>
-0.364564

>  <RMSD>
0.924

$$$$
ligand
 OpenBabel11021811513D
libRbt.so/2013.1/901 2013/11/27
 44 50  0  0  0  0  0  0  0  0999 V2000
   -4.9964   35.1753  -12.7100 P   0  0  2  0  0  0  0  0  0  0  0  0
   -8.4927   36.3343  -16.6646 P   0  0  1  0  0  0  0  0  0  0  0  0
   -4.3274   36.1809  -11.7765 O   0  5  0  0  0  0  0  0  0  0  0  0
   -8.0676   35.4669  -17.8243 O   0  5  0  0  0  0  0  0  0  0  0  0
   -4.0707   33.9844  -12.7760 O   0  0  0  0  0  0  0  0  0  0  0  0
   -9.8919   36.8989  -16.9998 O   0  0  0  0  0  0  0  0  0  0  0  0
   -5.3185   37.3516  -13.9754 C   0  0  0  0  0  0  0  0  0  0  0  0
   -8.6012   36.0733  -14.0978 C   0  0  0  0  0  0  0  0  0  0  0  0
   -5.1575   35.9298  -14.0692 O   0  0  0  0  0  0  0  0  0  0  0  0
   -8.3376   35.3675  -15.3432 O   0  0  0  0  0  0  0  0  0  0  0  0
   -5.4162   37.9624  -15.3693 C   0  0  1  0  0  0  0  0  0  0  0  0
   -8.5494   34.9877  -12.9574 C   0  0  1  0  0  0  0  0  0  0  0  0
   -4.2121   38.1591  -15.8097 O   0  0  0  0  0  0  0  0  0  0  0  0
   -9.3226   34.0580  -13.3470 O   0  0  0  0  0  0  0  0  0  0  0  0
   -6.1012   37.0594  -16.3691 C   0  0  1  0  0  0  0  0  0  0  0  0
   -7.1753   34.2895  -12.9222 C   0  0  1  0  0  0  0  0  0  0  0  0
   -7.3807   37.5047  -16.4825 O   0  0  0  0  0  0  0  0  0  0  0  0
   -6.4081   34.7714  -11.9369 O   0  0  0  0  0  0  0  0  0  0  0  0
   -5.3138   37.3197  -17.7005 C   0  0  1  0  0  0  0  0  0  0  0  0
   -7.4429   32.7787  -12.7343 C   0  0  1  0  0  0  0  0  0  0  0  0
   -6.0897   38.2324  -18.5828 O   0  0  0  0  0  0  0  0  0  0  0  0
   -7.1911   32.3740  -11.3138 O   0  0  0  0  0  0  0  0  0  0  0  0
   -4.1814   37.8491  -17.3642 C   0  0  2  0  0  0  0  0  0  0  0  0
   -8.6921   32.6255  -13.0120 C   0  0  2  0  0  0  0  0  0  0  0  0
   -0.3615   35.7718  -20.5129 N   0  0  0  0  0  0  0  0  0  0  0  0
   -1.1908   36.8014  -20.8434 C   0  0  0  0  0  0  0  0  0  0  0  0
   -2.1373   37.2615  -19.9636 N   0  0  0  0  0  0  0  0  0  0  0  0
   -2.2458   36.6689  -18.7359 C   0  0  0  0  0  0  0  0  0  0  0  0
   -1.4421   35.6505  -18.3992 C   0  0  0  0  0  0  0  0  0  0  0  0
   -0.4766   35.1954  -19.2955 C   0  0  0  0  0  0  0  0  0  0  0  0
    0.4263   34.1386  -19.0654 N   0  0  0  0  0  0  0  0  0  0  0  0
   -1.7627   35.2677  -17.1451 N   0  0  0  0  0  0  0  0  0  0  0  0
   -2.7838   36.0612  -16.7130 C   0  0  0  0  0  0  0  0  0  0  0  0
   -3.0715   36.9368  -17.6850 N   0  0  0  0  0  0  0  0  0  0  0  0
  -10.1728   27.9696  -14.8147 N   0  0  0  0  0  0  0  0  0  0  0  0
  -10.1153   28.3585  -13.5140 C   0  0  0  0  0  0  0  0  0  0  0  0
   -9.6953   29.6217  -13.2054 N   0  0  0  0  0  0  0  0  0  0  0  0
   -9.3421   30.4870  -14.1938 C   0  0  0  0  0  0  0  0  0  0  0  0
   -9.4010   30.1095  -15.4870 C   0  0  0  0  0  0  0  0  0  0  0  0
   -9.8261   28.8198  -15.7922 C   0  0  0  0  0  0  0  0  0  0  0  0
   -9.9468   28.2034  -17.0885 N   0  0  0  0  0  0  0  0  0  0  0  0
   -8.9934   31.1625  -16.2353 N   0  0  0  0  0  0  0  0  0  0  0  0
   -8.6887   32.1920  -15.3943 C   0  0  0  0  0  0  0  0  0  0  0  0
   -8.9105   31.7653  -14.1346 N   0  0  0  0  0  0  0  0  0  0  0  0
  1  3  1  1  0  0  0
  1  5  2  0  0  0  0
  1  9  1  0  0  0  0
  1 18  1  0  0  0  0
  2  4  1  6  0  0  0
  2  6  2  0  0  0  0
  2 10  1  0  0  0  0
  2 17  1  0  0  0  0
  7  9  1  0  0  0  0
  8 10  1  0  0  0  0
 11  7  1  1  0  0  0
 11 13  1  0  0  0  0
 11 15  1  0  0  0  0
 12  8  1  6  0  0  0
 12 14  1  0  0  0  0
 12 16  1  0  0  0  0
 13 23  1  0  0  0  0
 14 24  1  0  0  0  0
 15 17  1  6  0  0  0
 15 19  1  0  0  0  0
 16 18  1  1  0  0  0
 16 20  1  0  0  0  0
 19 21  1  6  0  0  0
 19 23  1  0  0  0  0
 20 22  1  1  0  0  0
 20 24  1  0  0  0  0
 23 34  1  1  0  0  0
 24 44  1  6  0  0  0
 25 26  2  0  0  0  0
 25 30  1  0  0  0  0
 26 27  1  0  0  0  0
 27 28  2  0  0  0  0
 28 29  1  0  0  0  0
 28 34  1  0  0  0  0
 29 30  2  0  0  0  0
 29 32  1  0  0  0  0
 30 31  1  0  0  0  0
 32 33  2  0  0  0  0
 33 34  1  0  0  0  0
 35 36  2  0  0  0  0
 35 40  1  0  0  0  0
 36 37  1  0  0  0  0
 37 38  2  0  0  0  0
 38 39  1  0  0  0  0
 38 44  1  0  0  0  0
 39 40  2  0  0  0  0
 39 42  1  0  0  0  0
 40 41  1  0  0  0  0
 42 43  2  0  0  0  0
 43 44  1  0  0  0  0
M  CHG  2   3  -1   4  -1
M  END
>  <CHROM.1>
-151.00210426,-134.83204327,-6.22064271,34.62591748,-15.57556511,2.90521285
-0.78420934,-2.52805521

>  <Name>
ligand

>  <RI>
0

>  <Rbt.Current_Directory>
/home/itssahil/PROJECTS/Mol_Feturizer/New_Systems/rnas/4QLM

>  <Rbt.Executable>
rbdock ($Id: //depot/dev/client3/rdock/2013.1/src/exe/rbdock.cxx#4 $)

>  <Rbt.Library>
libRbt.so (2013.1, Build901 2013/11/27)

>  <Rbt.Parameter_File>
/export/apps/rDock/src/rDock_2013.1_src/data/scripts/dock_solv.prm

>  <Rbt.Receptor>
prm/pocket_docking_3.prm

>  <SCORE>
-22.4532

>  <SCORE.INTER>
-22.385

>  <SCORE.INTER.CONST>
1

>  <SCORE.INTER.POLAR>
0

>  <SCORE.INTER.ROT>
2

>  <SCORE.INTER.SOLV>
33.8938

>  <SCORE.INTER.VDW>
-31.1546

>  <SCORE.INTER.norm>
-0.508749

>  <SCORE.INTRA>
-0.085071

>  <SCORE.INTRA.DIHEDRAL>
-0.0268406

>  <SCORE.INTRA.DIHEDRAL.0>
2.32994

>  <SCORE.INTRA.POLAR>
0

>  <SCORE.INTRA.POLAR.0>
0

>  <SCORE.INTRA.REPUL>
0

>  <SCORE.INTRA.REPUL.0>
0

>  <SCORE.INTRA.SOLV>
0.00211736

>  <SCORE.INTRA.SOLV.lig_0>
-117.703

>  <SCORE.INTRA.VDW>
-0.0727094

>  <SCORE.INTRA.VDW.0>
-1.59997

>  <SCORE.INTRA.norm>
-0.00193343

>  <SCORE.RESTR>
0.0168222

>  <SCORE.RESTR.CAVITY>
0.0168222

>  <SCORE.RESTR.norm>
0.000382322

>  <SCORE.SYSTEM>
0

>  <SCORE.SYSTEM.CONST>
0

>  <SCORE.SYSTEM.DIHEDRAL>
0

>  <SCORE.SYSTEM.SOLV>
0

>  <SCORE.SYSTEM.norm>
0

>  <SCORE.heavy>
44

>  <SCORE.norm>
-0.5103

>  <RMSD>
0.926

$$$$
ligand
 OpenBabel11021811513D
libRbt.so/2013.1/901 2013/11/27
 44 50  0  0  0  0  0  0  0  0999 V2000
   -4.9824   35.1732  -12.7081 P   0  0  2  0  0  0  0  0  0  0  0  0
   -8.4986   36.3283  -16.6462 P   0  0  1  0  0  0  0  0  0  0  0  0
   -4.3141   36.1791  -11.7744 O   0  5  0  0  0  0  0  0  0  0  0  0
   -8.0742   35.4658  -17.8099 O   0  5  0  0  0  0  0  0  0  0  0  0
   -4.0519   33.9864  -12.7809 O   0  0  0  0  0  0  0  0  0  0  0  0
   -9.9014   36.8879  -16.9744 O   0  0  0  0  0  0  0  0  0  0  0  0
   -5.3184   37.3516  -13.9662 C   0  0  0  0  0  0  0  0  0  0  0  0
   -8.5962   36.0597  -14.0797 C   0  0  0  0  0  0  0  0  0  0  0  0
   -5.1519   35.9307  -14.0646 O   0  0  0  0  0  0  0  0  0  0  0  0
   -8.3344   35.3585  -15.3281 O   0  0  0  0  0  0  0  0  0  0  0  0
   -5.4240   37.9657  -15.3581 C   0  0  1  0  0  0  0  0  0  0  0  0
   -8.5355   34.9713  -12.9425 C   0  0  1  0  0  0  0  0  0  0  0  0
   -4.2225   38.1687  -15.8025 O   0  0  0  0  0  0  0  0  0  0  0  0
   -9.3063   34.0394  -13.3317 O   0  0  0  0  0  0  0  0  0  0  0  0
   -6.1090   37.0626  -16.3578 C   0  0  1  0  0  0  0  0  0  0  0  0
   -7.1583   34.2788  -12.9145 C   0  0  1  0  0  0  0  0  0  0  0  0
   -7.3908   37.5028  -16.4651 O   0  0  0  0  0  0  0  0  0  0  0  0
   -6.3894   34.7613  -11.9307 O   0  0  0  0  0  0  0  0  0  0  0  0
   -5.3279   37.3299  -17.6914 C   0  0  1  0  0  0  0  0  0  0  0  0
   -7.4188   32.7664  -12.7297 C   0  0  1  0  0  0  0  0  0  0  0  0
   -6.1109   38.2417  -18.5682 O   0  0  0  0  0  0  0  0  0  0  0  0
   -7.1599   32.3588  -11.3112 O   0  0  0  0  0  0  0  0  0  0  0  0
   -4.1964   37.8632  -17.3580 C   0  0  2  0  0  0  0  0  0  0  0  0
   -8.6684   32.6087  -13.0030 C   0  0  2  0  0  0  0  0  0  0  0  0
   -0.3596   35.8315  -20.5159 N   0  0  0  0  0  0  0  0  0  0  0  0
   -1.1887   36.8643  -20.8368 C   0  0  0  0  0  0  0  0  0  0  0  0
   -2.1398   37.3117  -19.9554 N   0  0  0  0  0  0  0  0  0  0  0  0
   -2.2531   36.7032  -18.7360 C   0  0  0  0  0  0  0  0  0  0  0  0
   -1.4497   35.6815  -18.4089 C   0  0  0  0  0  0  0  0  0  0  0  0
   -0.4795   35.2392  -19.3066 C   0  0  0  0  0  0  0  0  0  0  0  0
    0.4236   34.1806  -19.0860 N   0  0  0  0  0  0  0  0  0  0  0  0
   -1.7755   35.2820  -17.1613 N   0  0  0  0  0  0  0  0  0  0  0  0
   -2.7996   36.0686  -16.7236 C   0  0  0  0  0  0  0  0  0  0  0  0
   -3.0839   36.9564  -17.6855 N   0  0  0  0  0  0  0  0  0  0  0  0
  -10.2048   27.9756  -14.8180 N   0  0  0  0  0  0  0  0  0  0  0  0
  -10.1567   28.3654  -13.5172 C   0  0  0  0  0  0  0  0  0  0  0  0
   -9.7194   29.6218  -13.2050 N   0  0  0  0  0  0  0  0  0  0  0  0
   -9.3397   30.4796  -14.1901 C   0  0  0  0  0  0  0  0  0  0  0  0
   -9.3891   30.1013  -15.4834 C   0  0  0  0  0  0  0  0  0  0  0  0
   -9.8321   28.8184  -15.7922 C   0  0  0  0  0  0  0  0  0  0  0  0
   -9.9472   28.2023  -17.0892 N   0  0  0  0  0  0  0  0  0  0  0  0
   -8.9548   31.1463  -16.2280 N   0  0  0  0  0  0  0  0  0  0  0  0
   -8.6432   32.1717  -15.3846 C   0  0  0  0  0  0  0  0  0  0  0  0
   -8.8875   31.7506  -14.1272 N   0  0  0  0  0  0  0  0  0  0  0  0
  1  3  1  1  0  0  0
  1  5  2  0  0  0  0
  1  9  1  0  0  0  0
  1 18  1  0  0  0  0
  2  4  1  6  0  0  0
  2  6  2  0  0  0  0
  2 10  1  0  0  0  0
  2 17  1  0  0  0  0
  7  9  1  0  0  0  0
  8 10  1  0  0  0  0
 11  7  1  1  0  0  0
 11 13  1  0  0  0  0
 11 15  1  0  0  0  0
 12  8  1  6  0  0  0
 12 14  1  0  0  0  0
 12 16  1  0  0  0  0
 13 23  1  0  0  0  0
 14 24  1  0  0  0  0
 15 17  1  6  0  0  0
 15 19  1  0  0  0  0
 16 18  1  1  0  0  0
 16 20  1  0  0  0  0
 19 21  1  6  0  0  0
 19 23  1  0  0  0  0
 20 22  1  1  0  0  0
 20 24  1  0  0  0  0
 23 34  1  1  0  0  0
 24 44  1  6  0  0  0
 25 26  2  0  0  0  0
 25 30  1  0  0  0  0
 26 27  1  0  0  0  0
 27 28  2  0  0  0  0
 28 29  1  0  0  0  0
 28 34  1  0  0  0  0
 29 30  2  0  0  0  0
 29 32  1  0  0  0  0
 30 31  1  0  0  0  0
 32 33  2  0  0  0  0
 33 34  1  0  0  0  0
 35 36  2  0  0  0  0
 35 40  1  0  0  0  0
 36 37  1  0  0  0  0
 37 38  2  0  0  0  0
 38 39  1  0  0  0  0
 38 44  1  0  0  0  0
 39 40  2  0  0  0  0
 39 42  1  0  0  0  0
 40 41  1  0  0  0  0
 42 43  2  0  0  0  0
 43 44  1  0  0  0  0
M  CHG  2   3  -1   4  -1
M  END
>  <CHROM.1>
-150.22562254,-133.30216852,-6.21910796,34.62979312,-15.57019837,2.91425705
-0.78901024,-2.51163484

>  <Name>
ligand

>  <RI>
0

>  <Rbt.Current_Directory>
/home/itssahil/PROJECTS/Mol_Feturizer/New_Systems/rnas/4QLM

>  <Rbt.Executable>
rbdock ($Id: //depot/dev/client3/rdock/2013.1/src/exe/rbdock.cxx#4 $)

>  <Rbt.Library>
libRbt.so (2013.1, Build901 2013/11/27)

>  <Rbt.Parameter_File>
/export/apps/rDock/src/rDock_2013.1_src/data/scripts/dock_solv.prm

>  <Rbt.Receptor>
prm/pocket_docking_3.prm

>  <SCORE>
-22.3362

>  <SCORE.INTER>
-22.2758

>  <SCORE.INTER.CONST>
1

>  <SCORE.INTER.POLAR>
0

>  <SCORE.INTER.ROT>
2

>  <SCORE.INTER.SOLV>
33.8198

>  <SCORE.INTER.VDW>
-31.0571

>  <SCORE.INTER.norm>
-0.506267

>  <SCORE.INTRA>
-0.0777347

>  <SCORE.INTRA.DIHEDRAL>
-0.0272453

>  <SCORE.INTRA.DIHEDRAL.0>
2.32994

>  <SCORE.INTRA.POLAR>
0

>  <SCORE.INTRA.POLAR.0>
0

>  <SCORE.INTRA.REPUL>
0

>  <SCORE.INTRA.REPUL.0>
0

>  <SCORE.INTRA.SOLV>
0.00180484

>  <SCORE.INTRA.SOLV.lig_0>
-117.703

>  <SCORE.INTRA.VDW>
-0.0650144

>  <SCORE.INTRA.VDW.0>
-1.59997

>  <SCORE.INTRA.norm>
-0.0017667

>  <SCORE.RESTR>
0.0173269

>  <SCORE.RESTR.CAVITY>
0.0173269

>  <SCORE.RESTR.norm>
0.000393792

>  <SCORE.SYSTEM>
0

>  <SCORE.SYSTEM.CONST>
0

>  <SCORE.SYSTEM.DIHEDRAL>
0

>  <SCORE.SYSTEM.SOLV>
0

>  <SCORE.SYSTEM.norm>
0

>  <SCORE.heavy>
44

>  <SCORE.norm>
-0.50764

>  <RMSD>
0.928

$$$$
ligand
 OpenBabel11021811513D
libRbt.so/2013.1/901 2013/11/27
 44 50  0  0  0  0  0  0  0  0999 V2000
   -9.1011   35.8156  -16.4474 P   0  0  2  0  0  0  0  0  0  0  0  0
   -5.3125   33.8318  -13.1434 P   0  0  1  0  0  0  0  0  0  0  0  0
  -10.4337   36.4284  -16.0240 O   0  5  0  0  0  0  0  0  0  0  0  0
   -4.8562   32.5522  -13.8010 O   0  5  0  0  0  0  0  0  0  0  0  0
   -9.3090   35.2855  -17.8457 O   0  0  0  0  0  0  0  0  0  0  0  0
   -4.2936   34.1671  -12.0305 O   0  0  0  0  0  0  0  0  0  0  0  0
   -9.3415   34.9463  -14.0751 C   0  0  0  0  0  0  0  0  0  0  0  0
   -6.0395   36.1738  -13.9525 C   0  0  0  0  0  0  0  0  0  0  0  0
   -8.8099   34.7068  -15.3852 O   0  0  0  0  0  0  0  0  0  0  0  0
   -5.4911   34.8965  -14.3841 O   0  0  0  0  0  0  0  0  0  0  0  0
   -9.0259   33.7702  -13.1571 C   0  0  1  0  0  0  0  0  0  0  0  0
   -6.0151   37.1129  -15.2171 C   0  0  1  0  0  0  0  0  0  0  0  0
   -9.9404   32.8665  -13.3290 O   0  0  0  0  0  0  0  0  0  0  0  0
   -4.8281   37.0394  -15.6640 O   0  0  0  0  0  0  0  0  0  0  0  0
   -7.7017   33.1108  -13.4667 C   0  0  1  0  0  0  0  0  0  0  0  0
   -6.8454   36.5103  -16.3680 C   0  0  1  0  0  0  0  0  0  0  0  0
   -6.8086   33.5870  -12.5590 O   0  0  0  0  0  0  0  0  0  0  0  0
   -8.0455   37.0959  -16.4625 O   0  0  0  0  0  0  0  0  0  0  0  0
   -7.9794   31.5885  -13.2107 C   0  0  1  0  0  0  0  0  0  0  0  0
   -6.0253   36.7039  -17.6638 C   0  0  1  0  0  0  0  0  0  0  0  0
   -7.4271   31.1834  -11.8899 O   0  0  0  0  0  0  0  0  0  0  0  0
   -6.5681   37.8500  -18.4620 O   0  0  0  0  0  0  0  0  0  0  0  0
   -9.2643   31.4350  -13.2445 C   0  0  2  0  0  0  0  0  0  0  0  0
   -4.8325   36.9830  -17.2635 C   0  0  2  0  0  0  0  0  0  0  0  0
  -10.8456   26.9180  -15.6770 N   0  0  0  0  0  0  0  0  0  0  0  0
  -10.6486   27.0721  -14.3374 C   0  0  0  0  0  0  0  0  0  0  0  0
  -10.2436   28.2729  -13.8126 N   0  0  0  0  0  0  0  0  0  0  0  0
  -10.0333   29.3286  -14.6561 C   0  0  0  0  0  0  0  0  0  0  0  0
  -10.2158   29.1904  -15.9767 C   0  0  0  0  0  0  0  0  0  0  0  0
  -10.6367   27.9693  -16.5008 C   0  0  0  0  0  0  0  0  0  0  0  0
  -10.8645   27.6939  -17.8636 N   0  0  0  0  0  0  0  0  0  0  0  0
   -9.9442   30.3778  -16.5584 N   0  0  0  0  0  0  0  0  0  0  0  0
   -9.5830   31.2524  -15.5766 C   0  0  0  0  0  0  0  0  0  0  0  0
   -9.6540   30.6129  -14.4018 N   0  0  0  0  0  0  0  0  0  0  0  0
   -0.8431   35.7506  -20.3757 N   0  0  0  0  0  0  0  0  0  0  0  0
   -1.5232   36.9267  -20.3507 C   0  0  0  0  0  0  0  0  0  0  0  0
   -2.5576   37.0894  -19.4727 N   0  0  0  0  0  0  0  0  0  0  0  0
   -2.9013   36.0828  -18.6247 C   0  0  0  0  0  0  0  0  0  0  0  0
   -2.2279   34.9147  -18.6407 C   0  0  0  0  0  0  0  0  0  0  0  0
   -1.1783   34.7561  -19.5409 C   0  0  0  0  0  0  0  0  0  0  0  0
   -0.3429   33.6000  -19.7427 N   0  0  0  0  0  0  0  0  0  0  0  0
   -2.7865   34.1122  -17.7032 N   0  0  0  0  0  0  0  0  0  0  0  0
   -3.8043   34.7964  -17.1065 C   0  0  0  0  0  0  0  0  0  0  0  0
   -3.8652   36.0146  -17.6812 N   0  0  0  0  0  0  0  0  0  0  0  0
  1  3  1  1  0  0  0
  1  5  2  0  0  0  0
  1  9  1  0  0  0  0
  1 18  1  0  0  0  0
  2  4  1  6  0  0  0
  2  6  2  0  0  0  0
  2 10  1  0  0  0  0
  2 17  1  0  0  0  0
  7  9  1  0  0  0  0
  8 10  1  0  0  0  0
 11  7  1  6  0  0  0
 11 13  1  0  0  0  0
 11 15  1  0  0  0  0
 12  8  1  1  0  0  0
 12 14  1  0  0  0  0
 12 16  1  0  0  0  0
 13 23  1  0  0  0  0
 14 24  1  0  0  0  0
 15 17  1  1  0  0  0
 15 19  1  0  0  0  0
 16 18  1  6  0  0  0
 16 20  1  0  0  0  0
 19 21  1  1  0  0  0
 19 23  1  0  0  0  0
 20 22  1  1  0  0  0
 20 24  1  0  0  0  0
 23 34  1  6  0  0  0
 24 44  1  1  0  0  0
 25 26  2  0  0  0  0
 25 30  1  0  0  0  0
 26 27  1  0  0  0  0
 27 28  2  0  0  0  0
 28 29  1  0  0  0  0
 28 34  1  0  0  0  0
 29 30  2  0  0  0  0
 29 32  1  0  0  0  0
 30 31  1  0  0  0  0
 32 33  2  0  0  0  0
 33 34  1  0  0  0  0
 35 36  2  0  0  0  0
 35 40  1  0  0  0  0
 36 37  1  0  0  0  0
 37 38  2  0  0  0  0
 38 39  1  0  0  0  0
 38 44  1  0  0  0  0
 39 40  2  0  0  0  0
 39 42  1  0  0  0  0
 40 41  1  0  0  0  0
 42 43  2  0  0  0  0
 43 44  1  0  0  0  0
M  CHG  2   3  -1   4  -1
M  END
>  <CHROM.1>
-137.72432134,-132.88914544,-6.84422157,33.73783665,-15.77654390,0.53227248
0.65996755,0.28843426

>  <Name>
ligand

>  <RI>
0

>  <Rbt.Current_Directory>
/home/itssahil/PROJECTS/Mol_Feturizer/New_Systems/rnas/4QLM

>  <Rbt.Executable>
rbdock ($Id: //depot/dev/client3/rdock/2013.1/src/exe/rbdock.cxx#4 $)

>  <Rbt.Library>
libRbt.so (2013.1, Build901 2013/11/27)

>  <Rbt.Parameter_File>
/export/apps/rDock/src/rDock_2013.1_src/data/scripts/dock_solv.prm

>  <Rbt.Receptor>
prm/pocket_docking_2.prm

>  <SCORE>
-17.6233

>  <SCORE.INTER>
-17.9598

>  <SCORE.INTER.CONST>
1

>  <SCORE.INTER.POLAR>
0

>  <SCORE.INTER.ROT>
2

>  <SCORE.INTER.SOLV>
39.0158

>  <SCORE.INTER.VDW>
-29.9118

>  <SCORE.INTER.norm>
-0.408178

>  <SCORE.INTRA>
0.0376463

>  <SCORE.INTRA.DIHEDRAL>
-0.00105159

>  <SCORE.INTRA.DIHEDRAL.0>
2.32994

>  <SCORE.INTRA.POLAR>
0

>  <SCORE.INTRA.POLAR.0>
0

>  <SCORE.INTRA.REPUL>
0

>  <SCORE.INTRA.REPUL.0>
0

>  <SCORE.INTRA.SOLV>
-0.000922825

>  <SCORE.INTRA.SOLV.lig_0>
-117.703

>  <SCORE.INTRA.VDW>
0.0386336

>  <SCORE.INTRA.VDW.0>
-1.59997

>  <SCORE.INTRA.norm>
0.000855599

>  <SCORE.RESTR>
0.298895

>  <SCORE.RESTR.CAVITY>
0.298895

>  <SCORE.RESTR.norm>
0.00679308

>  <SCORE.SYSTEM>
0

>  <SCORE.SYSTEM.CONST>
0

>  <SCORE.SYSTEM.DIHEDRAL>
0

>  <SCORE.SYSTEM.SOLV>
0

>  <SCORE.SYSTEM.norm>
0

>  <SCORE.heavy>
44

>  <SCORE.norm>
-0.400529

>  <RMSD>
0.934

$$$$
ligand
 OpenBabel11021811513D
libRbt.so/2013.1/901 2013/11/27
 44 50  0  0  0  0  0  0  0  0999 V2000
   -5.0007   35.1960  -12.7016 P   0  0  2  0  0  0  0  0  0  0  0  0
   -8.4922   36.3464  -16.6628 P   0  0  1  0  0  0  0  0  0  0  0  0
   -4.3321   36.2038  -11.7700 O   0  5  0  0  0  0  0  0  0  0  0  0
   -8.0664   35.4757  -17.8198 O   0  5  0  0  0  0  0  0  0  0  0  0
   -4.0755   34.0045  -12.7635 O   0  0  0  0  0  0  0  0  0  0  0  0
   -9.8909   36.9109  -17.0009 O   0  0  0  0  0  0  0  0  0  0  0  0
   -5.3203   37.3692  -13.9730 C   0  0  0  0  0  0  0  0  0  0  0  0
   -8.6035   36.0922  -14.0955 C   0  0  0  0  0  0  0  0  0  0  0  0
   -5.1600   35.9470  -14.0630 O   0  0  0  0  0  0  0  0  0  0  0  0
   -8.3391   35.3830  -15.3387 O   0  0  0  0  0  0  0  0  0  0  0  0
   -5.4163   37.9763  -15.3686 C   0  0  1  0  0  0  0  0  0  0  0  0
   -8.5535   35.0096  -12.9522 C   0  0  1  0  0  0  0  0  0  0  0  0
   -4.2117   38.1712  -15.8083 O   0  0  0  0  0  0  0  0  0  0  0  0
   -9.3268   34.0792  -13.3401 O   0  0  0  0  0  0  0  0  0  0  0  0
   -6.1007   37.0710  -16.3668 C   0  0  1  0  0  0  0  0  0  0  0  0
   -7.1798   34.3108  -12.9137 C   0  0  1  0  0  0  0  0  0  0  0  0
   -7.3798   37.5167  -16.4826 O   0  0  0  0  0  0  0  0  0  0  0  0
   -6.4133   34.7949  -11.9288 O   0  0  0  0  0  0  0  0  0  0  0  0
   -5.3119   37.3275  -17.6980 C   0  0  1  0  0  0  0  0  0  0  0  0
   -7.4483   32.8006  -12.7221 C   0  0  1  0  0  0  0  0  0  0  0  0
   -6.0863   38.2383  -18.5835 O   0  0  0  0  0  0  0  0  0  0  0  0
   -7.1982   32.3995  -11.3002 O   0  0  0  0  0  0  0  0  0  0  0  0
   -4.1795   37.8572  -17.3620 C   0  0  2  0  0  0  0  0  0  0  0  0
   -8.6973   32.6474  -13.0007 C   0  0  2  0  0  0  0  0  0  0  0  0
   -0.3298   35.7980  -20.4862 N   0  0  0  0  0  0  0  0  0  0  0  0
   -1.1504   36.8350  -20.8153 C   0  0  0  0  0  0  0  0  0  0  0  0
   -2.1058   37.2894  -19.9422 N   0  0  0  0  0  0  0  0  0  0  0  0
   -2.2322   36.6836  -18.7227 C   0  0  0  0  0  0  0  0  0  0  0  0
   -1.4373   35.6579  -18.3876 C   0  0  0  0  0  0  0  0  0  0  0  0
   -0.4627   35.2085  -19.2769 C   0  0  0  0  0  0  0  0  0  0  0  0
    0.4325   34.1450  -19.0475 N   0  0  0  0  0  0  0  0  0  0  0  0
   -1.7752   35.2624  -17.1419 N   0  0  0  0  0  0  0  0  0  0  0  0
   -2.7981   36.0557  -16.7136 C   0  0  0  0  0  0  0  0  0  0  0  0
   -3.0697   36.9434  -17.6792 N   0  0  0  0  0  0  0  0  0  0  0  0
  -10.1660   27.9832  -14.7918 N   0  0  0  0  0  0  0  0  0  0  0  0
  -10.1073   28.3747  -13.4920 C   0  0  0  0  0  0  0  0  0  0  0  0
   -9.6909   29.6399  -13.1865 N   0  0  0  0  0  0  0  0  0  0  0  0
   -9.3425   30.5045  -14.1773 C   0  0  0  0  0  0  0  0  0  0  0  0
   -9.4026   30.1243  -15.4696 C   0  0  0  0  0  0  0  0  0  0  0  0
   -9.8241   28.8326  -15.7715 C   0  0  0  0  0  0  0  0  0  0  0  0
   -9.9452   28.2134  -17.0665 N   0  0  0  0  0  0  0  0  0  0  0  0
   -8.9999   31.1773  -16.2206 N   0  0  0  0  0  0  0  0  0  0  0  0
   -8.6970   32.2093  -15.3822 C   0  0  0  0  0  0  0  0  0  0  0  0
   -8.9150   31.7843  -14.1213 N   0  0  0  0  0  0  0  0  0  0  0  0
  1  3  1  1  0  0  0
  1  5  2  0  0  0  0
  1  9  1  0  0  0  0
  1 18  1  0  0  0  0
  2  4  1  6  0  0  0
  2  6  2  0  0  0  0
  2 10  1  0  0  0  0
  2 17  1  0  0  0  0
  7  9  1  0  0  0  0
  8 10  1  0  0  0  0
 11  7  1  1  0  0  0
 11 13  1  0  0  0  0
 11 15  1  0  0  0  0
 12  8  1  6  0  0  0
 12 14  1  0  0  0  0
 12 16  1  0  0  0  0
 13 23  1  0  0  0  0
 14 24  1  0  0  0  0
 15 17  1  6  0  0  0
 15 19  1  0  0  0  0
 16 18  1  1  0  0  0
 16 20  1  0  0  0  0
 19 21  1  6  0  0  0
 19 23  1  0  0  0  0
 20 22  1  1  0  0  0
 20 24  1  0  0  0  0
 23 34  1  1  0  0  0
 24 44  1  6  0  0  0
 25 26  2  0  0  0  0
 25 30  1  0  0  0  0
 26 27  1  0  0  0  0
 27 28  2  0  0  0  0
 28 29  1  0  0  0  0
 28 34  1  0  0  0  0
 29 30  2  0  0  0  0
 29 32  1  0  0  0  0
 30 31  1  0  0  0  0
 32 33  2  0  0  0  0
 33 34  1  0  0  0  0
 35 36  2  0  0  0  0
 35 40  1  0  0  0  0
 36 37  1  0  0  0  0
 37 38  2  0  0  0  0
 38 39  1  0  0  0  0
 38 44  1  0  0  0  0
 39 40  2  0  0  0  0
 39 42  1  0  0  0  0
 40 41  1  0  0  0  0
 42 43  2  0  0  0  0
 43 44  1  0  0  0  0
M  CHG  2   3  -1   4  -1
M  END
>  <CHROM.1>
-149.94614451,-135.11212077,-6.21940105,34.64136306,-15.56594160,2.89885016
-0.78155238,-2.53861551

>  <Name>
ligand

>  <RI>
0

>  <Rbt.Current_Directory>
/home/itssahil/PROJECTS/Mol_Feturizer/New_Systems/rnas/4QLM

>  <Rbt.Executable>
rbdock ($Id: //depot/dev/client3/rdock/2013.1/src/exe/rbdock.cxx#4 $)

>  <Rbt.Library>
libRbt.so (2013.1, Build901 2013/11/27)

>  <Rbt.Parameter_File>
/export/apps/rDock/src/rDock_2013.1_src/data/scripts/dock_solv.prm

>  <Rbt.Receptor>
prm/pocket_docking_3.prm

>  <SCORE>
-22.2962

>  <SCORE.INTER>
-22.2071

>  <SCORE.INTER.CONST>
1

>  <SCORE.INTER.POLAR>
0

>  <SCORE.INTER.ROT>
2

>  <SCORE.INTER.SOLV>
33.8362

>  <SCORE.INTER.VDW>
-31.0168

>  <SCORE.INTER.norm>
-0.504706

>  <SCORE.INTRA>
-0.089186

>  <SCORE.INTRA.DIHEDRAL>
-0.0263675

>  <SCORE.INTRA.DIHEDRAL.0>
2.32994

>  <SCORE.INTRA.POLAR>
0

>  <SCORE.INTRA.POLAR.0>
0

>  <SCORE.INTRA.REPUL>
0

>  <SCORE.INTRA.REPUL.0>
0

>  <SCORE.INTRA.SOLV>
0.00188361

>  <SCORE.INTRA.SOLV.lig_0>
-117.703

>  <SCORE.INTRA.VDW>
-0.0769441

>  <SCORE.INTRA.VDW.0>
-1.59997

>  <SCORE.INTRA.norm>
-0.00202696

>  <SCORE.RESTR>
0

>  <SCORE.RESTR.CAVITY>
0

>  <SCORE.RESTR.norm>
0

>  <SCORE.SYSTEM>
0

>  <SCORE.SYSTEM.CONST>
0

>  <SCORE.SYSTEM.DIHEDRAL>
0

>  <SCORE.SYSTEM.SOLV>
0

>  <SCORE.SYSTEM.norm>
0

>  <SCORE.heavy>
44

>  <SCORE.norm>
-0.506733

>  <RMSD>
0.937

$$$$
ligand
 OpenBabel11021811513D
libRbt.so/2013.1/901 2013/11/27
 44 50  0  0  0  0  0  0  0  0999 V2000
   -5.0169   35.2442  -12.6547 P   0  0  2  0  0  0  0  0  0  0  0  0
   -8.4986   36.2807  -16.6558 P   0  0  1  0  0  0  0  0  0  0  0  0
   -4.3868   36.2739  -11.7203 O   0  5  0  0  0  0  0  0  0  0  0  0
   -8.0364   35.4182  -17.8049 O   0  5  0  0  0  0  0  0  0  0  0  0
   -4.0578   34.0792  -12.7025 O   0  0  0  0  0  0  0  0  0  0  0  0
   -9.9091   36.8040  -17.0104 O   0  0  0  0  0  0  0  0  0  0  0  0
   -5.3848   37.4028  -13.9379 C   0  0  0  0  0  0  0  0  0  0  0  0
   -8.6291   36.0328  -14.0887 C   0  0  0  0  0  0  0  0  0  0  0  0
   -5.1834   35.9854  -14.0206 O   0  0  0  0  0  0  0  0  0  0  0  0
   -8.3319   35.3268  -15.3264 O   0  0  0  0  0  0  0  0  0  0  0  0
   -5.4835   38.0018  -15.3367 C   0  0  1  0  0  0  0  0  0  0  0  0
   -8.5603   34.9563  -12.9407 C   0  0  1  0  0  0  0  0  0  0  0  0
   -4.2805   38.2292  -15.7649 O   0  0  0  0  0  0  0  0  0  0  0  0
   -9.3029   34.0029  -13.3328 O   0  0  0  0  0  0  0  0  0  0  0  0
   -6.1317   37.0739  -16.3383 C   0  0  1  0  0  0  0  0  0  0  0  0
   -7.1678   34.2968  -12.8855 C   0  0  1  0  0  0  0  0  0  0  0  0
   -7.4217   37.4827  -16.4689 O   0  0  0  0  0  0  0  0  0  0  0  0
   -6.4255   34.8061  -11.8948 O   0  0  0  0  0  0  0  0  0  0  0  0
   -5.3368   37.3477  -17.6624 C   0  0  1  0  0  0  0  0  0  0  0  0
   -7.3955   32.7804  -12.6907 C   0  0  1  0  0  0  0  0  0  0  0  0
   -6.1276   38.2329  -18.5593 O   0  0  0  0  0  0  0  0  0  0  0  0
   -7.1487   32.3917  -11.2647 O   0  0  0  0  0  0  0  0  0  0  0  0
   -4.2234   37.9105  -17.3170 C   0  0  2  0  0  0  0  0  0  0  0  0
   -8.6367   32.5908  -12.9813 C   0  0  2  0  0  0  0  0  0  0  0  0
   -0.5039   35.7029  -20.4971 N   0  0  0  0  0  0  0  0  0  0  0  0
   -1.4130   36.6459  -20.8734 C   0  0  0  0  0  0  0  0  0  0  0  0
   -2.3247   37.1495  -19.9809 N   0  0  0  0  0  0  0  0  0  0  0  0
   -2.3163   36.6896  -18.6929 C   0  0  0  0  0  0  0  0  0  0  0  0
   -1.4331   35.7572  -18.3099 C   0  0  0  0  0  0  0  0  0  0  0  0
   -0.5038   35.2577  -19.2207 C   0  0  0  0  0  0  0  0  0  0  0  0
    0.4735   34.2805  -18.9464 N   0  0  0  0  0  0  0  0  0  0  0  0
   -1.6466   35.4973  -17.0026 N   0  0  0  0  0  0  0  0  0  0  0  0
   -2.6822   36.2793  -16.5838 C   0  0  0  0  0  0  0  0  0  0  0  0
   -3.0850   37.0274  -17.6192 N   0  0  0  0  0  0  0  0  0  0  0  0
  -10.5183   28.1123  -14.8583 N   0  0  0  0  0  0  0  0  0  0  0  0
  -10.5891   28.5507  -13.5742 C   0  0  0  0  0  0  0  0  0  0  0  0
  -10.0351   29.7545  -13.2406 N   0  0  0  0  0  0  0  0  0  0  0  0
   -9.4213   30.5125  -14.1889 C   0  0  0  0  0  0  0  0  0  0  0  0
   -9.3512   30.0859  -15.4661 C   0  0  0  0  0  0  0  0  0  0  0  0
   -9.9147   28.8568  -15.7963 C   0  0  0  0  0  0  0  0  0  0  0  0
   -9.9399   28.2027  -17.0794 N   0  0  0  0  0  0  0  0  0  0  0  0
   -8.6905   31.0333  -16.1739 N   0  0  0  0  0  0  0  0  0  0  0  0
   -8.3594   32.0478  -15.3248 C   0  0  0  0  0  0  0  0  0  0  0  0
   -8.8183   31.7177  -14.1007 N   0  0  0  0  0  0  0  0  0  0  0  0
  1  3  1  1  0  0  0
  1  5  2  0  0  0  0
  1  9  1  0  0  0  0
  1 18  1  0  0  0  0
  2  4  1  6  0  0  0
  2  6  2  0  0  0  0
  2 10  1  0  0  0  0
  2 17  1  0  0  0  0
  7  9  1  0  0  0  0
  8 10  1  0  0  0  0
 11  7  1  1  0  0  0
 11 13  1  0  0  0  0
 11 15  1  0  0  0  0
 12  8  1  6  0  0  0
 12 14  1  0  0  0  0
 12 16  1  0  0  0  0
 13 23  1  0  0  0  0
 14 24  1  0  0  0  0
 15 17  1  6  0  0  0
 15 19  1  0  0  0  0
 16 18  1  1  0  0  0
 16 20  1  0  0  0  0
 19 21  1  6  0  0  0
 19 23  1  0  0  0  0
 20 22  1  1  0  0  0
 20 24  1  0  0  0  0
 23 34  1  1  0  0  0
 24 44  1  6  0  0  0
 25 26  2  0  0  0  0
 25 30  1  0  0  0  0
 26 27  1  0  0  0  0
 27 28  2  0  0  0  0
 28 29  1  0  0  0  0
 28 34  1  0  0  0  0
 29 30  2  0  0  0  0
 29 32  1  0  0  0  0
 30 31  1  0  0  0  0
 32 33  2  0  0  0  0
 33 34  1  0  0  0  0
 35 36  2  0  0  0  0
 35 40  1  0  0  0  0
 36 37  1  0  0  0  0
 37 38  2  0  0  0  0
 38 39  1  0  0  0  0
 38 44  1  0  0  0  0
 39 40  2  0  0  0  0
 39 42  1  0  0  0  0
 40 41  1  0  0  0  0
 42 43  2  0  0  0  0
 43 44  1  0  0  0  0
M  CHG  2   3  -1   4  -1
M  END
>  <CHROM.1>
-158.58841266,-122.11472003,-6.24789505,34.64574032,-15.54234216,0.14539556
0.79575184,0.75240028

>  <Name>
ligand

>  <RI>
0

>  <Rbt.Current_Directory>
/home/itssahil/PROJECTS/Mol_Feturizer/New_Systems/rnas/4QLM

>  <Rbt.Executable>
rbdock ($Id: //depot/dev/client3/rdock/2013.1/src/exe/rbdock.cxx#4 $)

>  <Rbt.Library>
libRbt.so (2013.1, Build901 2013/11/27)

>  <Rbt.Parameter_File>
/export/apps/rDock/src/rDock_2013.1_src/data/scripts/dock_solv.prm

>  <Rbt.Receptor>
prm/pocket_docking_3.prm

>  <SCORE>
-21.2478

>  <SCORE.INTER>
-21.4257

>  <SCORE.INTER.CONST>
1

>  <SCORE.INTER.POLAR>
0

>  <SCORE.INTER.ROT>
2

>  <SCORE.INTER.SOLV>
33.5897

>  <SCORE.INTER.VDW>
-30.4137

>  <SCORE.INTER.norm>
-0.486947

>  <SCORE.INTRA>
0.136497

>  <SCORE.INTRA.DIHEDRAL>
-0.0264953

>  <SCORE.INTRA.DIHEDRAL.0>
2.32994

>  <SCORE.INTRA.POLAR>
0

>  <SCORE.INTRA.POLAR.0>
0

>  <SCORE.INTRA.REPUL>
0

>  <SCORE.INTRA.REPUL.0>
0

>  <SCORE.INTRA.SOLV>
0.00356073

>  <SCORE.INTRA.SOLV.lig_0>
-117.703

>  <SCORE.INTRA.VDW>
0.147965

>  <SCORE.INTRA.VDW.0>
-1.59997

>  <SCORE.INTRA.norm>
0.00310222

>  <SCORE.RESTR>
0.041323

>  <SCORE.RESTR.CAVITY>
0.041323

>  <SCORE.RESTR.norm>
0.000939159

>  <SCORE.SYSTEM>
0

>  <SCORE.SYSTEM.CONST>
0

>  <SCORE.SYSTEM.DIHEDRAL>
0

>  <SCORE.SYSTEM.SOLV>
0

>  <SCORE.SYSTEM.norm>
0

>  <SCORE.heavy>
44

>  <SCORE.norm>
-0.482906

>  <RMSD>
0.960

$$$$
ligand
 OpenBabel11021811513D
libRbt.so/2013.1/901 2013/11/27
 44 50  0  0  0  0  0  0  0  0999 V2000
   -9.2355   35.7774  -16.3353 P   0  0  2  0  0  0  0  0  0  0  0  0
   -5.3025   33.8429  -13.1738 P   0  0  1  0  0  0  0  0  0  0  0  0
  -10.5739   36.3407  -15.8645 O   0  5  0  0  0  0  0  0  0  0  0  0
   -4.8260   32.5913  -13.8699 O   0  5  0  0  0  0  0  0  0  0  0  0
   -9.4648   35.2696  -17.7386 O   0  0  0  0  0  0  0  0  0  0  0  0
   -4.2646   34.1864  -12.0812 O   0  0  0  0  0  0  0  0  0  0  0  0
   -9.3863   34.8532  -13.9764 C   0  0  0  0  0  0  0  0  0  0  0  0
   -6.1203   36.1777  -13.9143 C   0  0  0  0  0  0  0  0  0  0  0  0
   -8.8830   34.6566  -15.3047 O   0  0  0  0  0  0  0  0  0  0  0  0
   -5.5458   34.9266  -14.3868 O   0  0  0  0  0  0  0  0  0  0  0  0
   -9.0114   33.6689  -13.0919 C   0  0  1  0  0  0  0  0  0  0  0  0
   -6.1577   37.1425  -15.1590 C   0  0  1  0  0  0  0  0  0  0  0  0
   -9.9029   32.7416  -13.2588 O   0  0  0  0  0  0  0  0  0  0  0  0
   -4.9814   37.1141  -15.6382 O   0  0  0  0  0  0  0  0  0  0  0  0
   -7.6769   33.0564  -13.4498 C   0  0  1  0  0  0  0  0  0  0  0  0
   -7.0002   36.5384  -16.3002 C   0  0  1  0  0  0  0  0  0  0  0  0
   -6.7744   33.5410  -12.5559 O   0  0  0  0  0  0  0  0  0  0  0  0
   -8.2192   37.0891  -16.3511 O   0  0  0  0  0  0  0  0  0  0  0  0
   -7.9021   31.5215  -13.2187 C   0  0  1  0  0  0  0  0  0  0  0  0
   -6.2211   36.7829  -17.6127 C   0  0  1  0  0  0  0  0  0  0  0  0
   -7.3030   31.1068  -11.9216 O   0  0  0  0  0  0  0  0  0  0  0  0
   -6.8190   37.9280  -18.3721 O   0  0  0  0  0  0  0  0  0  0  0  0
   -9.1824   31.3299  -13.2221 C   0  0  2  0  0  0  0  0  0  0  0  0
   -5.0269   37.0900  -17.2379 C   0  0  2  0  0  0  0  0  0  0  0  0
  -10.9231   26.8826  -15.6743 N   0  0  0  0  0  0  0  0  0  0  0  0
  -10.7609   27.0373  -14.3301 C   0  0  0  0  0  0  0  0  0  0  0  0
  -10.3096   28.2193  -13.8005 N   0  0  0  0  0  0  0  0  0  0  0  0
  -10.0168   29.2554  -14.6438 C   0  0  0  0  0  0  0  0  0  0  0  0
  -10.1644   29.1160  -15.9686 C   0  0  0  0  0  0  0  0  0  0  0  0
  -10.6326   27.9146  -16.4978 C   0  0  0  0  0  0  0  0  0  0  0  0
  -10.8314   27.6403  -17.8654 N   0  0  0  0  0  0  0  0  0  0  0  0
   -9.8118   30.2826  -16.5492 N   0  0  0  0  0  0  0  0  0  0  0  0
   -9.4361   31.1450  -15.5621 C   0  0  0  0  0  0  0  0  0  0  0  0
   -9.5782   30.5199  -14.3860 N   0  0  0  0  0  0  0  0  0  0  0  0
   -0.9864   36.0946  -20.3690 N   0  0  0  0  0  0  0  0  0  0  0  0
   -1.6816   37.2588  -20.2819 C   0  0  0  0  0  0  0  0  0  0  0  0
   -2.7281   37.3561  -19.4085 N   0  0  0  0  0  0  0  0  0  0  0  0
   -3.0688   36.2963  -18.6267 C   0  0  0  0  0  0  0  0  0  0  0  0
   -2.3806   35.1394  -18.7045 C   0  0  0  0  0  0  0  0  0  0  0  0
   -1.3187   35.0477  -19.5996 C   0  0  0  0  0  0  0  0  0  0  0  0
   -0.4665   33.9159  -19.8601 N   0  0  0  0  0  0  0  0  0  0  0  0
   -2.9399   34.2754  -17.8238 N   0  0  0  0  0  0  0  0  0  0  0  0
   -3.9730   34.9102  -17.1997 C   0  0  0  0  0  0  0  0  0  0  0  0
   -4.0426   36.1601  -17.7010 N   0  0  0  0  0  0  0  0  0  0  0  0
  1  3  1  1  0  0  0
  1  5  2  0  0  0  0
  1  9  1  0  0  0  0
  1 18  1  0  0  0  0
  2  4  1  6  0  0  0
  2  6  2  0  0  0  0
  2 10  1  0  0  0  0
  2 17  1  0  0  0  0
  7  9  1  0  0  0  0
  8 10  1  0  0  0  0
 11  7  1  6  0  0  0
 11 13  1  0  0  0  0
 11 15  1  0  0  0  0
 12  8  1  1  0  0  0
 12 14  1  0  0  0  0
 12 16  1  0  0  0  0
 13 23  1  0  0  0  0
 14 24  1  0  0  0  0
 15 17  1  1  0  0  0
 15 19  1  0  0  0  0
 16 18  1  6  0  0  0
 16 20  1  0  0  0  0
 19 21  1  1  0  0  0
 19 23  1  0  0  0  0
 20 22  1  1  0  0  0
 20 24  1  0  0  0  0
 23 34  1  6  0  0  0
 24 44  1  1  0  0  0
 25 26  2  0  0  0  0
 25 30  1  0  0  0  0
 26 27  1  0  0  0  0
 27 28  2  0  0  0  0
 28 29  1  0  0  0  0
 28 34  1  0  0  0  0
 29 30  2  0  0  0  0
 29 32  1  0  0  0  0
 30 31  1  0  0  0  0
 32 33  2  0  0  0  0
 33 34  1  0  0  0  0
 35 36  2  0  0  0  0
 35 40  1  0  0  0  0
 36 37  1  0  0  0  0
 37 38  2  0  0  0  0
 38 39  1  0  0  0  0
 38 44  1  0  0  0  0
 39 40  2  0  0  0  0
 39 42  1  0  0  0  0
 40 41  1  0  0  0  0
 42 43  2  0  0  0  0
 43 44  1  0  0  0  0
M  CHG  2   3  -1   4  -1
M  END
>  <CHROM.1>
-131.68747601,-129.57403406,-6.90842579,33.76382631,-15.75657621,2.58691856
-0.68149377,-2.84735626

>  <Name>
ligand

>  <RI>
0

>  <Rbt.Current_Directory>
/home/itssahil/PROJECTS/Mol_Feturizer/New_Systems/rnas/4QLM

>  <Rbt.Executable>
rbdock ($Id: //depot/dev/client3/rdock/2013.1/src/exe/rbdock.cxx#4 $)

>  <Rbt.Library>
libRbt.so (2013.1, Build901 2013/11/27)

>  <Rbt.Parameter_File>
/export/apps/rDock/src/rDock_2013.1_src/data/scripts/dock_solv.prm

>  <Rbt.Receptor>
prm/pocket_docking_2.prm

>  <SCORE>
-17.6301

>  <SCORE.INTER>
-18.2579

>  <SCORE.INTER.CONST>
1

>  <SCORE.INTER.POLAR>
0

>  <SCORE.INTER.ROT>
2

>  <SCORE.INTER.SOLV>
37.7613

>  <SCORE.INTER.VDW>
-29.6923

>  <SCORE.INTER.norm>
-0.414951

>  <SCORE.INTRA>
0.216743

>  <SCORE.INTRA.DIHEDRAL>
0.022949

>  <SCORE.INTRA.DIHEDRAL.0>
2.32994

>  <SCORE.INTRA.POLAR>
0

>  <SCORE.INTRA.POLAR.0>
0

>  <SCORE.INTRA.REPUL>
0

>  <SCORE.INTRA.REPUL.0>
0

>  <SCORE.INTRA.SOLV>
-0.00214139

>  <SCORE.INTRA.SOLV.lig_0>
-117.703

>  <SCORE.INTRA.VDW>
0.206339

>  <SCORE.INTRA.VDW.0>
-1.59997

>  <SCORE.INTRA.norm>
0.00492597

>  <SCORE.RESTR>
0.411014

>  <SCORE.RESTR.CAVITY>
0.411014

>  <SCORE.RESTR.norm>
0.00934123

>  <SCORE.SYSTEM>
0

>  <SCORE.SYSTEM.CONST>
0

>  <SCORE.SYSTEM.DIHEDRAL>
0

>  <SCORE.SYSTEM.SOLV>
0

>  <SCORE.SYSTEM.norm>
0

>  <SCORE.heavy>
44

>  <SCORE.norm>
-0.400684

>  <RMSD>
0.962

$$$$
ligand
 OpenBabel11021811513D
libRbt.so/2013.1/901 2013/11/27
 44 50  0  0  0  0  0  0  0  0999 V2000
   -9.6779   35.8999  -16.4148 P   0  0  2  0  0  0  0  0  0  0  0  0
   -6.1680   34.2371  -12.6570 P   0  0  1  0  0  0  0  0  0  0  0  0
  -11.0596   36.4950  -16.1556 O   0  5  0  0  0  0  0  0  0  0  0  0
   -5.6192   32.9353  -13.1882 O   0  5  0  0  0  0  0  0  0  0  0  0
   -9.7396   35.2806  -17.7904 O   0  0  0  0  0  0  0  0  0  0  0  0
   -5.2673   34.6702  -11.4779 O   0  0  0  0  0  0  0  0  0  0  0  0
  -10.1183   35.1672  -14.0251 C   0  0  0  0  0  0  0  0  0  0  0  0
   -6.8750   36.5025  -13.6750 C   0  0  0  0  0  0  0  0  0  0  0  0
   -9.4598   34.8663  -15.2629 O   0  0  0  0  0  0  0  0  0  0  0  0
   -6.2560   35.2193  -13.9732 O   0  0  0  0  0  0  0  0  0  0  0  0
   -9.8608   34.0587  -13.0100 C   0  0  1  0  0  0  0  0  0  0  0  0
   -6.7556   37.3644  -14.9881 C   0  0  1  0  0  0  0  0  0  0  0  0
  -10.7316   33.1183  -13.2088 O   0  0  0  0  0  0  0  0  0  0  0  0
   -5.5303   37.3013  -15.3179 O   0  0  0  0  0  0  0  0  0  0  0  0
   -8.4968   33.4237  -13.1540 C   0  0  1  0  0  0  0  0  0  0  0  0
   -7.4581   36.6682  -16.1708 C   0  0  1  0  0  0  0  0  0  0  0  0
   -7.7057   33.9811  -12.1992 O   0  0  0  0  0  0  0  0  0  0  0  0
   -8.6585   37.2092  -16.4124 O   0  0  0  0  0  0  0  0  0  0  0  0
   -8.7585   31.9115  -12.8299 C   0  0  1  0  0  0  0  0  0  0  0  0
   -6.5249   36.8092  -17.3949 C   0  0  1  0  0  0  0  0  0  0  0  0
   -8.3230   31.6039  -11.4410 O   0  0  0  0  0  0  0  0  0  0  0  0
   -7.0191   37.8879  -18.3100 O   0  0  0  0  0  0  0  0  0  0  0  0
  -10.0302   31.7162  -12.9727 C   0  0  2  0  0  0  0  0  0  0  0  0
   -5.3826   37.1491  -16.9043 C   0  0  2  0  0  0  0  0  0  0  0  0
  -10.7241   26.9338  -15.3111 N   0  0  0  0  0  0  0  0  0  0  0  0
  -10.5044   27.1445  -13.9827 C   0  0  0  0  0  0  0  0  0  0  0  0
  -10.3403   28.4110  -13.4821 N   0  0  0  0  0  0  0  0  0  0  0  0
  -10.3971   29.4756  -14.3386 C   0  0  0  0  0  0  0  0  0  0  0  0
  -10.6052   29.2837  -15.6487 C   0  0  0  0  0  0  0  0  0  0  0  0
  -10.7803   27.9942  -16.1477 C   0  0  0  0  0  0  0  0  0  0  0  0
  -11.0055   27.6581  -17.4973 N   0  0  0  0  0  0  0  0  0  0  0  0
  -10.6183   30.4937  -16.2470 N   0  0  0  0  0  0  0  0  0  0  0  0
  -10.4073   31.4383  -15.2866 C   0  0  0  0  0  0  0  0  0  0  0  0
  -10.2881   30.8144  -14.1073 N   0  0  0  0  0  0  0  0  0  0  0  0
   -1.3043   35.6940  -19.7975 N   0  0  0  0  0  0  0  0  0  0  0  0
   -2.0541   36.8164  -19.9532 C   0  0  0  0  0  0  0  0  0  0  0  0
   -3.1026   37.0500  -19.1086 N   0  0  0  0  0  0  0  0  0  0  0  0
   -3.3911   36.1677  -18.1142 C   0  0  0  0  0  0  0  0  0  0  0  0
   -2.6486   35.0541  -17.9509 C   0  0  0  0  0  0  0  0  0  0  0  0
   -1.5849   34.8220  -18.8181 C   0  0  0  0  0  0  0  0  0  0  0  0
   -0.6801   33.7013  -18.8404 N   0  0  0  0  0  0  0  0  0  0  0  0
   -3.1645   34.3739  -16.8991 N   0  0  0  0  0  0  0  0  0  0  0  0
   -4.2258   35.0792  -16.4132 C   0  0  0  0  0  0  0  0  0  0  0  0
   -4.3558   36.1880  -17.1693 N   0  0  0  0  0  0  0  0  0  0  0  0
  1  3  1  1  0  0  0
  1  5  2  0  0  0  0
  1  9  1  0  0  0  0
  1 18  1  0  0  0  0
  2  4  1  6  0  0  0
  2  6  2  0  0  0  0
  2 10  1  0  0  0  0
  2 17  1  0  0  0  0
  7  9  1  0  0  0  0
  8 10  1  0  0  0  0
 11  7  1  6  0  0  0
 11 13  1  0  0  0  0
 11 15  1  0  0  0  0
 12  8  1  1  0  0  0
 12 14  1  0  0  0  0
 12 16  1  0  0  0  0
 13 23  1  0  0  0  0
 14 24  1  0  0  0  0
 15 17  1  1  0  0  0
 15 19  1  0  0  0  0
 16 18  1  6  0  0  0
 16 20  1  0  0  0  0
 19 21  1  1  0  0  0
 19 23  1  0  0  0  0
 20 22  1  6  0  0  0
 20 24  1  0  0  0  0
 23 34  1  6  0  0  0
 24 44  1  1  0  0  0
 25 26  2  0  0  0  0
 25 30  1  0  0  0  0
 26 27  1  0  0  0  0
 27 28  2  0  0  0  0
 28 29  1  0  0  0  0
 28 34  1  0  0  0  0
 29 30  2  0  0  0  0
 29 32  1  0  0  0  0
 30 31  1  0  0  0  0
 32 33  2  0  0  0  0
 33 34  1  0  0  0  0
 35 36  2  0  0  0  0
 35 40  1  0  0  0  0
 36 37  1  0  0  0  0
 37 38  2  0  0  0  0
 38 39  1  0  0  0  0
 38 44  1  0  0  0  0
 39 40  2  0  0  0  0
 39 42  1  0  0  0  0
 40 41  1  0  0  0  0
 42 43  2  0  0  0  0
 43 44  1  0  0  0  0
M  CHG  2   3  -1   4  -1
M  END
>  <CHROM.1>
-151.35564798,-140.60798445,-7.42234287,33.92056952,-15.43299176,0.60065213
0.60202736,0.18804381

>  <Name>
ligand

>  <RI>
0

>  <Rbt.Current_Directory>
/home/itssahil/PROJECTS/Mol_Feturizer/New_Systems/rnas/4QLM

>  <Rbt.Executable>
rbdock ($Id: //depot/dev/client3/rdock/2013.1/src/exe/rbdock.cxx#4 $)

>  <Rbt.Library>
libRbt.so (2013.1, Build901 2013/11/27)

>  <Rbt.Parameter_File>
/export/apps/rDock/src/rDock_2013.1_src/data/scripts/dock_solv.prm

>  <Rbt.Receptor>
prm/pocket_docking_5.prm

>  <SCORE>
-18.1572

>  <SCORE.INTER>
-18.0574

>  <SCORE.INTER.CONST>
1

>  <SCORE.INTER.POLAR>
0

>  <SCORE.INTER.ROT>
2

>  <SCORE.INTER.SOLV>
37.1206

>  <SCORE.INTER.VDW>
-29.3451

>  <SCORE.INTER.norm>
-0.410394

>  <SCORE.INTRA>
-0.0997992

>  <SCORE.INTRA.DIHEDRAL>
-0.0249511

>  <SCORE.INTRA.DIHEDRAL.0>
2.32994

>  <SCORE.INTRA.POLAR>
0

>  <SCORE.INTRA.POLAR.0>
0

>  <SCORE.INTRA.REPUL>
0

>  <SCORE.INTRA.REPUL.0>
0

>  <SCORE.INTRA.SOLV>
0.00281024

>  <SCORE.INTRA.SOLV.lig_0>
-117.703

>  <SCORE.INTRA.VDW>
-0.0887287

>  <SCORE.INTRA.VDW.0>
-1.59997

>  <SCORE.INTRA.norm>
-0.00226816

>  <SCORE.RESTR>
0

>  <SCORE.RESTR.CAVITY>
0

>  <SCORE.RESTR.norm>
0

>  <SCORE.SYSTEM>
0

>  <SCORE.SYSTEM.CONST>
0

>  <SCORE.SYSTEM.DIHEDRAL>
0

>  <SCORE.SYSTEM.SOLV>
0

>  <SCORE.SYSTEM.norm>
0

>  <SCORE.heavy>
44

>  <SCORE.norm>
-0.412663

>  <RMSD>
1.021

$$$$
ligand
 OpenBabel11021811513D
libRbt.so/2013.1/901 2013/11/27
 44 50  0  0  0  0  0  0  0  0999 V2000
   -9.7050   35.9401  -16.3784 P   0  0  2  0  0  0  0  0  0  0  0  0
   -6.1737   34.2393  -12.6579 P   0  0  1  0  0  0  0  0  0  0  0  0
  -11.0773   36.5503  -16.1046 O   0  5  0  0  0  0  0  0  0  0  0  0
   -5.6449   32.9315  -13.1946 O   0  5  0  0  0  0  0  0  0  0  0  0
   -9.7881   35.3214  -17.7532 O   0  0  0  0  0  0  0  0  0  0  0  0
   -5.2558   34.6626  -11.4886 O   0  0  0  0  0  0  0  0  0  0  0  0
  -10.1280   35.2125  -13.9841 C   0  0  0  0  0  0  0  0  0  0  0  0
   -6.8666   36.5122  -13.6687 C   0  0  0  0  0  0  0  0  0  0  0  0
   -9.4860   34.9043  -15.2287 O   0  0  0  0  0  0  0  0  0  0  0  0
   -6.2649   35.2223  -13.9733 O   0  0  0  0  0  0  0  0  0  0  0  0
   -9.8718   34.1013  -12.9716 C   0  0  1  0  0  0  0  0  0  0  0  0
   -6.7518   37.3726  -14.9833 C   0  0  1  0  0  0  0  0  0  0  0  0
  -10.7549   33.1705  -13.1608 O   0  0  0  0  0  0  0  0  0  0  0  0
   -5.5308   37.2961  -15.3261 O   0  0  0  0  0  0  0  0  0  0  0  0
   -8.5165   33.4514  -13.1299 C   0  0  1  0  0  0  0  0  0  0  0  0
   -7.4745   36.6841  -16.1583 C   0  0  1  0  0  0  0  0  0  0  0  0
   -7.7091   34.0002  -12.1837 O   0  0  0  0  0  0  0  0  0  0  0  0
   -8.6714   37.2382  -16.3872 O   0  0  0  0  0  0  0  0  0  0  0  0
   -8.7912   31.9422  -12.8027 C   0  0  1  0  0  0  0  0  0  0  0  0
   -6.5528   36.8147  -17.3923 C   0  0  1  0  0  0  0  0  0  0  0  0
   -8.3443   31.6299  -11.4185 O   0  0  0  0  0  0  0  0  0  0  0  0
   -7.0450   37.8987  -18.3023 O   0  0  0  0  0  0  0  0  0  0  0  0
  -10.0664   31.7608  -12.9319 C   0  0  2  0  0  0  0  0  0  0  0  0
   -5.4017   37.1421  -16.9140 C   0  0  2  0  0  0  0  0  0  0  0  0
  -10.6114   26.9802  -15.3130 N   0  0  0  0  0  0  0  0  0  0  0  0
  -10.3097   27.1841  -13.9998 C   0  0  0  0  0  0  0  0  0  0  0  0
  -10.1937   28.4507  -13.4861 N   0  0  0  0  0  0  0  0  0  0  0  0
  -10.3830   29.5225  -14.3141 C   0  0  0  0  0  0  0  0  0  0  0  0
  -10.6731   29.3379  -15.6095 C   0  0  0  0  0  0  0  0  0  0  0  0
  -10.7986   28.0475  -16.1213 C   0  0  0  0  0  0  0  0  0  0  0  0
  -11.0989   27.7184  -17.4579 N   0  0  0  0  0  0  0  0  0  0  0  0
  -10.8098   30.5535  -16.1802 N   0  0  0  0  0  0  0  0  0  0  0  0
  -10.5922   31.4948  -15.2181 C   0  0  0  0  0  0  0  0  0  0  0  0
  -10.3462   30.8618  -14.0635 N   0  0  0  0  0  0  0  0  0  0  0  0
   -1.3145   35.6845  -19.7933 N   0  0  0  0  0  0  0  0  0  0  0  0
   -2.0431   36.8232  -19.9311 C   0  0  0  0  0  0  0  0  0  0  0  0
   -3.0975   37.0551  -19.0934 N   0  0  0  0  0  0  0  0  0  0  0  0
   -3.4130   36.1549  -18.1236 C   0  0  0  0  0  0  0  0  0  0  0  0
   -2.6916   35.0251  -17.9780 C   0  0  0  0  0  0  0  0  0  0  0  0
   -1.6217   34.7949  -18.8381 C   0  0  0  0  0  0  0  0  0  0  0  0
   -0.7360   33.6595  -18.8764 N   0  0  0  0  0  0  0  0  0  0  0  0
   -3.2317   34.3295  -16.9487 N   0  0  0  0  0  0  0  0  0  0  0  0
   -4.2865   35.0415  -16.4585 C   0  0  0  0  0  0  0  0  0  0  0  0
   -4.3884   36.1698  -17.1897 N   0  0  0  0  0  0  0  0  0  0  0  0
  1  3  1  1  0  0  0
  1  5  2  0  0  0  0
  1  9  1  0  0  0  0
  1 18  1  0  0  0  0
  2  4  1  6  0  0  0
  2  6  2  0  0  0  0
  2 10  1  0  0  0  0
  2 17  1  0  0  0  0
  7  9  1  0  0  0  0
  8 10  1  0  0  0  0
 11  7  1  6  0  0  0
 11 13  1  0  0  0  0
 11 15  1  0  0  0  0
 12  8  1  1  0  0  0
 12 14  1  0  0  0  0
 12 16  1  0  0  0  0
 13 23  1  0  0  0  0
 14 24  1  0  0  0  0
 15 17  1  1  0  0  0
 15 19  1  0  0  0  0
 16 18  1  6  0  0  0
 16 20  1  0  0  0  0
 19 21  1  1  0  0  0
 19 23  1  0  0  0  0
 20 22  1  6  0  0  0
 20 24  1  0  0  0  0
 23 34  1  6  0  0  0
 24 44  1  1  0  0  0
 25 26  2  0  0  0  0
 25 30  1  0  0  0  0
 26 27  1  0  0  0  0
 27 28  2  0  0  0  0
 28 29  1  0  0  0  0
 28 34  1  0  0  0  0
 29 30  2  0  0  0  0
 29 32  1  0  0  0  0
 30 31  1  0  0  0  0
 32 33  2  0  0  0  0
 33 34  1  0  0  0  0
 35 36  2  0  0  0  0
 35 40  1  0  0  0  0
 36 37  1  0  0  0  0
 37 38  2  0  0  0  0
 38 39  1  0  0  0  0
 38 44  1  0  0  0  0
 39 40  2  0  0  0  0
 39 42  1  0  0  0  0
 40 41  1  0  0  0  0
 42 43  2  0  0  0  0
 43 44  1  0  0  0  0
M  CHG  2   3  -1   4  -1
M  END
>  <CHROM.1>
-157.14987006,-138.70437131,-7.44144328,33.93949085,-15.41969231,0.60671320
0.59206858,0.16363667

>  <Name>
ligand

>  <RI>
0

>  <Rbt.Current_Directory>
/home/itssahil/PROJECTS/Mol_Feturizer/New_Systems/rnas/4QLM

>  <Rbt.Executable>
rbdock ($Id: //depot/dev/client3/rdock/2013.1/src/exe/rbdock.cxx#4 $)

>  <Rbt.Library>
libRbt.so (2013.1, Build901 2013/11/27)

>  <Rbt.Parameter_File>
/export/apps/rDock/src/rDock_2013.1_src/data/scripts/dock_solv.prm

>  <Rbt.Receptor>
prm/pocket_docking_3.prm

>  <SCORE>
-18.2117

>  <SCORE.INTER>
-18.1718

>  <SCORE.INTER.CONST>
1

>  <SCORE.INTER.POLAR>
0

>  <SCORE.INTER.ROT>
2

>  <SCORE.INTER.SOLV>
37.4017

>  <SCORE.INTER.VDW>
-29.5151

>  <SCORE.INTER.norm>
-0.412995

>  <SCORE.INTRA>
-0.0399264

>  <SCORE.INTRA.DIHEDRAL>
-0.0212329

>  <SCORE.INTRA.DIHEDRAL.0>
2.32994

>  <SCORE.INTRA.POLAR>
0

>  <SCORE.INTRA.POLAR.0>
0

>  <SCORE.INTRA.REPUL>
0

>  <SCORE.INTRA.REPUL.0>
0

>  <SCORE.INTRA.SOLV>
0.00407763

>  <SCORE.INTRA.SOLV.lig_0>
-117.703

>  <SCORE.INTRA.VDW>
-0.0313487

>  <SCORE.INTRA.VDW.0>
-1.59997

>  <SCORE.INTRA.norm>
-0.000907417

>  <SCORE.RESTR>
0

>  <SCORE.RESTR.CAVITY>
0

>  <SCORE.RESTR.norm>
0

>  <SCORE.SYSTEM>
0

>  <SCORE.SYSTEM.CONST>
0

>  <SCORE.SYSTEM.DIHEDRAL>
0

>  <SCORE.SYSTEM.SOLV>
0

>  <SCORE.SYSTEM.norm>
0

>  <SCORE.heavy>
44

>  <SCORE.norm>
-0.413903

>  <RMSD>
1.040

$$$$
ligand
 OpenBabel11021811513D
libRbt.so/2013.1/901 2013/11/27
 44 50  0  0  0  0  0  0  0  0999 V2000
   -9.7642   35.8898  -16.4311 P   0  0  2  0  0  0  0  0  0  0  0  0
   -6.2763   34.2357  -12.6489 P   0  0  1  0  0  0  0  0  0  0  0  0
  -11.1495   36.4806  -16.1815 O   0  5  0  0  0  0  0  0  0  0  0  0
   -5.7198   32.9359  -13.1768 O   0  5  0  0  0  0  0  0  0  0  0  0
   -9.8141   35.2711  -17.8074 O   0  0  0  0  0  0  0  0  0  0  0  0
   -5.3854   34.6710  -11.4632 O   0  0  0  0  0  0  0  0  0  0  0  0
  -10.2195   35.1546  -14.0450 C   0  0  0  0  0  0  0  0  0  0  0  0
   -6.9828   36.4996  -13.6709 C   0  0  0  0  0  0  0  0  0  0  0  0
   -9.5512   34.8563  -15.2781 O   0  0  0  0  0  0  0  0  0  0  0  0
   -6.3578   35.2184  -13.9652 O   0  0  0  0  0  0  0  0  0  0  0  0
   -9.9659   34.0464  -13.0286 C   0  0  1  0  0  0  0  0  0  0  0  0
   -6.8566   37.3624  -14.9827 C   0  0  1  0  0  0  0  0  0  0  0  0
  -10.8325   33.1034  -13.2341 O   0  0  0  0  0  0  0  0  0  0  0  0
   -5.6288   37.3033  -15.3038 O   0  0  0  0  0  0  0  0  0  0  0  0
   -8.5990   33.4155  -13.1631 C   0  0  1  0  0  0  0  0  0  0  0  0
   -7.5486   36.6648  -16.1708 C   0  0  1  0  0  0  0  0  0  0  0  0
   -7.8164   33.9749  -12.2024 O   0  0  0  0  0  0  0  0  0  0  0  0
   -8.7488   37.2022  -16.4207 O   0  0  0  0  0  0  0  0  0  0  0  0
   -8.8584   31.9024  -12.8416 C   0  0  1  0  0  0  0  0  0  0  0  0
   -6.6070   36.8092  -17.3881 C   0  0  1  0  0  0  0  0  0  0  0  0
   -8.4319   31.5954  -11.4497 O   0  0  0  0  0  0  0  0  0  0  0  0
   -7.0979   37.8868  -18.3062 O   0  0  0  0  0  0  0  0  0  0  0  0
  -10.1285   31.7033  -12.9936 C   0  0  2  0  0  0  0  0  0  0  0  0
   -5.4692   37.1522  -16.8891 C   0  0  2  0  0  0  0  0  0  0  0  0
  -10.5498   26.9178  -15.3899 N   0  0  0  0  0  0  0  0  0  0  0  0
  -10.2704   27.1249  -14.0722 C   0  0  0  0  0  0  0  0  0  0  0  0
  -10.1854   28.3924  -13.5549 N   0  0  0  0  0  0  0  0  0  0  0  0
  -10.3835   29.4621  -14.3837 C   0  0  0  0  0  0  0  0  0  0  0  0
  -10.6519   29.2744  -15.6834 C   0  0  0  0  0  0  0  0  0  0  0  0
  -10.7458   27.9829  -16.1990 C   0  0  0  0  0  0  0  0  0  0  0  0
  -11.0212   27.6507  -17.5402 N   0  0  0  0  0  0  0  0  0  0  0  0
  -10.8036   30.4883  -16.2540 N   0  0  0  0  0  0  0  0  0  0  0  0
  -10.6173   31.4318  -15.2873 C   0  0  0  0  0  0  0  0  0  0  0  0
  -10.3754   30.8013  -14.1305 N   0  0  0  0  0  0  0  0  0  0  0  0
   -1.4806   35.6174  -19.8649 N   0  0  0  0  0  0  0  0  0  0  0  0
   -2.2541   36.7199  -20.0453 C   0  0  0  0  0  0  0  0  0  0  0  0
   -3.2734   36.9791  -19.1728 N   0  0  0  0  0  0  0  0  0  0  0  0
   -3.5094   36.1422  -18.1267 C   0  0  0  0  0  0  0  0  0  0  0  0
   -2.7431   35.0488  -17.9389 C   0  0  0  0  0  0  0  0  0  0  0  0
   -1.7095   34.7902  -18.8345 C   0  0  0  0  0  0  0  0  0  0  0  0
   -0.7880   33.6830  -18.8380 N   0  0  0  0  0  0  0  0  0  0  0  0
   -3.2074   34.4132  -16.8364 N   0  0  0  0  0  0  0  0  0  0  0  0
   -4.2609   35.1258  -16.3442 C   0  0  0  0  0  0  0  0  0  0  0  0
   -4.4377   36.1945  -17.1472 N   0  0  0  0  0  0  0  0  0  0  0  0
  1  3  1  1  0  0  0
  1  5  2  0  0  0  0
  1  9  1  0  0  0  0
  1 18  1  0  0  0  0
  2  4  1  6  0  0  0
  2  6  2  0  0  0  0
  2 10  1  0  0  0  0
  2 17  1  0  0  0  0
  7  9  1  0  0  0  0
  8 10  1  0  0  0  0
 11  7  1  6  0  0  0
 11 13  1  0  0  0  0
 11 15  1  0  0  0  0
 12  8  1  1  0  0  0
 12 14  1  0  0  0  0
 12 16  1  0  0  0  0
 13 23  1  0  0  0  0
 14 24  1  0  0  0  0
 15 17  1  1  0  0  0
 15 19  1  0  0  0  0
 16 18  1  6  0  0  0
 16 20  1  0  0  0  0
 19 21  1  1  0  0  0
 19 23  1  0  0  0  0
 20 22  1  6  0  0  0
 20 24  1  0  0  0  0
 23 34  1  6  0  0  0
 24 44  1  1  0  0  0
 25 26  2  0  0  0  0
 25 30  1  0  0  0  0
 26 27  1  0  0  0  0
 27 28  2  0  0  0  0
 28 29  1  0  0  0  0
 28 34  1  0  0  0  0
 29 30  2  0  0  0  0
 29 32  1  0  0  0  0
 30 31  1  0  0  0  0
 32 33  2  0  0  0  0
 33 34  1  0  0  0  0
 35 36  2  0  0  0  0
 35 40  1  0  0  0  0
 36 37  1  0  0  0  0
 37 38  2  0  0  0  0
 38 39  1  0  0  0  0
 38 44  1  0  0  0  0
 39 40  2  0  0  0  0
 39 42  1  0  0  0  0
 40 41  1  0  0  0  0
 42 43  2  0  0  0  0
 43 44  1  0  0  0  0
M  CHG  2   3  -1   4  -1
M  END
>  <CHROM.1>
-157.51355322,-144.50664231,-7.50230791,33.90993751,-15.44635900,0.60539353
0.60859087,0.18814121

>  <Name>
ligand

>  <RI>
0

>  <Rbt.Current_Directory>
/home/itssahil/PROJECTS/Mol_Feturizer/New_Systems/rnas/4QLM

>  <Rbt.Executable>
rbdock ($Id: //depot/dev/client3/rdock/2013.1/src/exe/rbdock.cxx#4 $)

>  <Rbt.Library>
libRbt.so (2013.1, Build901 2013/11/27)

>  <Rbt.Parameter_File>
/export/apps/rDock/src/rDock_2013.1_src/data/scripts/dock_solv.prm

>  <Rbt.Receptor>
prm/pocket_docking_2.prm

>  <SCORE>
-18.0454

>  <SCORE.INTER>
-18.0144

>  <SCORE.INTER.CONST>
1

>  <SCORE.INTER.POLAR>
0

>  <SCORE.INTER.ROT>
2

>  <SCORE.INTER.SOLV>
37.3018

>  <SCORE.INTER.VDW>
-29.3768

>  <SCORE.INTER.norm>
-0.409417

>  <SCORE.INTRA>
-0.0330755

>  <SCORE.INTRA.DIHEDRAL>
-0.0192782

>  <SCORE.INTRA.DIHEDRAL.0>
2.32994

>  <SCORE.INTRA.POLAR>
0

>  <SCORE.INTRA.POLAR.0>
0

>  <SCORE.INTRA.REPUL>
0

>  <SCORE.INTRA.REPUL.0>
0

>  <SCORE.INTRA.SOLV>
0.00493161

>  <SCORE.INTRA.SOLV.lig_0>
-117.703

>  <SCORE.INTRA.VDW>
-0.0259022

>  <SCORE.INTRA.VDW.0>
-1.59997

>  <SCORE.INTRA.norm>
-0.000751717

>  <SCORE.RESTR>
0.00208513

>  <SCORE.RESTR.CAVITY>
0.00208513

>  <SCORE.RESTR.norm>
4.73894e-05

>  <SCORE.SYSTEM>
0

>  <SCORE.SYSTEM.CONST>
0

>  <SCORE.SYSTEM.DIHEDRAL>
0

>  <SCORE.SYSTEM.SOLV>
0

>  <SCORE.SYSTEM.norm>
0

>  <SCORE.heavy>
44

>  <SCORE.norm>
-0.410122

>  <RMSD>
1.077

$$$$
ligand
 OpenBabel11021811513D
libRbt.so/2013.1/901 2013/11/27
 44 50  0  0  0  0  0  0  0  0999 V2000
   -9.7794   35.8748  -16.4311 P   0  0  2  0  0  0  0  0  0  0  0  0
   -6.2915   34.2428  -12.6394 P   0  0  1  0  0  0  0  0  0  0  0  0
  -11.1678   36.4601  -16.1851 O   0  5  0  0  0  0  0  0  0  0  0  0
   -5.7285   32.9444  -13.1638 O   0  5  0  0  0  0  0  0  0  0  0  0
   -9.8241   35.2533  -17.8063 O   0  0  0  0  0  0  0  0  0  0  0  0
   -5.4047   34.6841  -11.4529 O   0  0  0  0  0  0  0  0  0  0  0  0
  -10.2361   35.1421  -14.0444 C   0  0  0  0  0  0  0  0  0  0  0  0
   -7.0059   36.5017  -13.6669 C   0  0  0  0  0  0  0  0  0  0  0  0
   -9.5642   34.8444  -15.2758 O   0  0  0  0  0  0  0  0  0  0  0  0
   -6.3748   35.2226  -13.9577 O   0  0  0  0  0  0  0  0  0  0  0  0
   -9.9796   34.0369  -13.0255 C   0  0  1  0  0  0  0  0  0  0  0  0
   -6.8809   37.3626  -14.9802 C   0  0  1  0  0  0  0  0  0  0  0  0
  -10.8417   33.0898  -13.2308 O   0  0  0  0  0  0  0  0  0  0  0  0
   -5.6523   37.3081  -15.2988 O   0  0  0  0  0  0  0  0  0  0  0  0
   -8.6098   33.4117  -13.1563 C   0  0  1  0  0  0  0  0  0  0  0  0
   -7.5677   36.6598  -16.1682 C   0  0  1  0  0  0  0  0  0  0  0  0
   -7.8313   33.9762  -12.1952 O   0  0  0  0  0  0  0  0  0  0  0  0
   -8.7697   37.1916  -16.4213 O   0  0  0  0  0  0  0  0  0  0  0  0
   -8.8633   31.8981  -12.8325 C   0  0  1  0  0  0  0  0  0  0  0  0
   -6.6244   36.8060  -17.3840 C   0  0  1  0  0  0  0  0  0  0  0  0
   -8.4380   31.5955  -11.4392 O   0  0  0  0  0  0  0  0  0  0  0  0
   -7.1183   37.8798  -18.3050 O   0  0  0  0  0  0  0  0  0  0  0  0
  -10.1321   31.6933  -12.9864 C   0  0  2  0  0  0  0  0  0  0  0  0
   -5.4891   37.1548  -16.8836 C   0  0  2  0  0  0  0  0  0  0  0  0
  -10.7226   26.9009  -15.3328 N   0  0  0  0  0  0  0  0  0  0  0  0
  -10.5028   27.1138  -14.0049 C   0  0  0  0  0  0  0  0  0  0  0  0
  -10.3666   28.3827  -13.5020 N   0  0  0  0  0  0  0  0  0  0  0  0
  -10.4516   29.4476  -14.3559 C   0  0  0  0  0  0  0  0  0  0  0  0
  -10.6602   29.2537  -15.6656 C   0  0  0  0  0  0  0  0  0  0  0  0
  -10.8070   27.9614  -16.1669 C   0  0  0  0  0  0  0  0  0  0  0  0
  -11.0293   27.6230  -17.5163 N   0  0  0  0  0  0  0  0  0  0  0  0
  -10.7040   30.4643  -16.2613 N   0  0  0  0  0  0  0  0  0  0  0  0
  -10.5115   31.4115  -15.2995 C   0  0  0  0  0  0  0  0  0  0  0  0
  -10.3731   30.7881  -14.1221 N   0  0  0  0  0  0  0  0  0  0  0  0
   -1.4563   35.6585  -19.8192 N   0  0  0  0  0  0  0  0  0  0  0  0
   -2.2283   36.7624  -19.9977 C   0  0  0  0  0  0  0  0  0  0  0  0
   -3.2603   37.0105  -19.1371 N   0  0  0  0  0  0  0  0  0  0  0  0
   -3.5106   36.1611  -18.1045 C   0  0  0  0  0  0  0  0  0  0  0  0
   -2.7460   35.0661  -17.9185 C   0  0  0  0  0  0  0  0  0  0  0  0
   -1.6993   34.8190  -18.8020 C   0  0  0  0  0  0  0  0  0  0  0  0
   -0.7767   33.7127  -18.8052 N   0  0  0  0  0  0  0  0  0  0  0  0
   -3.2256   34.4172  -16.8304 N   0  0  0  0  0  0  0  0  0  0  0  0
   -4.2868   35.1231  -16.3451 C   0  0  0  0  0  0  0  0  0  0  0  0
   -4.4530   36.2010  -17.1379 N   0  0  0  0  0  0  0  0  0  0  0  0
  1  3  1  1  0  0  0
  1  5  2  0  0  0  0
  1  9  1  0  0  0  0
  1 18  1  0  0  0  0
  2  4  1  6  0  0  0
  2  6  2  0  0  0  0
  2 10  1  0  0  0  0
  2 17  1  0  0  0  0
  7  9  1  0  0  0  0
  8 10  1  0  0  0  0
 11  7  1  6  0  0  0
 11 13  1  0  0  0  0
 11 15  1  0  0  0  0
 12  8  1  1  0  0  0
 12 14  1  0  0  0  0
 12 16  1  0  0  0  0
 13 23  1  0  0  0  0
 14 24  1  0  0  0  0
 15 17  1  1  0  0  0
 15 19  1  0  0  0  0
 16 18  1  6  0  0  0
 16 20  1  0  0  0  0
 19 21  1  1  0  0  0
 19 23  1  0  0  0  0
 20 22  1  6  0  0  0
 20 24  1  0  0  0  0
 23 34  1  6  0  0  0
 24 44  1  1  0  0  0
 25 26  2  0  0  0  0
 25 30  1  0  0  0  0
 26 27  1  0  0  0  0
 27 28  2  0  0  0  0
 28 29  1  0  0  0  0
 28 34  1  0  0  0  0
 29 30  2  0  0  0  0
 29 32  1  0  0  0  0
 30 31  1  0  0  0  0
 32 33  2  0  0  0  0
 33 34  1  0  0  0  0
 35 36  2  0  0  0  0
 35 40  1  0  0  0  0
 36 37  1  0  0  0  0
 37 38  2  0  0  0  0
 38 39  1  0  0  0  0
 38 44  1  0  0  0  0
 39 40  2  0  0  0  0
 39 42  1  0  0  0  0
 40 41  1  0  0  0  0
 42 43  2  0  0  0  0
 43 44  1  0  0  0  0
M  CHG  2   3  -1   4  -1
M  END
>  <CHROM.1>
-152.55398354,-143.42287410,-7.52151914,33.90821911,-15.43309868,0.60312575
0.60859578,0.19441842

>  <Name>
ligand

>  <RI>
0

>  <Rbt.Current_Directory>
/home/itssahil/PROJECTS/Mol_Feturizer/New_Systems/rnas/4QLM

>  <Rbt.Executable>
rbdock ($Id: //depot/dev/client3/rdock/2013.1/src/exe/rbdock.cxx#4 $)

>  <Rbt.Library>
libRbt.so (2013.1, Build901 2013/11/27)

>  <Rbt.Parameter_File>
/export/apps/rDock/src/rDock_2013.1_src/data/scripts/dock_solv.prm

>  <Rbt.Receptor>
prm/pocket_docking_2.prm

>  <SCORE>
-18.0281

>  <SCORE.INTER>
-17.9621

>  <SCORE.INTER.CONST>
1

>  <SCORE.INTER.POLAR>
0

>  <SCORE.INTER.ROT>
2

>  <SCORE.INTER.SOLV>
37.2603

>  <SCORE.INTER.VDW>
-29.3281

>  <SCORE.INTER.norm>
-0.408228

>  <SCORE.INTRA>
-0.0733934

>  <SCORE.INTRA.DIHEDRAL>
-0.024216

>  <SCORE.INTRA.DIHEDRAL.0>
2.32994

>  <SCORE.INTRA.POLAR>
0

>  <SCORE.INTRA.POLAR.0>
0

>  <SCORE.INTRA.REPUL>
0

>  <SCORE.INTRA.REPUL.0>
0

>  <SCORE.INTRA.SOLV>
0.00348439

>  <SCORE.INTRA.SOLV.lig_0>
-117.703

>  <SCORE.INTRA.VDW>
-0.0630276

>  <SCORE.INTRA.VDW.0>
-1.59997

>  <SCORE.INTRA.norm>
-0.00166803

>  <SCORE.RESTR>
0.00732556

>  <SCORE.RESTR.CAVITY>
0.00732556

>  <SCORE.RESTR.norm>
0.00016649

>  <SCORE.SYSTEM>
0

>  <SCORE.SYSTEM.CONST>
0

>  <SCORE.SYSTEM.DIHEDRAL>
0

>  <SCORE.SYSTEM.SOLV>
0

>  <SCORE.SYSTEM.norm>
0

>  <SCORE.heavy>
44

>  <SCORE.norm>
-0.40973

>  <RMSD>
1.082

$$$$
ligand
 OpenBabel11021811513D
libRbt.so/2013.1/901 2013/11/27
 44 50  0  0  0  0  0  0  0  0999 V2000
   -9.7795   35.8796  -16.4278 P   0  0  2  0  0  0  0  0  0  0  0  0
   -6.2859   34.2283  -12.6497 P   0  0  1  0  0  0  0  0  0  0  0  0
  -11.1655   36.4683  -16.1767 O   0  5  0  0  0  0  0  0  0  0  0  0
   -5.7281   32.9295  -13.1789 O   0  5  0  0  0  0  0  0  0  0  0  0
   -9.8298   35.2616  -17.8044 O   0  0  0  0  0  0  0  0  0  0  0  0
   -5.3946   34.6641  -11.4646 O   0  0  0  0  0  0  0  0  0  0  0  0
  -10.2317   35.1424  -14.0417 C   0  0  0  0  0  0  0  0  0  0  0  0
   -6.9966   36.4917  -13.6697 C   0  0  0  0  0  0  0  0  0  0  0  0
   -9.5641   34.8458  -15.2757 O   0  0  0  0  0  0  0  0  0  0  0  0
   -6.3700   35.2116  -13.9654 O   0  0  0  0  0  0  0  0  0  0  0  0
   -9.9756   34.0340  -13.0262 C   0  0  1  0  0  0  0  0  0  0  0  0
   -6.8727   37.3555  -14.9812 C   0  0  1  0  0  0  0  0  0  0  0  0
  -10.8410   33.0899  -13.2315 O   0  0  0  0  0  0  0  0  0  0  0  0
   -5.6452   37.2983  -15.3034 O   0  0  0  0  0  0  0  0  0  0  0  0
   -8.6080   33.4051  -13.1623 C   0  0  1  0  0  0  0  0  0  0  0  0
   -7.5648   36.6576  -16.1691 C   0  0  1  0  0  0  0  0  0  0  0  0
   -7.8253   33.9650  -12.2019 O   0  0  0  0  0  0  0  0  0  0  0  0
   -8.7660   37.1935  -16.4176 O   0  0  0  0  0  0  0  0  0  0  0  0
   -8.8650   31.8915  -12.8414 C   0  0  1  0  0  0  0  0  0  0  0  0
   -6.6245   36.8040  -17.3871 C   0  0  1  0  0  0  0  0  0  0  0  0
   -8.4368   31.5842  -11.4501 O   0  0  0  0  0  0  0  0  0  0  0  0
   -7.1178   37.8815  -18.3041 O   0  0  0  0  0  0  0  0  0  0  0  0
  -10.1348   31.6907  -12.9924 C   0  0  2  0  0  0  0  0  0  0  0  0
   -5.4868   37.1484  -16.8890 C   0  0  2  0  0  0  0  0  0  0  0  0
  -10.6339   26.9042  -15.3718 N   0  0  0  0  0  0  0  0  0  0  0  0
  -10.3775   27.1115  -14.0495 C   0  0  0  0  0  0  0  0  0  0  0  0
  -10.2695   28.3793  -13.5372 N   0  0  0  0  0  0  0  0  0  0  0  0
  -10.4204   29.4490  -14.3758 C   0  0  0  0  0  0  0  0  0  0  0  0
  -10.6657   29.2609  -15.6800 C   0  0  0  0  0  0  0  0  0  0  0  0
  -10.7835   27.9694  -16.1907 C   0  0  0  0  0  0  0  0  0  0  0  0
  -11.0387   27.6369  -17.5358 N   0  0  0  0  0  0  0  0  0  0  0  0
  -10.7721   30.4752  -16.2602 N   0  0  0  0  0  0  0  0  0  0  0  0
  -10.5811   31.4189  -15.2948 C   0  0  0  0  0  0  0  0  0  0  0  0
  -10.3816   30.7890  -14.1296 N   0  0  0  0  0  0  0  0  0  0  0  0
   -1.4678   35.6464  -19.8406 N   0  0  0  0  0  0  0  0  0  0  0  0
   -2.2372   36.7528  -20.0145 C   0  0  0  0  0  0  0  0  0  0  0  0
   -3.2658   37.0021  -19.1501 N   0  0  0  0  0  0  0  0  0  0  0  0
   -3.5150   36.1515  -18.1182 C   0  0  0  0  0  0  0  0  0  0  0  0
   -2.7528   35.0541  -17.9368 C   0  0  0  0  0  0  0  0  0  0  0  0
   -1.7097   34.8057  -18.8242 C   0  0  0  0  0  0  0  0  0  0  0  0
   -0.7901   33.6969  -18.8325 N   0  0  0  0  0  0  0  0  0  0  0  0
   -3.2306   34.4045  -16.8483 N   0  0  0  0  0  0  0  0  0  0  0  0
   -4.2882   35.1124  -16.3583 C   0  0  0  0  0  0  0  0  0  0  0  0
   -4.4541   36.1922  -17.1485 N   0  0  0  0  0  0  0  0  0  0  0  0
  1  3  1  1  0  0  0
  1  5  2  0  0  0  0
  1  9  1  0  0  0  0
  1 18  1  0  0  0  0
  2  4  1  6  0  0  0
  2  6  2  0  0  0  0
  2 10  1  0  0  0  0
  2 17  1  0  0  0  0
  7  9  1  0  0  0  0
  8 10  1  0  0  0  0
 11  7  1  6  0  0  0
 11 13  1  0  0  0  0
 11 15  1  0  0  0  0
 12  8  1  1  0  0  0
 12 14  1  0  0  0  0
 12 16  1  0  0  0  0
 13 23  1  0  0  0  0
 14 24  1  0  0  0  0
 15 17  1  1  0  0  0
 15 19  1  0  0  0  0
 16 18  1  6  0  0  0
 16 20  1  0  0  0  0
 19 21  1  1  0  0  0
 19 23  1  0  0  0  0
 20 22  1  6  0  0  0
 20 24  1  0  0  0  0
 23 34  1  6  0  0  0
 24 44  1  1  0  0  0
 25 26  2  0  0  0  0
 25 30  1  0  0  0  0
 26 27  1  0  0  0  0
 27 28  2  0  0  0  0
 28 29  1  0  0  0  0
 28 34  1  0  0  0  0
 29 30  2  0  0  0  0
 29 32  1  0  0  0  0
 30 31  1  0  0  0  0
 32 33  2  0  0  0  0
 33 34  1  0  0  0  0
 35 36  2  0  0  0  0
 35 40  1  0  0  0  0
 36 37  1  0  0  0  0
 37 38  2  0  0  0  0
 38 39  1  0  0  0  0
 38 44  1  0  0  0  0
 39 40  2  0  0  0  0
 39 42  1  0  0  0  0
 40 41  1  0  0  0  0
 42 43  2  0  0  0  0
 43 44  1  0  0  0  0
M  CHG  2   3  -1   4  -1
M  END
>  <CHROM.1>
-155.40086470,-143.46966075,-7.51715475,33.90408968,-15.44264204,0.60603985
0.60697494,0.18877207

>  <Name>
ligand

>  <RI>
0

>  <Rbt.Current_Directory>
/home/itssahil/PROJECTS/Mol_Feturizer/New_Systems/rnas/4QLM

>  <Rbt.Executable>
rbdock ($Id: //depot/dev/client3/rdock/2013.1/src/exe/rbdock.cxx#4 $)

>  <Rbt.Library>
libRbt.so (2013.1, Build901 2013/11/27)

>  <Rbt.Parameter_File>
/export/apps/rDock/src/rDock_2013.1_src/data/scripts/dock_solv.prm

>  <Rbt.Receptor>
prm/pocket_docking_2.prm

>  <SCORE>
-18.0918

>  <SCORE.INTER>
-18.0371

>  <SCORE.INTER.CONST>
1

>  <SCORE.INTER.POLAR>
0

>  <SCORE.INTER.ROT>
2

>  <SCORE.INTER.SOLV>
37.3173

>  <SCORE.INTER.VDW>
-29.3972

>  <SCORE.INTER.norm>
-0.409934

>  <SCORE.INTRA>
-0.0547001

>  <SCORE.INTRA.DIHEDRAL>
-0.0223271

>  <SCORE.INTRA.DIHEDRAL.0>
2.32994

>  <SCORE.INTRA.POLAR>
0

>  <SCORE.INTRA.POLAR.0>
0

>  <SCORE.INTRA.REPUL>
0

>  <SCORE.INTRA.REPUL.0>
0

>  <SCORE.INTRA.SOLV>
0.00422184

>  <SCORE.INTRA.SOLV.lig_0>
-117.703

>  <SCORE.INTRA.VDW>
-0.0456475

>  <SCORE.INTRA.VDW.0>
-1.59997

>  <SCORE.INTRA.norm>
-0.00124318

>  <SCORE.RESTR>
0

>  <SCORE.RESTR.CAVITY>
0

>  <SCORE.RESTR.norm>
0

>  <SCORE.SYSTEM>
0

>  <SCORE.SYSTEM.CONST>
0

>  <SCORE.SYSTEM.DIHEDRAL>
0

>  <SCORE.SYSTEM.SOLV>
0

>  <SCORE.SYSTEM.norm>
0

>  <SCORE.heavy>
44

>  <SCORE.norm>
-0.411177

>  <RMSD>
1.083

$$$$
ligand
 OpenBabel11021811513D
libRbt.so/2013.1/901 2013/11/27
 44 50  0  0  0  0  0  0  0  0999 V2000
   -8.6905   36.2310  -16.1575 P   0  0  2  0  0  0  0  0  0  0  0  0
   -4.5765   34.4675  -13.1291 P   0  0  1  0  0  0  0  0  0  0  0  0
  -10.0125   36.7928  -15.6408 O   0  5  0  0  0  0  0  0  0  0  0  0
   -4.1157   33.1979  -13.8027 O   0  5  0  0  0  0  0  0  0  0  0  0
   -8.9810   35.6691  -17.5284 O   0  0  0  0  0  0  0  0  0  0  0  0
   -3.4913   34.8649  -12.1027 O   0  0  0  0  0  0  0  0  0  0  0  0
   -8.7102   35.3919  -13.7623 C   0  0  0  0  0  0  0  0  0  0  0  0
   -5.4659   36.7622  -13.9111 C   0  0  0  0  0  0  0  0  0  0  0  0
   -8.2702   35.1536  -15.1062 O   0  0  0  0  0  0  0  0  0  0  0  0
   -4.8963   35.5026  -14.3665 O   0  0  0  0  0  0  0  0  0  0  0  0
   -8.2738   34.2460  -12.8557 C   0  0  1  0  0  0  0  0  0  0  0  0
   -5.5798   37.6802  -15.1862 C   0  0  1  0  0  0  0  0  0  0  0  0
   -9.1579   33.3011  -12.9445 O   0  0  0  0  0  0  0  0  0  0  0  0
   -4.4283   37.6503  -15.7222 O   0  0  0  0  0  0  0  0  0  0  0  0
   -6.9492   33.6391  -13.2576 C   0  0  1  0  0  0  0  0  0  0  0  0
   -6.4682   37.0233  -16.2615 C   0  0  1  0  0  0  0  0  0  0  0  0
   -6.0112   34.1684  -12.4279 O   0  0  0  0  0  0  0  0  0  0  0  0
   -7.6966   37.5550  -16.2711 O   0  0  0  0  0  0  0  0  0  0  0  0
   -7.1390   32.1107  -12.9606 C   0  0  1  0  0  0  0  0  0  0  0  0
   -5.7589   37.2302  -17.6192 C   0  0  1  0  0  0  0  0  0  0  0  0
   -6.4701   31.7519  -11.6810 O   0  0  0  0  0  0  0  0  0  0  0  0
   -6.4112   38.3384  -18.3884 O   0  0  0  0  0  0  0  0  0  0  0  0
   -8.4147   31.9016  -12.8932 C   0  0  2  0  0  0  0  0  0  0  0  0
   -4.5525   37.5671  -17.3158 C   0  0  2  0  0  0  0  0  0  0  0  0
  -10.4770   27.4463  -15.0654 N   0  0  0  0  0  0  0  0  0  0  0  0
  -10.3282   27.6848  -13.7319 C   0  0  0  0  0  0  0  0  0  0  0  0
   -9.7890   28.8611  -13.2767 N   0  0  0  0  0  0  0  0  0  0  0  0
   -9.3937   29.8049  -14.1840 C   0  0  0  0  0  0  0  0  0  0  0  0
   -9.5271   29.5817  -15.4988 C   0  0  0  0  0  0  0  0  0  0  0  0
  -10.0847   28.3877  -15.9527 C   0  0  0  0  0  0  0  0  0  0  0  0
  -10.2796   28.0315  -17.3019 N   0  0  0  0  0  0  0  0  0  0  0  0
   -9.0662   30.6695  -16.1520 N   0  0  0  0  0  0  0  0  0  0  0  0
   -8.6382   31.5677  -15.2197 C   0  0  0  0  0  0  0  0  0  0  0  0
   -8.8550   31.0442  -14.0060 N   0  0  0  0  0  0  0  0  0  0  0  0
   -0.8353   36.4128  -20.7756 N   0  0  0  0  0  0  0  0  0  0  0  0
   -1.5765   37.5506  -20.7258 C   0  0  0  0  0  0  0  0  0  0  0  0
   -2.5239   37.6966  -19.7520 N   0  0  0  0  0  0  0  0  0  0  0  0
   -2.7207   36.7119  -18.8343 C   0  0  0  0  0  0  0  0  0  0  0  0
   -1.9857   35.5821  -18.8748 C   0  0  0  0  0  0  0  0  0  0  0  0
   -1.0256   35.4400  -19.8725 C   0  0  0  0  0  0  0  0  0  0  0  0
   -0.1494   34.3227  -20.1149 N   0  0  0  0  0  0  0  0  0  0  0  0
   -2.3986   34.7935  -17.8538 N   0  0  0  0  0  0  0  0  0  0  0  0
   -3.3884   35.4480  -17.1816 C   0  0  0  0  0  0  0  0  0  0  0  0
   -3.5780   36.6343  -17.7938 N   0  0  0  0  0  0  0  0  0  0  0  0
  1  3  1  1  0  0  0
  1  5  2  0  0  0  0
  1  9  1  0  0  0  0
  1 18  1  0  0  0  0
  2  4  1  6  0  0  0
  2  6  2  0  0  0  0
  2 10  1  0  0  0  0
  2 17  1  0  0  0  0
  7  9  1  0  0  0  0
  8 10  1  0  0  0  0
 11  7  1  6  0  0  0
 11 13  1  0  0  0  0
 11 15  1  0  0  0  0
 12  8  1  1  0  0  0
 12 14  1  0  0  0  0
 12 16  1  0  0  0  0
 13 23  1  0  0  0  0
 14 24  1  0  0  0  0
 15 17  1  1  0  0  0
 15 19  1  0  0  0  0
 16 18  1  6  0  0  0
 16 20  1  0  0  0  0
 19 21  1  1  0  0  0
 19 23  1  0  0  0  0
 20 22  1  1  0  0  0
 20 24  1  0  0  0  0
 23 34  1  6  0  0  0
 24 44  1  1  0  0  0
 25 26  2  0  0  0  0
 25 30  1  0  0  0  0
 26 27  1  0  0  0  0
 27 28  2  0  0  0  0
 28 29  1  0  0  0  0
 28 34  1  0  0  0  0
 29 30  2  0  0  0  0
 29 32  1  0  0  0  0
 30 31  1  0  0  0  0
 32 33  2  0  0  0  0
 33 34  1  0  0  0  0
 35 36  2  0  0  0  0
 35 40  1  0  0  0  0
 36 37  1  0  0  0  0
 37 38  2  0  0  0  0
 38 39  1  0  0  0  0
 38 44  1  0  0  0  0
 39 40  2  0  0  0  0
 39 42  1  0  0  0  0
 40 41  1  0  0  0  0
 42 43  2  0  0  0  0
 43 44  1  0  0  0  0
M  CHG  2   3  -1   4  -1
M  END
>  <CHROM.1>
-124.40551467,-135.15300342,-6.33889366,34.27074971,-15.63446554,2.66810554
-0.77796364,-2.77909021

>  <Name>
ligand

>  <RI>
0

>  <Rbt.Current_Directory>
/home/itssahil/PROJECTS/Mol_Feturizer/New_Systems/rnas/4QLM

>  <Rbt.Executable>
rbdock ($Id: //depot/dev/client3/rdock/2013.1/src/exe/rbdock.cxx#4 $)

>  <Rbt.Library>
libRbt.so (2013.1, Build901 2013/11/27)

>  <Rbt.Parameter_File>
/export/apps/rDock/src/rDock_2013.1_src/data/scripts/dock_solv.prm

>  <Rbt.Receptor>
prm/pocket_docking_4.prm

>  <SCORE>
-24.334

>  <SCORE.INTER>
-24.7907

>  <SCORE.INTER.CONST>
1

>  <SCORE.INTER.POLAR>
0

>  <SCORE.INTER.ROT>
2

>  <SCORE.INTER.SOLV>
34.7857

>  <SCORE.INTER.VDW>
-33.0557

>  <SCORE.INTER.norm>
-0.563425

>  <SCORE.INTRA>
0.456698

>  <SCORE.INTRA.DIHEDRAL>
0.0629228

>  <SCORE.INTRA.DIHEDRAL.0>
2.32994

>  <SCORE.INTRA.POLAR>
0

>  <SCORE.INTRA.POLAR.0>
0

>  <SCORE.INTRA.REPUL>
0

>  <SCORE.INTRA.REPUL.0>
0

>  <SCORE.INTRA.SOLV>
-0.00264094

>  <SCORE.INTRA.SOLV.lig_0>
-117.703

>  <SCORE.INTRA.VDW>
0.426557

>  <SCORE.INTRA.VDW.0>
-1.59997

>  <SCORE.INTRA.norm>
0.0103795

>  <SCORE.RESTR>
0

>  <SCORE.RESTR.CAVITY>
0

>  <SCORE.RESTR.norm>
0

>  <SCORE.SYSTEM>
0

>  <SCORE.SYSTEM.CONST>
0

>  <SCORE.SYSTEM.DIHEDRAL>
0

>  <SCORE.SYSTEM.SOLV>
0

>  <SCORE.SYSTEM.norm>
0

>  <SCORE.heavy>
44

>  <SCORE.norm>
-0.553045

>  <RMSD>
1.086

$$$$
ligand
 OpenBabel11021811513D
libRbt.so/2013.1/901 2013/11/27
 44 50  0  0  0  0  0  0  0  0999 V2000
   -4.6128   35.0344  -12.8402 P   0  0  2  0  0  0  0  0  0  0  0  0
   -8.5713   36.3748  -16.2665 P   0  0  1  0  0  0  0  0  0  0  0  0
   -3.8701   35.9863  -11.9059 O   0  5  0  0  0  0  0  0  0  0  0  0
   -8.2574   35.6204  -17.5355 O   0  5  0  0  0  0  0  0  0  0  0  0
   -3.6671   33.8888  -13.1096 O   0  0  0  0  0  0  0  0  0  0  0  0
  -10.0153   36.9111  -16.3940 O   0  0  0  0  0  0  0  0  0  0  0  0
   -5.1399   37.2919  -13.8733 C   0  0  0  0  0  0  0  0  0  0  0  0
   -8.3771   35.9039  -13.7349 C   0  0  0  0  0  0  0  0  0  0  0  0
   -4.9502   35.8894  -14.1042 O   0  0  0  0  0  0  0  0  0  0  0  0
   -8.2381   35.3112  -15.0571 O   0  0  0  0  0  0  0  0  0  0  0  0
   -5.4143   38.0088  -15.1910 C   0  0  1  0  0  0  0  0  0  0  0  0
   -8.1639   34.7327  -12.7032 C   0  0  1  0  0  0  0  0  0  0  0  0
   -4.2748   38.2859  -15.7453 O   0  0  0  0  0  0  0  0  0  0  0  0
   -8.9498   33.8087  -13.0808 O   0  0  0  0  0  0  0  0  0  0  0  0
   -6.1834   37.1640  -16.1805 C   0  0  1  0  0  0  0  0  0  0  0  0
   -6.7754   34.0866  -12.8810 C   0  0  1  0  0  0  0  0  0  0  0  0
   -7.4796   37.5681  -16.1119 O   0  0  0  0  0  0  0  0  0  0  0  0
   -5.9143   34.5163  -11.9506 O   0  0  0  0  0  0  0  0  0  0  0  0
   -5.5617   37.5604  -17.5648 C   0  0  1  0  0  0  0  0  0  0  0  0
   -6.9764   32.5565  -12.7925 C   0  0  1  0  0  0  0  0  0  0  0  0
   -6.4594   38.5112  -18.2746 O   0  0  0  0  0  0  0  0  0  0  0  0
   -6.5519   32.0485  -11.4483 O   0  0  0  0  0  0  0  0  0  0  0  0
   -4.4138   38.1036  -17.3141 C   0  0  2  0  0  0  0  0  0  0  0  0
   -8.2443   32.3789  -12.9405 C   0  0  2  0  0  0  0  0  0  0  0  0
   -0.7362   36.6097  -20.9286 N   0  0  0  0  0  0  0  0  0  0  0  0
   -1.5734   37.6790  -21.0420 C   0  0  0  0  0  0  0  0  0  0  0  0
   -2.4808   37.9781  -20.0578 N   0  0  0  0  0  0  0  0  0  0  0  0
   -2.5418   37.1823  -18.9473 C   0  0  0  0  0  0  0  0  0  0  0  0
   -1.7299   36.1230  -18.8248 C   0  0  0  0  0  0  0  0  0  0  0  0
   -0.8041   35.8316  -19.8252 C   0  0  0  0  0  0  0  0  0  0  0  0
    0.1023   34.7530  -19.8183 N   0  0  0  0  0  0  0  0  0  0  0  0
   -2.0007   35.5286  -17.6434 N   0  0  0  0  0  0  0  0  0  0  0  0
   -2.9994   36.2334  -17.0392 C   0  0  0  0  0  0  0  0  0  0  0  0
   -3.3224   37.2629  -17.8329 N   0  0  0  0  0  0  0  0  0  0  0  0
  -10.3364   28.0539  -14.9500 N   0  0  0  0  0  0  0  0  0  0  0  0
  -10.2430   28.3776  -13.6336 C   0  0  0  0  0  0  0  0  0  0  0  0
   -9.6548   29.5558  -13.2686 N   0  0  0  0  0  0  0  0  0  0  0  0
   -9.1706   30.4026  -14.2167 C   0  0  0  0  0  0  0  0  0  0  0  0
   -9.2640   30.0900  -15.5251 C   0  0  0  0  0  0  0  0  0  0  0  0
   -9.8610   28.8862  -15.8879 C   0  0  0  0  0  0  0  0  0  0  0  0
  -10.0488   28.3462  -17.2101 N   0  0  0  0  0  0  0  0  0  0  0  0
   -8.7029   31.1051  -16.2250 N   0  0  0  0  0  0  0  0  0  0  0  0
   -8.2689   32.0466  -15.3389 C   0  0  0  0  0  0  0  0  0  0  0  0
   -8.5654   31.6042  -14.1002 N   0  0  0  0  0  0  0  0  0  0  0  0
  1  3  1  1  0  0  0
  1  5  2  0  0  0  0
  1  9  1  0  0  0  0
  1 18  1  0  0  0  0
  2  4  1  6  0  0  0
  2  6  2  0  0  0  0
  2 10  1  0  0  0  0
  2 17  1  0  0  0  0
  7  9  1  0  0  0  0
  8 10  1  0  0  0  0
 11  7  1  1  0  0  0
 11 13  1  0  0  0  0
 11 15  1  0  0  0  0
 12  8  1  6  0  0  0
 12 14  1  0  0  0  0
 12 16  1  0  0  0  0
 13 23  1  0  0  0  0
 14 24  1  0  0  0  0
 15 17  1  6  0  0  0
 15 19  1  0  0  0  0
 16 18  1  1  0  0  0
 16 20  1  0  0  0  0
 19 21  1  1  0  0  0
 19 23  1  0  0  0  0
 20 22  1  1  0  0  0
 20 24  1  0  0  0  0
 23 34  1  1  0  0  0
 24 44  1  6  0  0  0
 25 26  2  0  0  0  0
 25 30  1  0  0  0  0
 26 27  1  0  0  0  0
 27 28  2  0  0  0  0
 28 29  1  0  0  0  0
 28 34  1  0  0  0  0
 29 30  2  0  0  0  0
 29 32  1  0  0  0  0
 30 31  1  0  0  0  0
 32 33  2  0  0  0  0
 33 34  1  0  0  0  0
 35 36  2  0  0  0  0
 35 40  1  0  0  0  0
 36 37  1  0  0  0  0
 37 38  2  0  0  0  0
 38 39  1  0  0  0  0
 38 44  1  0  0  0  0
 39 40  2  0  0  0  0
 39 42  1  0  0  0  0
 40 41  1  0  0  0  0
 42 43  2  0  0  0  0
 43 44  1  0  0  0  0
M  CHG  2   3  -1   4  -1
M  END
>  <CHROM.1>
-144.06658458,-122.35760810,-6.17089572,34.70117765,-15.57993543,0.05987500
0.87599766,0.88608910

>  <Name>
ligand

>  <RI>
0

>  <Rbt.Current_Directory>
/home/itssahil/PROJECTS/Mol_Feturizer/New_Systems/rnas/4QLM

>  <Rbt.Executable>
rbdock ($Id: //depot/dev/client3/rdock/2013.1/src/exe/rbdock.cxx#4 $)

>  <Rbt.Library>
libRbt.so (2013.1, Build901 2013/11/27)

>  <Rbt.Parameter_File>
/export/apps/rDock/src/rDock_2013.1_src/data/scripts/dock_solv.prm

>  <Rbt.Receptor>
prm/pocket_docking_4.prm

>  <SCORE>
-21.8506

>  <SCORE.INTER>
-21.9407

>  <SCORE.INTER.CONST>
1

>  <SCORE.INTER.POLAR>
0

>  <SCORE.INTER.ROT>
2

>  <SCORE.INTER.SOLV>
34.3023

>  <SCORE.INTER.VDW>
-30.9946

>  <SCORE.INTER.norm>
-0.498653

>  <SCORE.INTRA>
0.0878139

>  <SCORE.INTRA.DIHEDRAL>
-0.0249749

>  <SCORE.INTRA.DIHEDRAL.0>
2.32994

>  <SCORE.INTRA.POLAR>
0

>  <SCORE.INTRA.POLAR.0>
0

>  <SCORE.INTRA.REPUL>
0

>  <SCORE.INTRA.REPUL.0>
0

>  <SCORE.INTRA.SOLV>
-1.49064e-05

>  <SCORE.INTRA.SOLV.lig_0>
-117.703

>  <SCORE.INTRA.VDW>
0.100309

>  <SCORE.INTRA.VDW.0>
-1.59997

>  <SCORE.INTRA.norm>
0.00199577

>  <SCORE.RESTR>
0.00231984

>  <SCORE.RESTR.CAVITY>
0.00231984

>  <SCORE.RESTR.norm>
5.27235e-05

>  <SCORE.SYSTEM>
0

>  <SCORE.SYSTEM.CONST>
0

>  <SCORE.SYSTEM.DIHEDRAL>
0

>  <SCORE.SYSTEM.SOLV>
0

>  <SCORE.SYSTEM.norm>
0

>  <SCORE.heavy>
44

>  <SCORE.norm>
-0.496605

>  <RMSD>
1.088

$$$$
ligand
 OpenBabel11021811513D
libRbt.so/2013.1/901 2013/11/27
 44 50  0  0  0  0  0  0  0  0999 V2000
   -9.7788   35.9026  -16.3985 P   0  0  2  0  0  0  0  0  0  0  0  0
   -6.2797   34.2134  -12.6424 P   0  0  1  0  0  0  0  0  0  0  0  0
  -11.1605   36.4976  -16.1390 O   0  5  0  0  0  0  0  0  0  0  0  0
   -5.7311   32.9142  -13.1801 O   0  5  0  0  0  0  0  0  0  0  0  0
   -9.8379   35.2916  -17.7779 O   0  0  0  0  0  0  0  0  0  0  0  0
   -5.3814   34.6384  -11.4586 O   0  0  0  0  0  0  0  0  0  0  0  0
  -10.2258   35.1561  -14.0143 C   0  0  0  0  0  0  0  0  0  0  0  0
   -6.9818   36.4857  -13.6484 C   0  0  0  0  0  0  0  0  0  0  0  0
   -9.5646   34.8619  -15.2523 O   0  0  0  0  0  0  0  0  0  0  0  0
   -6.3635   35.2036  -13.9529 O   0  0  0  0  0  0  0  0  0  0  0  0
   -9.9719   34.0413  -13.0053 C   0  0  1  0  0  0  0  0  0  0  0  0
   -6.8583   37.3552  -14.9562 C   0  0  1  0  0  0  0  0  0  0  0  0
  -10.8433   33.1030  -13.2117 O   0  0  0  0  0  0  0  0  0  0  0  0
   -5.6323   37.2928  -15.2834 O   0  0  0  0  0  0  0  0  0  0  0  0
   -8.6083   33.4056  -13.1498 C   0  0  1  0  0  0  0  0  0  0  0  0
   -7.5588   36.6670  -16.1447 C   0  0  1  0  0  0  0  0  0  0  0  0
   -7.8188   33.9564  -12.1898 O   0  0  0  0  0  0  0  0  0  0  0  0
   -8.7580   37.2107  -16.3858 O   0  0  0  0  0  0  0  0  0  0  0  0
   -8.8724   31.8918  -12.8354 C   0  0  1  0  0  0  0  0  0  0  0  0
   -6.6225   36.8142  -17.3656 C   0  0  1  0  0  0  0  0  0  0  0  0
   -8.4405   31.5753  -11.4473 O   0  0  0  0  0  0  0  0  0  0  0  0
   -7.1134   37.8989  -18.2755 O   0  0  0  0  0  0  0  0  0  0  0  0
  -10.1439   31.6988  -12.9823 C   0  0  2  0  0  0  0  0  0  0  0  0
   -5.4810   37.1498  -16.8703 C   0  0  2  0  0  0  0  0  0  0  0  0
  -10.6337   26.9273  -15.3937 N   0  0  0  0  0  0  0  0  0  0  0  0
  -10.3578   27.1262  -14.0741 C   0  0  0  0  0  0  0  0  0  0  0  0
  -10.2542   28.3908  -13.5529 N   0  0  0  0  0  0  0  0  0  0  0  0
  -10.4295   29.4658  -14.3799 C   0  0  0  0  0  0  0  0  0  0  0  0
  -10.6941   29.2861  -15.6814 C   0  0  0  0  0  0  0  0  0  0  0  0
  -10.8072   27.9977  -16.2010 C   0  0  0  0  0  0  0  0  0  0  0  0
  -11.0810   27.6738  -17.5445 N   0  0  0  0  0  0  0  0  0  0  0  0
  -10.8221   30.5040  -16.2495 N   0  0  0  0  0  0  0  0  0  0  0  0
  -10.6250   31.4415  -15.2794 C   0  0  0  0  0  0  0  0  0  0  0  0
  -10.4001   30.8041  -14.1230 N   0  0  0  0  0  0  0  0  0  0  0  0
   -1.4139   35.6946  -19.7791 N   0  0  0  0  0  0  0  0  0  0  0  0
   -2.1652   36.8163  -19.9329 C   0  0  0  0  0  0  0  0  0  0  0  0
   -3.2102   37.0501  -19.0841 N   0  0  0  0  0  0  0  0  0  0  0  0
   -3.4939   36.1686  -18.0876 C   0  0  0  0  0  0  0  0  0  0  0  0
   -2.7499   35.0558  -17.9262 C   0  0  0  0  0  0  0  0  0  0  0  0
   -1.6898   34.8235  -18.7976 C   0  0  0  0  0  0  0  0  0  0  0  0
   -0.7842   33.7035  -18.8226 N   0  0  0  0  0  0  0  0  0  0  0  0
   -3.2609   34.3763  -16.8715 N   0  0  0  0  0  0  0  0  0  0  0  0
   -4.3206   35.0814  -16.3819 C   0  0  0  0  0  0  0  0  0  0  0  0
   -4.4546   36.1893  -17.1386 N   0  0  0  0  0  0  0  0  0  0  0  0
  1  3  1  1  0  0  0
  1  5  2  0  0  0  0
  1  9  1  0  0  0  0
  1 18  1  0  0  0  0
  2  4  1  6  0  0  0
  2  6  2  0  0  0  0
  2 10  1  0  0  0  0
  2 17  1  0  0  0  0
  7  9  1  0  0  0  0
  8 10  1  0  0  0  0
 11  7  1  6  0  0  0
 11 13  1  0  0  0  0
 11 15  1  0  0  0  0
 12  8  1  1  0  0  0
 12 14  1  0  0  0  0
 12 16  1  0  0  0  0
 13 23  1  0  0  0  0
 14 24  1  0  0  0  0
 15 17  1  1  0  0  0
 15 19  1  0  0  0  0
 16 18  1  6  0  0  0
 16 20  1  0  0  0  0
 19 21  1  1  0  0  0
 19 23  1  0  0  0  0
 20 22  1  6  0  0  0
 20 24  1  0  0  0  0
 23 34  1  6  0  0  0
 24 44  1  1  0  0  0
 25 26  2  0  0  0  0
 25 30  1  0  0  0  0
 26 27  1  0  0  0  0
 27 28  2  0  0  0  0
 28 29  1  0  0  0  0
 28 34  1  0  0  0  0
 29 30  2  0  0  0  0
 29 32  1  0  0  0  0
 30 31  1  0  0  0  0
 32 33  2  0  0  0  0
 33 34  1  0  0  0  0
 35 36  2  0  0  0  0
 35 40  1  0  0  0  0
 36 37  1  0  0  0  0
 37 38  2  0  0  0  0
 38 39  1  0  0  0  0
 38 44  1  0  0  0  0
 39 40  2  0  0  0  0
 39 42  1  0  0  0  0
 40 41  1  0  0  0  0
 42 43  2  0  0  0  0
 43 44  1  0  0  0  0
M  CHG  2   3  -1   4  -1
M  END
>  <CHROM.1>
-156.55952385,-141.17210221,-7.51537287,33.91399026,-15.42764545,0.61019751
0.59556297,0.17933213

>  <Name>
ligand

>  <RI>
0

>  <Rbt.Current_Directory>
/home/itssahil/PROJECTS/Mol_Feturizer/New_Systems/rnas/4QLM

>  <Rbt.Executable>
rbdock ($Id: //depot/dev/client3/rdock/2013.1/src/exe/rbdock.cxx#4 $)

>  <Rbt.Library>
libRbt.so (2013.1, Build901 2013/11/27)

>  <Rbt.Parameter_File>
/export/apps/rDock/src/rDock_2013.1_src/data/scripts/dock_solv.prm

>  <Rbt.Receptor>
prm/pocket_docking_2.prm

>  <SCORE>
-18.0467

>  <SCORE.INTER>
-17.9994

>  <SCORE.INTER.CONST>
1

>  <SCORE.INTER.POLAR>
0

>  <SCORE.INTER.ROT>
2

>  <SCORE.INTER.SOLV>
37.4033

>  <SCORE.INTER.VDW>
-29.4007

>  <SCORE.INTER.norm>
-0.409078

>  <SCORE.INTRA>
-0.0474261

>  <SCORE.INTRA.DIHEDRAL>
-0.0214062

>  <SCORE.INTRA.DIHEDRAL.0>
2.32994

>  <SCORE.INTRA.POLAR>
0

>  <SCORE.INTRA.POLAR.0>
0

>  <SCORE.INTRA.REPUL>
0

>  <SCORE.INTRA.REPUL.0>
0

>  <SCORE.INTRA.SOLV>
0.00421613

>  <SCORE.INTRA.SOLV.lig_0>
-117.703

>  <SCORE.INTRA.VDW>
-0.0388311

>  <SCORE.INTRA.VDW.0>
-1.59997

>  <SCORE.INTRA.norm>
-0.00107787

>  <SCORE.RESTR>
0.000123104

>  <SCORE.RESTR.CAVITY>
0.000123104

>  <SCORE.RESTR.norm>
2.79781e-06

>  <SCORE.SYSTEM>
0

>  <SCORE.SYSTEM.CONST>
0

>  <SCORE.SYSTEM.DIHEDRAL>
0

>  <SCORE.SYSTEM.SOLV>
0

>  <SCORE.SYSTEM.norm>
0

>  <SCORE.heavy>
44

>  <SCORE.norm>
-0.410153

>  <RMSD>
1.091

$$$$
ligand
 OpenBabel11021811513D
libRbt.so/2013.1/901 2013/11/27
 44 50  0  0  0  0  0  0  0  0999 V2000
   -9.8113   35.8555  -16.4310 P   0  0  2  0  0  0  0  0  0  0  0  0
   -6.3261   34.2807  -12.6127 P   0  0  1  0  0  0  0  0  0  0  0  0
  -11.2085   36.4235  -16.1955 O   0  5  0  0  0  0  0  0  0  0  0  0
   -5.7431   32.9879  -13.1294 O   0  5  0  0  0  0  0  0  0  0  0  0
   -9.8394   35.2291  -17.8044 O   0  0  0  0  0  0  0  0  0  0  0  0
   -5.4525   34.7371  -11.4222 O   0  0  0  0  0  0  0  0  0  0  0  0
  -10.2732   35.1245  -14.0449 C   0  0  0  0  0  0  0  0  0  0  0  0
   -7.0632   36.5268  -13.6518 C   0  0  0  0  0  0  0  0  0  0  0  0
   -9.5899   34.8316  -15.2711 O   0  0  0  0  0  0  0  0  0  0  0  0
   -6.4139   35.2552  -13.9346 O   0  0  0  0  0  0  0  0  0  0  0  0
  -10.0088   34.0259  -13.0208 C   0  0  1  0  0  0  0  0  0  0  0  0
   -6.9412   37.3852  -14.9671 C   0  0  1  0  0  0  0  0  0  0  0  0
  -10.8573   33.0671  -13.2284 O   0  0  0  0  0  0  0  0  0  0  0  0
   -5.7100   37.3456  -15.2780 O   0  0  0  0  0  0  0  0  0  0  0  0
   -8.6302   33.4180  -13.1411 C   0  0  1  0  0  0  0  0  0  0  0  0
   -7.6115   36.6698  -16.1570 C   0  0  1  0  0  0  0  0  0  0  0  0
   -7.8651   33.9955  -12.1771 O   0  0  0  0  0  0  0  0  0  0  0  0
   -8.8187   37.1852  -16.4193 O   0  0  0  0  0  0  0  0  0  0  0  0
   -8.8662   31.9023  -12.8140 C   0  0  1  0  0  0  0  0  0  0  0  0
   -6.6627   36.8243  -17.3675 C   0  0  1  0  0  0  0  0  0  0  0  0
   -8.4457   31.6096  -11.4172 O   0  0  0  0  0  0  0  0  0  0  0  0
   -7.1646   37.8887  -18.2950 O   0  0  0  0  0  0  0  0  0  0  0  0
  -10.1313   31.6806  -12.9751 C   0  0  2  0  0  0  0  0  0  0  0  0
   -5.5351   37.1894  -16.8612 C   0  0  2  0  0  0  0  0  0  0  0  0
  -10.6786   26.8744  -15.3037 N   0  0  0  0  0  0  0  0  0  0  0  0
  -10.4795   27.0950  -13.9738 C   0  0  0  0  0  0  0  0  0  0  0  0
  -10.3529   28.3669  -13.4759 N   0  0  0  0  0  0  0  0  0  0  0  0
  -10.4264   29.4269  -14.3369 C   0  0  0  0  0  0  0  0  0  0  0  0
  -10.6147   29.2255  -15.6485 C   0  0  0  0  0  0  0  0  0  0  0  0
  -10.7518   27.9302  -16.1448 C   0  0  0  0  0  0  0  0  0  0  0  0
  -10.9531   27.5841  -17.4956 N   0  0  0  0  0  0  0  0  0  0  0  0
  -10.6512   30.4327  -16.2514 N   0  0  0  0  0  0  0  0  0  0  0  0
  -10.4749   31.3855  -15.2921 C   0  0  0  0  0  0  0  0  0  0  0  0
  -10.3536   30.7688  -14.1093 N   0  0  0  0  0  0  0  0  0  0  0  0
   -1.4902   35.7143  -19.7910 N   0  0  0  0  0  0  0  0  0  0  0  0
   -2.2799   36.8035  -19.9821 C   0  0  0  0  0  0  0  0  0  0  0  0
   -3.3125   37.0477  -19.1211 N   0  0  0  0  0  0  0  0  0  0  0  0
   -3.5458   36.2092  -18.0756 C   0  0  0  0  0  0  0  0  0  0  0  0
   -2.7636   35.1290  -17.8772 C   0  0  0  0  0  0  0  0  0  0  0  0
   -1.7164   34.8856  -18.7612 C   0  0  0  0  0  0  0  0  0  0  0  0
   -0.7767   33.7938  -18.7523 N   0  0  0  0  0  0  0  0  0  0  0  0
   -3.2291   34.4882  -16.7782 N   0  0  0  0  0  0  0  0  0  0  0  0
   -4.2993   35.1844  -16.2988 C   0  0  0  0  0  0  0  0  0  0  0  0
   -4.4852   36.2482  -17.1061 N   0  0  0  0  0  0  0  0  0  0  0  0
  1  3  1  1  0  0  0
  1  5  2  0  0  0  0
  1  9  1  0  0  0  0
  1 18  1  0  0  0  0
  2  4  1  6  0  0  0
  2  6  2  0  0  0  0
  2 10  1  0  0  0  0
  2 17  1  0  0  0  0
  7  9  1  0  0  0  0
  8 10  1  0  0  0  0
 11  7  1  6  0  0  0
 11 13  1  0  0  0  0
 11 15  1  0  0  0  0
 12  8  1  1  0  0  0
 12 14  1  0  0  0  0
 12 16  1  0  0  0  0
 13 23  1  0  0  0  0
 14 24  1  0  0  0  0
 15 17  1  1  0  0  0
 15 19  1  0  0  0  0
 16 18  1  6  0  0  0
 16 20  1  0  0  0  0
 19 21  1  1  0  0  0
 19 23  1  0  0  0  0
 20 22  1  6  0  0  0
 20 24  1  0  0  0  0
 23 34  1  6  0  0  0
 24 44  1  1  0  0  0
 25 26  2  0  0  0  0
 25 30  1  0  0  0  0
 26 27  1  0  0  0  0
 27 28  2  0  0  0  0
 28 29  1  0  0  0  0
 28 34  1  0  0  0  0
 29 30  2  0  0  0  0
 29 32  1  0  0  0  0
 30 31  1  0  0  0  0
 32 33  2  0  0  0  0
 33 34  1  0  0  0  0
 35 36  2  0  0  0  0
 35 40  1  0  0  0  0
 36 37  1  0  0  0  0
 37 38  2  0  0  0  0
 38 39  1  0  0  0  0
 38 44  1  0  0  0  0
 39 40  2  0  0  0  0
 39 42  1  0  0  0  0
 40 41  1  0  0  0  0
 42 43  2  0  0  0  0
 43 44  1  0  0  0  0
M  CHG  2   3  -1   4  -1
M  END
>  <CHROM.1>
-151.71051075,-144.28262177,-7.53852696,33.91971061,-15.41419610,0.61428557
0.61098736,0.19046194

>  <Name>
ligand

>  <RI>
0

>  <Rbt.Current_Directory>
/home/itssahil/PROJECTS/Mol_Feturizer/New_Systems/rnas/4QLM

>  <Rbt.Executable>
rbdock ($Id: //depot/dev/client3/rdock/2013.1/src/exe/rbdock.cxx#4 $)

>  <Rbt.Library>
libRbt.so (2013.1, Build901 2013/11/27)

>  <Rbt.Parameter_File>
/export/apps/rDock/src/rDock_2013.1_src/data/scripts/dock_solv.prm

>  <Rbt.Receptor>
prm/pocket_docking_2.prm

>  <SCORE>
-18.0522

>  <SCORE.INTER>
-17.9795

>  <SCORE.INTER.CONST>
1

>  <SCORE.INTER.POLAR>
0

>  <SCORE.INTER.ROT>
2

>  <SCORE.INTER.SOLV>
36.5637

>  <SCORE.INTER.VDW>
-29.1075

>  <SCORE.INTER.norm>
-0.408625

>  <SCORE.INTRA>
-0.0938016

>  <SCORE.INTRA.DIHEDRAL>
-0.0241779

>  <SCORE.INTRA.DIHEDRAL.0>
2.32994

>  <SCORE.INTRA.POLAR>
0

>  <SCORE.INTRA.POLAR.0>
0

>  <SCORE.INTRA.REPUL>
0

>  <SCORE.INTRA.REPUL.0>
0

>  <SCORE.INTRA.SOLV>
0.00339774

>  <SCORE.INTRA.SOLV.lig_0>
-117.703

>  <SCORE.INTRA.VDW>
-0.0834116

>  <SCORE.INTRA.VDW.0>
-1.59997

>  <SCORE.INTRA.norm>
-0.00213186

>  <SCORE.RESTR>
0.0210788

>  <SCORE.RESTR.CAVITY>
0.0210788

>  <SCORE.RESTR.norm>
0.000479065

>  <SCORE.SYSTEM>
0

>  <SCORE.SYSTEM.CONST>
0

>  <SCORE.SYSTEM.DIHEDRAL>
0

>  <SCORE.SYSTEM.SOLV>
0

>  <SCORE.SYSTEM.norm>
0

>  <SCORE.heavy>
44

>  <SCORE.norm>
-0.410277

>  <RMSD>
1.095

$$$$
ligand
 OpenBabel11021811513D
libRbt.so/2013.1/901 2013/11/27
 44 50  0  0  0  0  0  0  0  0999 V2000
   -4.6136   35.0706  -12.8239 P   0  0  2  0  0  0  0  0  0  0  0  0
   -8.5681   36.4469  -16.2404 P   0  0  1  0  0  0  0  0  0  0  0  0
   -3.8549   36.0169  -11.8967 O   0  5  0  0  0  0  0  0  0  0  0  0
   -8.2691   35.6830  -17.5073 O   0  5  0  0  0  0  0  0  0  0  0  0
   -3.6838   33.9117  -13.0920 O   0  0  0  0  0  0  0  0  0  0  0  0
  -10.0056   37.0012  -16.3647 O   0  0  0  0  0  0  0  0  0  0  0  0
   -5.1157   37.3301  -13.8649 C   0  0  0  0  0  0  0  0  0  0  0  0
   -8.3699   35.9846  -13.7076 C   0  0  0  0  0  0  0  0  0  0  0  0
   -4.9450   35.9243  -14.0904 O   0  0  0  0  0  0  0  0  0  0  0  0
   -8.2438   35.3844  -15.0276 O   0  0  0  0  0  0  0  0  0  0  0  0
   -5.3860   38.0447  -15.1847 C   0  0  1  0  0  0  0  0  0  0  0  0
   -8.1677   34.8154  -12.6715 C   0  0  1  0  0  0  0  0  0  0  0  0
   -4.2453   38.3047  -15.7447 O   0  0  0  0  0  0  0  0  0  0  0  0
   -8.9669   33.8999  -13.0419 O   0  0  0  0  0  0  0  0  0  0  0  0
   -6.1699   37.2056  -16.1674 C   0  0  1  0  0  0  0  0  0  0  0  0
   -6.7884   34.1505  -12.8520 C   0  0  1  0  0  0  0  0  0  0  0  0
   -7.4606   37.6267  -16.0955 O   0  0  0  0  0  0  0  0  0  0  0  0
   -5.9181   34.5733  -11.9269 O   0  0  0  0  0  0  0  0  0  0  0  0
   -5.5487   37.5879  -17.5559 C   0  0  1  0  0  0  0  0  0  0  0  0
   -7.0087   32.6236  -12.7559 C   0  0  1  0  0  0  0  0  0  0  0  0
   -6.4369   38.5470  -18.2663 O   0  0  0  0  0  0  0  0  0  0  0  0
   -6.5854   32.1161  -11.4111 O   0  0  0  0  0  0  0  0  0  0  0  0
   -4.3929   38.1173  -17.3121 C   0  0  2  0  0  0  0  0  0  0  0  0
   -8.2794   32.4618  -12.8981 C   0  0  2  0  0  0  0  0  0  0  0  0
   -0.7394   36.5689  -20.9282 N   0  0  0  0  0  0  0  0  0  0  0  0
   -1.5604   37.6508  -21.0410 C   0  0  0  0  0  0  0  0  0  0  0  0
   -2.4629   37.9633  -20.0565 N   0  0  0  0  0  0  0  0  0  0  0  0
   -2.5355   37.1682  -18.9462 C   0  0  0  0  0  0  0  0  0  0  0  0
   -1.7398   36.0967  -18.8242 C   0  0  0  0  0  0  0  0  0  0  0  0
   -0.8188   35.7916  -19.8250 C   0  0  0  0  0  0  0  0  0  0  0  0
    0.0711   34.6994  -19.8186 N   0  0  0  0  0  0  0  0  0  0  0  0
   -2.0192   35.5062  -17.6429 N   0  0  0  0  0  0  0  0  0  0  0  0
   -3.0069   36.2258  -17.0382 C   0  0  0  0  0  0  0  0  0  0  0  0
   -3.3145   37.2603  -17.8315 N   0  0  0  0  0  0  0  0  0  0  0  0
  -10.1053   28.0025  -14.8733 N   0  0  0  0  0  0  0  0  0  0  0  0
   -9.9411   28.3039  -13.5585 C   0  0  0  0  0  0  0  0  0  0  0  0
   -9.4397   29.5245  -13.2036 N   0  0  0  0  0  0  0  0  0  0  0  0
   -9.1120   30.4350  -14.1597 C   0  0  0  0  0  0  0  0  0  0  0  0
   -9.2765   30.1445  -15.4661 C   0  0  0  0  0  0  0  0  0  0  0  0
   -9.7841   28.8975  -15.8189 C   0  0  0  0  0  0  0  0  0  0  0  0
  -10.0222   28.3719  -17.1388 N   0  0  0  0  0  0  0  0  0  0  0  0
   -8.8691   31.2242  -16.1755 N   0  0  0  0  0  0  0  0  0  0  0  0
   -8.4582   32.1828  -15.2967 C   0  0  0  0  0  0  0  0  0  0  0  0
   -8.6151   31.6862  -14.0530 N   0  0  0  0  0  0  0  0  0  0  0  0
  1  3  1  1  0  0  0
  1  5  2  0  0  0  0
  1  9  1  0  0  0  0
  1 18  1  0  0  0  0
  2  4  1  6  0  0  0
  2  6  2  0  0  0  0
  2 10  1  0  0  0  0
  2 17  1  0  0  0  0
  7  9  1  0  0  0  0
  8 10  1  0  0  0  0
 11  7  1  1  0  0  0
 11 13  1  0  0  0  0
 11 15  1  0  0  0  0
 12  8  1  6  0  0  0
 12 14  1  0  0  0  0
 12 16  1  0  0  0  0
 13 23  1  0  0  0  0
 14 24  1  0  0  0  0
 15 17  1  6  0  0  0
 15 19  1  0  0  0  0
 16 18  1  1  0  0  0
 16 20  1  0  0  0  0
 19 21  1  1  0  0  0
 19 23  1  0  0  0  0
 20 22  1  1  0  0  0
 20 24  1  0  0  0  0
 23 34  1  1  0  0  0
 24 44  1  6  0  0  0
 25 26  2  0  0  0  0
 25 30  1  0  0  0  0
 26 27  1  0  0  0  0
 27 28  2  0  0  0  0
 28 29  1  0  0  0  0
 28 34  1  0  0  0  0
 29 30  2  0  0  0  0
 29 32  1  0  0  0  0
 30 31  1  0  0  0  0
 32 33  2  0  0  0  0
 33 34  1  0  0  0  0
 35 36  2  0  0  0  0
 35 40  1  0  0  0  0
 36 37  1  0  0  0  0
 37 38  2  0  0  0  0
 38 39  1  0  0  0  0
 38 44  1  0  0  0  0
 39 40  2  0  0  0  0
 39 42  1  0  0  0  0
 40 41  1  0  0  0  0
 42 43  2  0  0  0  0
 43 44  1  0  0  0  0
M  CHG  2   3  -1   4  -1
M  END
>  <CHROM.1>
-143.70104933,-130.01155942,-6.16083399,34.73427603,-15.55497561,3.01213992
-0.87668858,-2.35557152

>  <Name>
ligand

>  <RI>
0

>  <Rbt.Current_Directory>
/home/itssahil/PROJECTS/Mol_Feturizer/New_Systems/rnas/4QLM

>  <Rbt.Executable>
rbdock ($Id: //depot/dev/client3/rdock/2013.1/src/exe/rbdock.cxx#4 $)

>  <Rbt.Library>
libRbt.so (2013.1, Build901 2013/11/27)

>  <Rbt.Parameter_File>
/export/apps/rDock/src/rDock_2013.1_src/data/scripts/dock_solv.prm

>  <Rbt.Receptor>
prm/pocket_docking_4.prm

>  <SCORE>
-21.9692

>  <SCORE.INTER>
-21.9713

>  <SCORE.INTER.CONST>
1

>  <SCORE.INTER.POLAR>
0

>  <SCORE.INTER.ROT>
2

>  <SCORE.INTER.SOLV>
33.8766

>  <SCORE.INTER.VDW>
-30.8731

>  <SCORE.INTER.norm>
-0.499349

>  <SCORE.INTRA>
0.00210591

>  <SCORE.INTRA.DIHEDRAL>
-0.0200928

>  <SCORE.INTRA.DIHEDRAL.0>
2.32994

>  <SCORE.INTRA.POLAR>
0

>  <SCORE.INTRA.POLAR.0>
0

>  <SCORE.INTRA.REPUL>
0

>  <SCORE.INTRA.REPUL.0>
0

>  <SCORE.INTRA.SOLV>
9.75495e-05

>  <SCORE.INTRA.SOLV.lig_0>
-117.703

>  <SCORE.INTRA.VDW>
0.0121035

>  <SCORE.INTRA.VDW.0>
-1.59997

>  <SCORE.INTRA.norm>
4.78617e-05

>  <SCORE.RESTR>
0

>  <SCORE.RESTR.CAVITY>
0

>  <SCORE.RESTR.norm>
0

>  <SCORE.SYSTEM>
0

>  <SCORE.SYSTEM.CONST>
0

>  <SCORE.SYSTEM.DIHEDRAL>
0

>  <SCORE.SYSTEM.SOLV>
0

>  <SCORE.SYSTEM.norm>
0

>  <SCORE.heavy>
44

>  <SCORE.norm>
-0.499301

>  <RMSD>
1.102

$$$$
ligand
 OpenBabel11021811513D
libRbt.so/2013.1/901 2013/11/27
 44 50  0  0  0  0  0  0  0  0999 V2000
   -9.8050   35.9108  -16.3873 P   0  0  2  0  0  0  0  0  0  0  0  0
   -6.3061   34.2321  -12.6262 P   0  0  1  0  0  0  0  0  0  0  0  0
  -11.1867   36.5064  -16.1295 O   0  5  0  0  0  0  0  0  0  0  0  0
   -5.7573   32.9315  -13.1604 O   0  5  0  0  0  0  0  0  0  0  0  0
   -9.8638   35.2962  -17.7650 O   0  0  0  0  0  0  0  0  0  0  0  0
   -5.4079   34.6604  -11.4435 O   0  0  0  0  0  0  0  0  0  0  0  0
  -10.2521   35.1707  -14.0011 C   0  0  0  0  0  0  0  0  0  0  0  0
   -7.0083   36.5016  -13.6385 C   0  0  0  0  0  0  0  0  0  0  0  0
   -9.5907   34.8732  -15.2382 O   0  0  0  0  0  0  0  0  0  0  0  0
   -6.3898   35.2188  -13.9394 O   0  0  0  0  0  0  0  0  0  0  0  0
   -9.9982   34.0586  -12.9891 C   0  0  1  0  0  0  0  0  0  0  0  0
   -6.8847   37.3677  -14.9485 C   0  0  1  0  0  0  0  0  0  0  0  0
  -10.8695   33.1197  -13.1931 O   0  0  0  0  0  0  0  0  0  0  0  0
   -5.6587   37.3045  -15.2754 O   0  0  0  0  0  0  0  0  0  0  0  0
   -8.6345   33.4227  -13.1317 C   0  0  1  0  0  0  0  0  0  0  0  0
   -7.5851   36.6762  -16.1352 C   0  0  1  0  0  0  0  0  0  0  0  0
   -7.8451   33.9762  -12.1731 O   0  0  0  0  0  0  0  0  0  0  0  0
   -8.7843   37.2191  -16.3780 O   0  0  0  0  0  0  0  0  0  0  0  0
   -8.8985   31.9097  -12.8133 C   0  0  1  0  0  0  0  0  0  0  0  0
   -6.6486   36.8202  -17.3565 C   0  0  1  0  0  0  0  0  0  0  0  0
   -8.4667   31.5970  -11.4243 O   0  0  0  0  0  0  0  0  0  0  0  0
   -7.1395   37.9024  -18.2693 O   0  0  0  0  0  0  0  0  0  0  0  0
  -10.1700   31.7162  -12.9598 C   0  0  2  0  0  0  0  0  0  0  0  0
   -5.5072   37.1573  -16.8620 C   0  0  2  0  0  0  0  0  0  0  0  0
  -10.5956   26.9401  -15.3742 N   0  0  0  0  0  0  0  0  0  0  0  0
  -10.3015   27.1423  -14.0590 C   0  0  0  0  0  0  0  0  0  0  0  0
  -10.2169   28.4077  -13.5365 N   0  0  0  0  0  0  0  0  0  0  0  0
  -10.4302   29.4803  -14.3577 C   0  0  0  0  0  0  0  0  0  0  0  0
  -10.7131   29.2975  -15.6550 C   0  0  0  0  0  0  0  0  0  0  0  0
  -10.8066   28.0080  -16.1757 C   0  0  0  0  0  0  0  0  0  0  0  0
  -11.0963   27.6809  -17.5151 N   0  0  0  0  0  0  0  0  0  0  0  0
  -10.8777   30.5134  -16.2178 N   0  0  0  0  0  0  0  0  0  0  0  0
  -10.6847   31.4531  -15.2489 C   0  0  0  0  0  0  0  0  0  0  0  0
  -10.4259   30.8184  -14.0981 N   0  0  0  0  0  0  0  0  0  0  0  0
   -1.4874   35.6566  -19.8131 N   0  0  0  0  0  0  0  0  0  0  0  0
   -2.2477   36.7705  -19.9783 C   0  0  0  0  0  0  0  0  0  0  0  0
   -3.2780   37.0184  -19.1154 N   0  0  0  0  0  0  0  0  0  0  0  0
   -3.5379   36.1587  -18.0938 C   0  0  0  0  0  0  0  0  0  0  0  0
   -2.7848   35.0536  -17.9211 C   0  0  0  0  0  0  0  0  0  0  0  0
   -1.7399   34.8068  -18.8069 C   0  0  0  0  0  0  0  0  0  0  0  0
   -0.8288   33.6912  -18.8233 N   0  0  0  0  0  0  0  0  0  0  0  0
   -3.2721   34.3960  -16.8417 N   0  0  0  0  0  0  0  0  0  0  0  0
   -4.3263   35.1066  -16.3483 C   0  0  0  0  0  0  0  0  0  0  0  0
   -4.4807   36.1961  -17.1276 N   0  0  0  0  0  0  0  0  0  0  0  0
  1  3  1  1  0  0  0
  1  5  2  0  0  0  0
  1  9  1  0  0  0  0
  1 18  1  0  0  0  0
  2  4  1  6  0  0  0
  2  6  2  0  0  0  0
  2 10  1  0  0  0  0
  2 17  1  0  0  0  0
  7  9  1  0  0  0  0
  8 10  1  0  0  0  0
 11  7  1  6  0  0  0
 11 13  1  0  0  0  0
 11 15  1  0  0  0  0
 12  8  1  1  0  0  0
 12 14  1  0  0  0  0
 12 16  1  0  0  0  0
 13 23  1  0  0  0  0
 14 24  1  0  0  0  0
 15 17  1  1  0  0  0
 15 19  1  0  0  0  0
 16 18  1  6  0  0  0
 16 20  1  0  0  0  0
 19 21  1  1  0  0  0
 19 23  1  0  0  0  0
 20 22  1  6  0  0  0
 20 24  1  0  0  0  0
 23 34  1  6  0  0  0
 24 44  1  1  0  0  0
 25 26  2  0  0  0  0
 25 30  1  0  0  0  0
 26 27  1  0  0  0  0
 27 28  2  0  0  0  0
 28 29  1  0  0  0  0
 28 34  1  0  0  0  0
 29 30  2  0  0  0  0
 29 32  1  0  0  0  0
 30 31  1  0  0  0  0
 32 33  2  0  0  0  0
 33 34  1  0  0  0  0
 35 36  2  0  0  0  0
 35 40  1  0  0  0  0
 36 37  1  0  0  0  0
 37 38  2  0  0  0  0
 38 39  1  0  0  0  0
 38 44  1  0  0  0  0
 39 40  2  0  0  0  0
 39 42  1  0  0  0  0
 40 41  1  0  0  0  0
 42 43  2  0  0  0  0
 43 44  1  0  0  0  0
M  CHG  2   3  -1   4  -1
M  END
>  <CHROM.1>
-158.18882944,-142.79147646,-7.54080549,33.92242483,-15.41555778,0.60758335
0.60233244,0.18136641

>  <Name>
ligand

>  <RI>
0

>  <Rbt.Current_Directory>
/home/itssahil/PROJECTS/Mol_Feturizer/New_Systems/rnas/4QLM

>  <Rbt.Executable>
rbdock ($Id: //depot/dev/client3/rdock/2013.1/src/exe/rbdock.cxx#4 $)

>  <Rbt.Library>
libRbt.so (2013.1, Build901 2013/11/27)

>  <Rbt.Parameter_File>
/export/apps/rDock/src/rDock_2013.1_src/data/scripts/dock_solv.prm

>  <Rbt.Receptor>
prm/pocket_docking_2.prm

>  <SCORE>
-18.0559

>  <SCORE.INTER>
-18.0262

>  <SCORE.INTER.CONST>
1

>  <SCORE.INTER.POLAR>
0

>  <SCORE.INTER.ROT>
2

>  <SCORE.INTER.SOLV>
37.4699

>  <SCORE.INTER.VDW>
-29.4407

>  <SCORE.INTER.norm>
-0.409685

>  <SCORE.INTRA>
-0.0299375

>  <SCORE.INTRA.DIHEDRAL>
-0.0184112

>  <SCORE.INTRA.DIHEDRAL.0>
2.32994

>  <SCORE.INTRA.POLAR>
0

>  <SCORE.INTRA.POLAR.0>
0

>  <SCORE.INTRA.REPUL>
0

>  <SCORE.INTRA.REPUL.0>
0

>  <SCORE.INTRA.SOLV>
0.00486656

>  <SCORE.INTRA.SOLV.lig_0>
-117.703

>  <SCORE.INTRA.VDW>
-0.0231652

>  <SCORE.INTRA.VDW.0>
-1.59997

>  <SCORE.INTRA.norm>
-0.000680398

>  <SCORE.RESTR>
0.000164819

>  <SCORE.RESTR.CAVITY>
0.000164819

>  <SCORE.RESTR.norm>
3.74588e-06

>  <SCORE.SYSTEM>
0

>  <SCORE.SYSTEM.CONST>
0

>  <SCORE.SYSTEM.DIHEDRAL>
0

>  <SCORE.SYSTEM.SOLV>
0

>  <SCORE.SYSTEM.norm>
0

>  <SCORE.heavy>
44

>  <SCORE.norm>
-0.410362

>  <RMSD>
1.107

$$$$
ligand
 OpenBabel11021811513D
libRbt.so/2013.1/901 2013/11/27
 44 50  0  0  0  0  0  0  0  0999 V2000
   -9.8319   35.9068  -16.3732 P   0  0  2  0  0  0  0  0  0  0  0  0
   -6.3132   34.2229  -12.6330 P   0  0  1  0  0  0  0  0  0  0  0  0
  -11.2132   36.5000  -16.1075 O   0  5  0  0  0  0  0  0  0  0  0  0
   -5.7653   32.9244  -13.1731 O   0  5  0  0  0  0  0  0  0  0  0  0
   -9.8964   35.2956  -17.7523 O   0  0  0  0  0  0  0  0  0  0  0  0
   -5.4100   34.6493  -11.4535 O   0  0  0  0  0  0  0  0  0  0  0  0
  -10.2668   35.1600  -13.9870 C   0  0  0  0  0  0  0  0  0  0  0  0
   -7.0230   36.4941  -13.6361 C   0  0  0  0  0  0  0  0  0  0  0  0
   -9.6109   34.8665  -15.2279 O   0  0  0  0  0  0  0  0  0  0  0  0
   -6.4044   35.2128  -13.9432 O   0  0  0  0  0  0  0  0  0  0  0  0
  -10.0067   34.0456  -12.9790 C   0  0  1  0  0  0  0  0  0  0  0  0
   -6.9067   37.3637  -14.9445 C   0  0  1  0  0  0  0  0  0  0  0  0
  -10.8778   33.1061  -13.1813 O   0  0  0  0  0  0  0  0  0  0  0  0
   -5.6822   37.3029  -15.2774 O   0  0  0  0  0  0  0  0  0  0  0  0
   -8.6429   33.4118  -13.1297 C   0  0  1  0  0  0  0  0  0  0  0  0
   -7.6118   36.6743  -16.1297 C   0  0  1  0  0  0  0  0  0  0  0  0
   -7.8498   33.9638  -12.1734 O   0  0  0  0  0  0  0  0  0  0  0  0
   -8.8128   37.2164  -16.3654 O   0  0  0  0  0  0  0  0  0  0  0  0
   -8.9035   31.8977  -12.8139 C   0  0  1  0  0  0  0  0  0  0  0  0
   -6.6812   36.8227  -17.3550 C   0  0  1  0  0  0  0  0  0  0  0  0
   -8.4648   31.5820  -11.4278 O   0  0  0  0  0  0  0  0  0  0  0  0
   -7.1778   37.9066  -18.2626 O   0  0  0  0  0  0  0  0  0  0  0  0
  -10.1754   31.7029  -12.9550 C   0  0  2  0  0  0  0  0  0  0  0  0
   -5.5379   37.1600  -16.8649 C   0  0  2  0  0  0  0  0  0  0  0  0
  -10.5816   26.9336  -15.3861 N   0  0  0  0  0  0  0  0  0  0  0  0
  -10.2744   27.1329  -14.0735 C   0  0  0  0  0  0  0  0  0  0  0  0
  -10.1962   28.3968  -13.5462 N   0  0  0  0  0  0  0  0  0  0  0  0
  -10.4296   29.4708  -14.3600 C   0  0  0  0  0  0  0  0  0  0  0  0
  -10.7257   29.2910  -15.6547 C   0  0  0  0  0  0  0  0  0  0  0  0
  -10.8124   28.0030  -16.1803 C   0  0  0  0  0  0  0  0  0  0  0  0
  -11.1143   27.6790  -17.5178 N   0  0  0  0  0  0  0  0  0  0  0  0
  -10.9088   30.5077  -16.2101 N   0  0  0  0  0  0  0  0  0  0  0  0
  -10.7139   31.4450  -15.2391 C   0  0  0  0  0  0  0  0  0  0  0  0
  -10.4356   30.8077  -14.0943 N   0  0  0  0  0  0  0  0  0  0  0  0
   -1.4425   35.7410  -19.7518 N   0  0  0  0  0  0  0  0  0  0  0  0
   -2.1886   36.8676  -19.8951 C   0  0  0  0  0  0  0  0  0  0  0  0
   -3.2425   37.0904  -19.0543 N   0  0  0  0  0  0  0  0  0  0  0  0
   -3.5402   36.1931  -18.0761 C   0  0  0  0  0  0  0  0  0  0  0  0
   -2.8014   35.0753  -17.9251 C   0  0  0  0  0  0  0  0  0  0  0  0
   -1.7321   34.8544  -18.7884 C   0  0  0  0  0  0  0  0  0  0  0  0
   -0.8297   33.7321  -18.8221 N   0  0  0  0  0  0  0  0  0  0  0  0
   -3.3264   34.3798  -16.8880 N   0  0  0  0  0  0  0  0  0  0  0  0
   -4.3895   35.0798  -16.3985 C   0  0  0  0  0  0  0  0  0  0  0  0
   -4.5115   36.2008  -17.1378 N   0  0  0  0  0  0  0  0  0  0  0  0
  1  3  1  1  0  0  0
  1  5  2  0  0  0  0
  1  9  1  0  0  0  0
  1 18  1  0  0  0  0
  2  4  1  6  0  0  0
  2  6  2  0  0  0  0
  2 10  1  0  0  0  0
  2 17  1  0  0  0  0
  7  9  1  0  0  0  0
  8 10  1  0  0  0  0
 11  7  1  6  0  0  0
 11 13  1  0  0  0  0
 11 15  1  0  0  0  0
 12  8  1  1  0  0  0
 12 14  1  0  0  0  0
 12 16  1  0  0  0  0
 13 23  1  0  0  0  0
 14 24  1  0  0  0  0
 15 17  1  1  0  0  0
 15 19  1  0  0  0  0
 16 18  1  6  0  0  0
 16 20  1  0  0  0  0
 19 21  1  1  0  0  0
 19 23  1  0  0  0  0
 20 22  1  6  0  0  0
 20 24  1  0  0  0  0
 23 34  1  6  0  0  0
 24 44  1  1  0  0  0
 25 26  2  0  0  0  0
 25 30  1  0  0  0  0
 26 27  1  0  0  0  0
 27 28  2  0  0  0  0
 28 29  1  0  0  0  0
 28 34  1  0  0  0  0
 29 30  2  0  0  0  0
 29 32  1  0  0  0  0
 30 31  1  0  0  0  0
 32 33  2  0  0  0  0
 33 34  1  0  0  0  0
 35 36  2  0  0  0  0
 35 40  1  0  0  0  0
 36 37  1  0  0  0  0
 37 38  2  0  0  0  0
 38 39  1  0  0  0  0
 38 44  1  0  0  0  0
 39 40  2  0  0  0  0
 39 42  1  0  0  0  0
 40 41  1  0  0  0  0
 42 43  2  0  0  0  0
 43 44  1  0  0  0  0
M  CHG  2   3  -1   4  -1
M  END
>  <CHROM.1>
-158.83002476,-139.81245715,-7.55225606,33.92420701,-15.41108978,0.62072623
0.58979263,0.16317003

>  <Name>
ligand

>  <RI>
0

>  <Rbt.Current_Directory>
/home/itssahil/PROJECTS/Mol_Feturizer/New_Systems/rnas/4QLM

>  <Rbt.Executable>
rbdock ($Id: //depot/dev/client3/rdock/2013.1/src/exe/rbdock.cxx#4 $)

>  <Rbt.Library>
libRbt.so (2013.1, Build901 2013/11/27)

>  <Rbt.Parameter_File>
/export/apps/rDock/src/rDock_2013.1_src/data/scripts/dock_solv.prm

>  <Rbt.Receptor>
prm/pocket_docking_2.prm

>  <SCORE>
-18.0444

>  <SCORE.INTER>
-18.0203

>  <SCORE.INTER.CONST>
1

>  <SCORE.INTER.POLAR>
0

>  <SCORE.INTER.ROT>
2

>  <SCORE.INTER.SOLV>
37.2334

>  <SCORE.INTER.VDW>
-29.358

>  <SCORE.INTER.norm>
-0.409553

>  <SCORE.INTRA>
-0.0240713

>  <SCORE.INTRA.DIHEDRAL>
-0.0179103

>  <SCORE.INTRA.DIHEDRAL.0>
2.32994

>  <SCORE.INTRA.POLAR>
0

>  <SCORE.INTRA.POLAR.0>
0

>  <SCORE.INTRA.REPUL>
0

>  <SCORE.INTRA.REPUL.0>
0

>  <SCORE.INTRA.SOLV>
0.00465674

>  <SCORE.INTRA.SOLV.lig_0>
-117.703

>  <SCORE.INTRA.VDW>
-0.0174445

>  <SCORE.INTRA.VDW.0>
-1.59997

>  <SCORE.INTRA.norm>
-0.000547075

>  <SCORE.RESTR>
0

>  <SCORE.RESTR.CAVITY>
0

>  <SCORE.RESTR.norm>
0

>  <SCORE.SYSTEM>
0

>  <SCORE.SYSTEM.CONST>
0

>  <SCORE.SYSTEM.DIHEDRAL>
0

>  <SCORE.SYSTEM.SOLV>
0

>  <SCORE.SYSTEM.norm>
0

>  <SCORE.heavy>
44

>  <SCORE.norm>
-0.4101

>  <RMSD>
1.119

$$$$
ligand
 OpenBabel11021811513D
libRbt.so/2013.1/901 2013/11/27
 44 50  0  0  0  0  0  0  0  0999 V2000
   -9.8471   35.8948  -16.3584 P   0  0  2  0  0  0  0  0  0  0  0  0
   -6.3073   34.2010  -12.6427 P   0  0  1  0  0  0  0  0  0  0  0  0
  -11.2272   36.4865  -16.0833 O   0  5  0  0  0  0  0  0  0  0  0  0
   -5.7617   32.9045  -13.1898 O   0  5  0  0  0  0  0  0  0  0  0  0
   -9.9188   35.2880  -17.7390 O   0  0  0  0  0  0  0  0  0  0  0  0
   -5.3979   34.6242  -11.4667 O   0  0  0  0  0  0  0  0  0  0  0  0
  -10.2687   35.1403  -13.9722 C   0  0  0  0  0  0  0  0  0  0  0  0
   -7.0237   36.4750  -13.6348 C   0  0  0  0  0  0  0  0  0  0  0  0
   -9.6194   34.8511  -15.2176 O   0  0  0  0  0  0  0  0  0  0  0  0
   -6.4061   35.1950  -13.9493 O   0  0  0  0  0  0  0  0  0  0  0  0
  -10.0025   34.0229  -12.9691 C   0  0  1  0  0  0  0  0  0  0  0  0
   -6.9150   37.3487  -14.9410 C   0  0  1  0  0  0  0  0  0  0  0  0
  -10.8742   33.0836  -13.1697 O   0  0  0  0  0  0  0  0  0  0  0  0
   -5.6922   37.2897  -15.2807 O   0  0  0  0  0  0  0  0  0  0  0  0
   -8.6393   33.3903  -13.1292 C   0  0  1  0  0  0  0  0  0  0  0  0
   -7.6261   36.6627  -16.1245 C   0  0  1  0  0  0  0  0  0  0  0  0
   -7.8412   33.9397  -12.1755 O   0  0  0  0  0  0  0  0  0  0  0  0
   -8.8286   37.2049  -16.3520 O   0  0  0  0  0  0  0  0  0  0  0  0
   -8.8974   31.8751  -12.8168 C   0  0  1  0  0  0  0  0  0  0  0  0
   -6.7023   36.8155  -17.3544 C   0  0  1  0  0  0  0  0  0  0  0  0
   -8.4510   31.5552  -11.4341 O   0  0  0  0  0  0  0  0  0  0  0  0
   -7.2043   37.9020  -18.2559 O   0  0  0  0  0  0  0  0  0  0  0  0
  -10.1700   31.6800  -12.9516 C   0  0  2  0  0  0  0  0  0  0  0  0
   -5.5565   37.1518  -16.8695 C   0  0  2  0  0  0  0  0  0  0  0  0
  -10.5830   26.9185  -15.3966 N   0  0  0  0  0  0  0  0  0  0  0  0
  -10.2677   27.1137  -14.0852 C   0  0  0  0  0  0  0  0  0  0  0  0
  -10.1885   28.3760  -13.5542 N   0  0  0  0  0  0  0  0  0  0  0  0
  -10.4291   29.4524  -14.3627 C   0  0  0  0  0  0  0  0  0  0  0  0
  -10.7333   29.2765  -15.6561 C   0  0  0  0  0  0  0  0  0  0  0  0
  -10.8210   27.9901  -16.1855 C   0  0  0  0  0  0  0  0  0  0  0  0
  -11.1310   27.6702  -17.5221 N   0  0  0  0  0  0  0  0  0  0  0  0
  -10.9223   30.4947  -16.2060 N   0  0  0  0  0  0  0  0  0  0  0  0
  -10.7228   31.4290  -15.2331 C   0  0  0  0  0  0  0  0  0  0  0  0
  -10.4358   30.7883  -14.0923 N   0  0  0  0  0  0  0  0  0  0  0  0
   -1.5350   35.6983  -19.8419 N   0  0  0  0  0  0  0  0  0  0  0  0
   -2.2935   36.8162  -19.9880 C   0  0  0  0  0  0  0  0  0  0  0  0
   -3.3245   37.0500  -19.1222 N   0  0  0  0  0  0  0  0  0  0  0  0
   -3.5871   36.1725  -18.1165 C   0  0  0  0  0  0  0  0  0  0  0  0
   -2.8358   35.0634  -17.9627 C   0  0  0  0  0  0  0  0  0  0  0  0
   -1.7901   34.8310  -18.8514 C   0  0  0  0  0  0  0  0  0  0  0  0
   -0.8806   33.7145  -18.8867 N   0  0  0  0  0  0  0  0  0  0  0  0
   -3.3255   34.3872  -16.8959 N   0  0  0  0  0  0  0  0  0  0  0  0
   -4.3793   35.0905  -16.3912 C   0  0  0  0  0  0  0  0  0  0  0  0
   -4.5311   36.1940  -17.1510 N   0  0  0  0  0  0  0  0  0  0  0  0
  1  3  1  1  0  0  0
  1  5  2  0  0  0  0
  1  9  1  0  0  0  0
  1 18  1  0  0  0  0
  2  4  1  6  0  0  0
  2  6  2  0  0  0  0
  2 10  1  0  0  0  0
  2 17  1  0  0  0  0
  7  9  1  0  0  0  0
  8 10  1  0  0  0  0
 11  7  1  6  0  0  0
 11 13  1  0  0  0  0
 11 15  1  0  0  0  0
 12  8  1  1  0  0  0
 12 14  1  0  0  0  0
 12 16  1  0  0  0  0
 13 23  1  0  0  0  0
 14 24  1  0  0  0  0
 15 17  1  1  0  0  0
 15 19  1  0  0  0  0
 16 18  1  6  0  0  0
 16 20  1  0  0  0  0
 19 21  1  1  0  0  0
 19 23  1  0  0  0  0
 20 22  1  6  0  0  0
 20 24  1  0  0  0  0
 23 34  1  6  0  0  0
 24 44  1  1  0  0  0
 25 26  2  0  0  0  0
 25 30  1  0  0  0  0
 26 27  1  0  0  0  0
 27 28  2  0  0  0  0
 28 29  1  0  0  0  0
 28 34  1  0  0  0  0
 29 30  2  0  0  0  0
 29 32  1  0  0  0  0
 30 31  1  0  0  0  0
 32 33  2  0  0  0  0
 33 34  1  0  0  0  0
 35 36  2  0  0  0  0
 35 40  1  0  0  0  0
 36 37  1  0  0  0  0
 37 38  2  0  0  0  0
 38 39  1  0  0  0  0
 38 44  1  0  0  0  0
 39 40  2  0  0  0  0
 39 42  1  0  0  0  0
 40 41  1  0  0  0  0
 42 43  2  0  0  0  0
 43 44  1  0  0  0  0
M  CHG  2   3  -1   4  -1
M  END
>  <CHROM.1>
-158.93035127,-141.81300621,-7.56553345,33.90694203,-15.41954422,0.61278793
0.60631697,0.17868499

>  <Name>
ligand

>  <RI>
0

>  <Rbt.Current_Directory>
/home/itssahil/PROJECTS/Mol_Feturizer/New_Systems/rnas/4QLM

>  <Rbt.Executable>
rbdock ($Id: //depot/dev/client3/rdock/2013.1/src/exe/rbdock.cxx#4 $)

>  <Rbt.Library>
libRbt.so (2013.1, Build901 2013/11/27)

>  <Rbt.Parameter_File>
/export/apps/rDock/src/rDock_2013.1_src/data/scripts/dock_solv.prm

>  <Rbt.Receptor>
prm/pocket_docking_2.prm

>  <SCORE>
-18.0966

>  <SCORE.INTER>
-18.0797

>  <SCORE.INTER.CONST>
1

>  <SCORE.INTER.POLAR>
0

>  <SCORE.INTER.ROT>
2

>  <SCORE.INTER.SOLV>
37.4795

>  <SCORE.INTER.VDW>
-29.4796

>  <SCORE.INTER.norm>
-0.410902

>  <SCORE.INTRA>
-0.0230724

>  <SCORE.INTRA.DIHEDRAL>
-0.0171904

>  <SCORE.INTRA.DIHEDRAL.0>
2.32994

>  <SCORE.INTRA.POLAR>
0

>  <SCORE.INTRA.POLAR.0>
0

>  <SCORE.INTRA.REPUL>
0

>  <SCORE.INTRA.REPUL.0>
0

>  <SCORE.INTRA.SOLV>
0.0049348

>  <SCORE.INTRA.SOLV.lig_0>
-117.703

>  <SCORE.INTRA.VDW>
-0.0169447

>  <SCORE.INTRA.VDW.0>
-1.59997

>  <SCORE.INTRA.norm>
-0.000524374

>  <SCORE.RESTR>
0.00614575

>  <SCORE.RESTR.CAVITY>
0.00614575

>  <SCORE.RESTR.norm>
0.000139676

>  <SCORE.SYSTEM>
0

>  <SCORE.SYSTEM.CONST>
0

>  <SCORE.SYSTEM.DIHEDRAL>
0

>  <SCORE.SYSTEM.SOLV>
0

>  <SCORE.SYSTEM.norm>
0

>  <SCORE.heavy>
44

>  <SCORE.norm>
-0.411287

>  <RMSD>
1.124

$$$$
ligand
 OpenBabel11021811513D
libRbt.so/2013.1/901 2013/11/27
 44 50  0  0  0  0  0  0  0  0999 V2000
   -8.5961   36.3126  -16.1936 P   0  0  2  0  0  0  0  0  0  0  0  0
   -4.5395   34.5903  -13.0659 P   0  0  1  0  0  0  0  0  0  0  0  0
   -9.9306   36.8738  -15.7093 O   0  5  0  0  0  0  0  0  0  0  0  0
   -4.0603   33.3168  -13.7190 O   0  5  0  0  0  0  0  0  0  0  0  0
   -8.8562   35.7380  -17.5654 O   0  0  0  0  0  0  0  0  0  0  0  0
   -3.4772   35.0004  -12.0207 O   0  0  0  0  0  0  0  0  0  0  0  0
   -8.6624   35.4937  -13.7923 C   0  0  0  0  0  0  0  0  0  0  0  0
   -5.4207   36.8750  -13.8857 C   0  0  0  0  0  0  0  0  0  0  0  0
   -8.1938   35.2457  -15.1247 O   0  0  0  0  0  0  0  0  0  0  0  0
   -4.8372   35.6136  -14.3185 O   0  0  0  0  0  0  0  0  0  0  0  0
   -8.2407   34.3572  -12.8671 C   0  0  1  0  0  0  0  0  0  0  0  0
   -5.5114   37.7816  -15.1707 C   0  0  1  0  0  0  0  0  0  0  0  0
   -9.1194   33.4083  -12.9660 O   0  0  0  0  0  0  0  0  0  0  0  0
   -4.3490   37.7515  -15.6826 O   0  0  0  0  0  0  0  0  0  0  0  0
   -6.9060   33.7519  -13.2363 C   0  0  1  0  0  0  0  0  0  0  0  0
   -6.3750   37.1123  -16.2585 C   0  0  1  0  0  0  0  0  0  0  0  0
   -5.9873   34.2917  -12.3920 O   0  0  0  0  0  0  0  0  0  0  0  0
   -7.6049   37.6393  -16.2980 O   0  0  0  0  0  0  0  0  0  0  0  0
   -7.0964   32.2254  -12.9302 C   0  0  1  0  0  0  0  0  0  0  0  0
   -5.6385   37.3103  -17.6029 C   0  0  1  0  0  0  0  0  0  0  0  0
   -6.4528   31.8800  -11.6341 O   0  0  0  0  0  0  0  0  0  0  0  0
   -6.2787   38.4095  -18.3949 O   0  0  0  0  0  0  0  0  0  0  0  0
   -8.3725   32.0121  -12.8874 C   0  0  2  0  0  0  0  0  0  0  0  0
   -4.4398   37.6543  -17.2776 C   0  0  2  0  0  0  0  0  0  0  0  0
  -10.3163   27.5070  -15.0663 N   0  0  0  0  0  0  0  0  0  0  0  0
  -10.1798   27.7500  -13.7323 C   0  0  0  0  0  0  0  0  0  0  0  0
   -9.6713   28.9391  -13.2753 N   0  0  0  0  0  0  0  0  0  0  0  0
   -9.2945   29.8916  -14.1814 C   0  0  0  0  0  0  0  0  0  0  0  0
   -9.4160   29.6644  -15.4967 C   0  0  0  0  0  0  0  0  0  0  0  0
   -9.9425   28.4571  -15.9524 C   0  0  0  0  0  0  0  0  0  0  0  0
  -10.1222   28.0954  -17.3022 N   0  0  0  0  0  0  0  0  0  0  0  0
   -8.9783   30.7626  -16.1484 N   0  0  0  0  0  0  0  0  0  0  0  0
   -8.5765   31.6715  -15.2147 C   0  0  0  0  0  0  0  0  0  0  0  0
   -8.7866   31.1437  -14.0017 N   0  0  0  0  0  0  0  0  0  0  0  0
   -0.8207   36.3720  -20.7958 N   0  0  0  0  0  0  0  0  0  0  0  0
   -1.5990   37.4859  -20.7970 C   0  0  0  0  0  0  0  0  0  0  0  0
   -2.5127   37.6717  -19.7980 N   0  0  0  0  0  0  0  0  0  0  0  0
   -2.6391   36.7505  -18.8050 C   0  0  0  0  0  0  0  0  0  0  0  0
   -1.8670   35.6451  -18.7949 C   0  0  0  0  0  0  0  0  0  0  0  0
   -0.9417   35.4619  -19.8184 C   0  0  0  0  0  0  0  0  0  0  0  0
   -0.0368   34.3587  -20.0162 N   0  0  0  0  0  0  0  0  0  0  0  0
   -2.2122   34.9199  -17.7041 N   0  0  0  0  0  0  0  0  0  0  0  0
   -3.1977   35.5893  -17.0403 C   0  0  0  0  0  0  0  0  0  0  0  0
   -3.4524   36.7212  -17.7273 N   0  0  0  0  0  0  0  0  0  0  0  0
  1  3  1  1  0  0  0
  1  5  2  0  0  0  0
  1  9  1  0  0  0  0
  1 18  1  0  0  0  0
  2  4  1  6  0  0  0
  2  6  2  0  0  0  0
  2 10  1  0  0  0  0
  2 17  1  0  0  0  0
  7  9  1  0  0  0  0
  8 10  1  0  0  0  0
 11  7  1  6  0  0  0
 11 13  1  0  0  0  0
 11 15  1  0  0  0  0
 12  8  1  1  0  0  0
 12 14  1  0  0  0  0
 12 16  1  0  0  0  0
 13 23  1  0  0  0  0
 14 24  1  0  0  0  0
 15 17  1  1  0  0  0
 15 19  1  0  0  0  0
 16 18  1  6  0  0  0
 16 20  1  0  0  0  0
 19 21  1  1  0  0  0
 19 23  1  0  0  0  0
 20 22  1  6  0  0  0
 20 24  1  0  0  0  0
 23 34  1  6  0  0  0
 24 44  1  1  0  0  0
 25 26  2  0  0  0  0
 25 30  1  0  0  0  0
 26 27  1  0  0  0  0
 27 28  2  0  0  0  0
 28 29  1  0  0  0  0
 28 34  1  0  0  0  0
 29 30  2  0  0  0  0
 29 32  1  0  0  0  0
 30 31  1  0  0  0  0
 32 33  2  0  0  0  0
 33 34  1  0  0  0  0
 35 36  2  0  0  0  0
 35 40  1  0  0  0  0
 36 37  1  0  0  0  0
 37 38  2  0  0  0  0
 38 39  1  0  0  0  0
 38 44  1  0  0  0  0
 39 40  2  0  0  0  0
 39 42  1  0  0  0  0
 40 41  1  0  0  0  0
 42 43  2  0  0  0  0
 43 44  1  0  0  0  0
M  CHG  2   3  -1   4  -1
M  END
>  <CHROM.1>
-125.95300684,-140.47304291,-6.25824594,34.35556808,-15.61690663,0.45564157
0.78704002,0.38791880

>  <Name>
ligand

>  <RI>
0

>  <Rbt.Current_Directory>
/home/itssahil/PROJECTS/Mol_Feturizer/New_Systems/rnas/4QLM

>  <Rbt.Executable>
rbdock ($Id: //depot/dev/client3/rdock/2013.1/src/exe/rbdock.cxx#4 $)

>  <Rbt.Library>
libRbt.so (2013.1, Build901 2013/11/27)

>  <Rbt.Parameter_File>
/export/apps/rDock/src/rDock_2013.1_src/data/scripts/dock_solv.prm

>  <Rbt.Receptor>
prm/pocket_docking_4.prm

>  <SCORE>
-24.6954

>  <SCORE.INTER>
-25.0677

>  <SCORE.INTER.CONST>
1

>  <SCORE.INTER.POLAR>
0

>  <SCORE.INTER.ROT>
2

>  <SCORE.INTER.SOLV>
34.6232

>  <SCORE.INTER.VDW>
-33.1862

>  <SCORE.INTER.norm>
-0.569721

>  <SCORE.INTRA>
0.372377

>  <SCORE.INTRA.DIHEDRAL>
0.0563638

>  <SCORE.INTRA.DIHEDRAL.0>
2.32994

>  <SCORE.INTRA.POLAR>
0

>  <SCORE.INTRA.POLAR.0>
0

>  <SCORE.INTRA.REPUL>
0

>  <SCORE.INTRA.REPUL.0>
0

>  <SCORE.INTRA.SOLV>
-0.00197392

>  <SCORE.INTRA.SOLV.lig_0>
-117.703

>  <SCORE.INTRA.VDW>
0.345182

>  <SCORE.INTRA.VDW.0>
-1.59997

>  <SCORE.INTRA.norm>
0.00846311

>  <SCORE.RESTR>
0

>  <SCORE.RESTR.CAVITY>
0

>  <SCORE.RESTR.norm>
0

>  <SCORE.SYSTEM>
0

>  <SCORE.SYSTEM.CONST>
0

>  <SCORE.SYSTEM.DIHEDRAL>
0

>  <SCORE.SYSTEM.SOLV>
0

>  <SCORE.SYSTEM.norm>
0

>  <SCORE.heavy>
44

>  <SCORE.norm>
-0.561258

>  <RMSD>
1.126

$$$$
ligand
 OpenBabel11021811513D
libRbt.so/2013.1/901 2013/11/27
 44 50  0  0  0  0  0  0  0  0999 V2000
   -8.5803   36.3176  -16.1833 P   0  0  2  0  0  0  0  0  0  0  0  0
   -4.5252   34.5819  -13.0609 P   0  0  1  0  0  0  0  0  0  0  0  0
   -9.9134   36.8807  -15.6971 O   0  5  0  0  0  0  0  0  0  0  0  0
   -4.0489   33.3085  -13.7165 O   0  5  0  0  0  0  0  0  0  0  0  0
   -8.8423   35.7459  -17.5559 O   0  0  0  0  0  0  0  0  0  0  0  0
   -3.4615   34.9881  -12.0157 O   0  0  0  0  0  0  0  0  0  0  0  0
   -8.6467   35.4948  -13.7833 C   0  0  0  0  0  0  0  0  0  0  0  0
   -5.4023   36.8697  -13.8763 C   0  0  0  0  0  0  0  0  0  0  0  0
   -8.1795   35.2481  -15.1164 O   0  0  0  0  0  0  0  0  0  0  0  0
   -4.8216   35.6080  -14.3116 O   0  0  0  0  0  0  0  0  0  0  0  0
   -8.2268   34.3558  -12.8603 C   0  0  1  0  0  0  0  0  0  0  0  0
   -5.4920   37.7788  -15.1597 C   0  0  1  0  0  0  0  0  0  0  0  0
   -9.1074   33.4088  -12.9604 O   0  0  0  0  0  0  0  0  0  0  0  0
   -4.3300   37.7472  -15.6723 O   0  0  0  0  0  0  0  0  0  0  0  0
   -6.8934   33.7485  -13.2314 C   0  0  1  0  0  0  0  0  0  0  0  0
   -6.3576   37.1130  -16.2481 C   0  0  1  0  0  0  0  0  0  0  0  0
   -5.9732   34.2850  -12.3867 O   0  0  0  0  0  0  0  0  0  0  0  0
   -7.5865   37.6425  -16.2860 O   0  0  0  0  0  0  0  0  0  0  0  0
   -7.0868   32.2219  -12.9278 C   0  0  1  0  0  0  0  0  0  0  0  0
   -5.6215   37.3119  -17.5926 C   0  0  1  0  0  0  0  0  0  0  0  0
   -6.4431   31.8730  -11.6326 O   0  0  0  0  0  0  0  0  0  0  0  0
   -6.2600   38.4137  -18.3823 O   0  0  0  0  0  0  0  0  0  0  0  0
   -8.3632   32.0110  -12.8846 C   0  0  2  0  0  0  0  0  0  0  0  0
   -4.4220   37.6529  -17.2674 C   0  0  2  0  0  0  0  0  0  0  0  0
  -10.3180   27.5139  -15.0700 N   0  0  0  0  0  0  0  0  0  0  0  0
  -10.1803   27.7543  -13.7356 C   0  0  0  0  0  0  0  0  0  0  0  0
   -9.6690   28.9416  -13.2769 N   0  0  0  0  0  0  0  0  0  0  0  0
   -9.2905   29.8947  -14.1816 C   0  0  0  0  0  0  0  0  0  0  0  0
   -9.4130   29.6700  -15.4972 C   0  0  0  0  0  0  0  0  0  0  0  0
   -9.9425   28.4645  -15.9547 C   0  0  0  0  0  0  0  0  0  0  0  0
  -10.1235   28.1054  -17.3050 N   0  0  0  0  0  0  0  0  0  0  0  0
   -8.9732   30.7682  -16.1473 N   0  0  0  0  0  0  0  0  0  0  0  0
   -8.5690   31.6746  -15.2123 C   0  0  0  0  0  0  0  0  0  0  0  0
   -8.7798   31.1453  -14.0001 N   0  0  0  0  0  0  0  0  0  0  0  0
   -0.8126   36.3661  -20.7939 N   0  0  0  0  0  0  0  0  0  0  0  0
   -1.5895   37.4808  -20.7934 C   0  0  0  0  0  0  0  0  0  0  0  0
   -2.5007   37.6678  -19.7924 N   0  0  0  0  0  0  0  0  0  0  0  0
   -2.6258   36.7469  -18.7990 C   0  0  0  0  0  0  0  0  0  0  0  0
   -1.8550   35.6406  -18.7906 C   0  0  0  0  0  0  0  0  0  0  0  0
   -0.9323   35.4562  -19.8162 C   0  0  0  0  0  0  0  0  0  0  0  0
   -0.0291   34.3519  -20.0159 N   0  0  0  0  0  0  0  0  0  0  0  0
   -2.1985   34.9159  -17.6988 N   0  0  0  0  0  0  0  0  0  0  0  0
   -3.1817   35.5865  -17.0328 C   0  0  0  0  0  0  0  0  0  0  0  0
   -3.4367   36.7186  -17.7194 N   0  0  0  0  0  0  0  0  0  0  0  0
  1  3  1  1  0  0  0
  1  5  2  0  0  0  0
  1  9  1  0  0  0  0
  1 18  1  0  0  0  0
  2  4  1  6  0  0  0
  2  6  2  0  0  0  0
  2 10  1  0  0  0  0
  2 17  1  0  0  0  0
  7  9  1  0  0  0  0
  8 10  1  0  0  0  0
 11  7  1  6  0  0  0
 11 13  1  0  0  0  0
 11 15  1  0  0  0  0
 12  8  1  1  0  0  0
 12 14  1  0  0  0  0
 12 16  1  0  0  0  0
 13 23  1  0  0  0  0
 14 24  1  0  0  0  0
 15 17  1  1  0  0  0
 15 19  1  0  0  0  0
 16 18  1  6  0  0  0
 16 20  1  0  0  0  0
 19 21  1  1  0  0  0
 19 23  1  0  0  0  0
 20 22  1  6  0  0  0
 20 24  1  0  0  0  0
 23 34  1  6  0  0  0
 24 44  1  1  0  0  0
 25 26  2  0  0  0  0
 25 30  1  0  0  0  0
 26 27  1  0  0  0  0
 27 28  2  0  0  0  0
 28 29  1  0  0  0  0
 28 34  1  0  0  0  0
 29 30  2  0  0  0  0
 29 32  1  0  0  0  0
 30 31  1  0  0  0  0
 32 33  2  0  0  0  0
 33 34  1  0  0  0  0
 35 36  2  0  0  0  0
 35 40  1  0  0  0  0
 36 37  1  0  0  0  0
 37 38  2  0  0  0  0
 38 39  1  0  0  0  0
 38 44  1  0  0  0  0
 39 40  2  0  0  0  0
 39 42  1  0  0  0  0
 40 41  1  0  0  0  0
 42 43  2  0  0  0  0
 43 44  1  0  0  0  0
M  CHG  2   3  -1   4  -1
M  END
>  <CHROM.1>
-125.93528527,-140.62554047,-6.24638902,34.35472043,-15.61161271,0.45141041
0.78763796,0.39340465

>  <Name>
ligand

>  <RI>
0

>  <Rbt.Current_Directory>
/home/itssahil/PROJECTS/Mol_Feturizer/New_Systems/rnas/4QLM

>  <Rbt.Executable>
rbdock ($Id: //depot/dev/client3/rdock/2013.1/src/exe/rbdock.cxx#4 $)

>  <Rbt.Library>
libRbt.so (2013.1, Build901 2013/11/27)

>  <Rbt.Parameter_File>
/export/apps/rDock/src/rDock_2013.1_src/data/scripts/dock_solv.prm

>  <Rbt.Receptor>
prm/pocket_docking_4.prm

>  <SCORE>
-24.6912

>  <SCORE.INTER>
-25.0643

>  <SCORE.INTER.CONST>
1

>  <SCORE.INTER.POLAR>
0

>  <SCORE.INTER.ROT>
2

>  <SCORE.INTER.SOLV>
34.6867

>  <SCORE.INTER.VDW>
-33.2051

>  <SCORE.INTER.norm>
-0.569643

>  <SCORE.INTRA>
0.373107

>  <SCORE.INTRA.DIHEDRAL>
0.056499

>  <SCORE.INTRA.DIHEDRAL.0>
2.32994

>  <SCORE.INTRA.POLAR>
0

>  <SCORE.INTRA.POLAR.0>
0

>  <SCORE.INTRA.REPUL>
0

>  <SCORE.INTRA.REPUL.0>
0

>  <SCORE.INTRA.SOLV>
-0.00195715

>  <SCORE.INTRA.SOLV.lig_0>
-117.703

>  <SCORE.INTRA.VDW>
0.345836

>  <SCORE.INTRA.VDW.0>
-1.59997

>  <SCORE.INTRA.norm>
0.00847971

>  <SCORE.RESTR>
0

>  <SCORE.RESTR.CAVITY>
0

>  <SCORE.RESTR.norm>
0

>  <SCORE.SYSTEM>
0

>  <SCORE.SYSTEM.CONST>
0

>  <SCORE.SYSTEM.DIHEDRAL>
0

>  <SCORE.SYSTEM.SOLV>
0

>  <SCORE.SYSTEM.norm>
0

>  <SCORE.heavy>
44

>  <SCORE.norm>
-0.561163

>  <RMSD>
1.134

$$$$
ligand
 OpenBabel11021811513D
libRbt.so/2013.1/901 2013/11/27
 44 50  0  0  0  0  0  0  0  0999 V2000
   -8.5843   36.3148  -16.1530 P   0  0  2  0  0  0  0  0  0  0  0  0
   -4.5099   34.5926  -13.0484 P   0  0  1  0  0  0  0  0  0  0  0  0
   -9.9124   36.8846  -15.6610 O   0  5  0  0  0  0  0  0  0  0  0  0
   -4.0415   33.3133  -13.6981 O   0  5  0  0  0  0  0  0  0  0  0  0
   -8.8580   35.7336  -17.5193 O   0  0  0  0  0  0  0  0  0  0  0  0
   -3.4374   35.0040  -12.0142 O   0  0  0  0  0  0  0  0  0  0  0  0
   -8.6346   35.5099  -13.7466 C   0  0  0  0  0  0  0  0  0  0  0  0
   -5.3878   36.8764  -13.8740 C   0  0  0  0  0  0  0  0  0  0  0  0
   -8.1780   35.2523  -15.0813 O   0  0  0  0  0  0  0  0  0  0  0  0
   -4.8134   35.6101  -14.3043 O   0  0  0  0  0  0  0  0  0  0  0  0
   -8.2104   34.3768  -12.8183 C   0  0  1  0  0  0  0  0  0  0  0  0
   -5.4850   37.7761  -15.1634 C   0  0  1  0  0  0  0  0  0  0  0  0
   -9.0940   33.4312  -12.9047 O   0  0  0  0  0  0  0  0  0  0  0  0
   -4.3270   37.7381  -15.6845 O   0  0  0  0  0  0  0  0  0  0  0  0
   -6.8813   33.7636  -13.1949 C   0  0  1  0  0  0  0  0  0  0  0  0
   -6.3604   37.1045  -16.2403 C   0  0  1  0  0  0  0  0  0  0  0  0
   -5.9535   34.3042  -12.3611 O   0  0  0  0  0  0  0  0  0  0  0  0
   -7.5882   37.6366  -16.2729 O   0  0  0  0  0  0  0  0  0  0  0  0
   -7.0758   32.2397  -12.8786 C   0  0  1  0  0  0  0  0  0  0  0  0
   -5.6339   37.2917  -17.5918 C   0  0  1  0  0  0  0  0  0  0  0  0
   -6.4233   31.8989  -11.5857 O   0  0  0  0  0  0  0  0  0  0  0  0
   -6.2758   38.3891  -18.3848 O   0  0  0  0  0  0  0  0  0  0  0  0
   -8.3524   32.0322  -12.8242 C   0  0  2  0  0  0  0  0  0  0  0  0
   -4.4312   37.6322  -17.2781 C   0  0  2  0  0  0  0  0  0  0  0  0
  -10.2895   27.5059  -14.9646 N   0  0  0  0  0  0  0  0  0  0  0  0
  -10.1287   27.7502  -13.6336 C   0  0  0  0  0  0  0  0  0  0  0  0
   -9.6243   28.9449  -13.1867 N   0  0  0  0  0  0  0  0  0  0  0  0
   -9.2767   29.9017  -14.0999 C   0  0  0  0  0  0  0  0  0  0  0  0
   -9.4223   29.6733  -15.4125 C   0  0  0  0  0  0  0  0  0  0  0  0
   -9.9445   28.4601  -15.8579 C   0  0  0  0  0  0  0  0  0  0  0  0
  -10.1474   28.0966  -17.2039 N   0  0  0  0  0  0  0  0  0  0  0  0
   -9.0103   30.7763  -16.0726 N   0  0  0  0  0  0  0  0  0  0  0  0
   -8.5999   31.6895  -15.1470 C   0  0  0  0  0  0  0  0  0  0  0  0
   -8.7794   31.1593  -13.9301 N   0  0  0  0  0  0  0  0  0  0  0  0
   -0.7988   36.3460  -20.7812 N   0  0  0  0  0  0  0  0  0  0  0  0
   -1.5634   37.4692  -20.7759 C   0  0  0  0  0  0  0  0  0  0  0  0
   -2.4831   37.6548  -19.7824 N   0  0  0  0  0  0  0  0  0  0  0  0
   -2.6289   36.7240  -18.8012 C   0  0  0  0  0  0  0  0  0  0  0  0
   -1.8705   35.6091  -18.7975 C   0  0  0  0  0  0  0  0  0  0  0  0
   -0.9390   35.4262  -19.8154 C   0  0  0  0  0  0  0  0  0  0  0  0
   -0.0460   34.3144  -20.0185 N   0  0  0  0  0  0  0  0  0  0  0  0
   -2.2336   34.8758  -17.7179 N   0  0  0  0  0  0  0  0  0  0  0  0
   -3.2163   35.5495  -17.0546 C   0  0  0  0  0  0  0  0  0  0  0  0
   -3.4515   36.6923  -17.7305 N   0  0  0  0  0  0  0  0  0  0  0  0
  1  3  1  1  0  0  0
  1  5  2  0  0  0  0
  1  9  1  0  0  0  0
  1 18  1  0  0  0  0
  2  4  1  6  0  0  0
  2  6  2  0  0  0  0
  2 10  1  0  0  0  0
  2 17  1  0  0  0  0
  7  9  1  0  0  0  0
  8 10  1  0  0  0  0
 11  7  1  6  0  0  0
 11 13  1  0  0  0  0
 11 15  1  0  0  0  0
 12  8  1  1  0  0  0
 12 14  1  0  0  0  0
 12 16  1  0  0  0  0
 13 23  1  0  0  0  0
 14 24  1  0  0  0  0
 15 17  1  1  0  0  0
 15 19  1  0  0  0  0
 16 18  1  6  0  0  0
 16 20  1  0  0  0  0
 19 21  1  1  0  0  0
 19 23  1  0  0  0  0
 20 22  1  6  0  0  0
 20 24  1  0  0  0  0
 23 34  1  6  0  0  0
 24 44  1  1  0  0  0
 25 26  2  0  0  0  0
 25 30  1  0  0  0  0
 26 27  1  0  0  0  0
 27 28  2  0  0  0  0
 28 29  1  0  0  0  0
 28 34  1  0  0  0  0
 29 30  2  0  0  0  0
 29 32  1  0  0  0  0
 30 31  1  0  0  0  0
 32 33  2  0  0  0  0
 33 34  1  0  0  0  0
 35 36  2  0  0  0  0
 35 40  1  0  0  0  0
 36 37  1  0  0  0  0
 37 38  2  0  0  0  0
 38 39  1  0  0  0  0
 38 44  1  0  0  0  0
 39 40  2  0  0  0  0
 39 42  1  0  0  0  0
 40 41  1  0  0  0  0
 42 43  2  0  0  0  0
 43 44  1  0  0  0  0
M  CHG  2   3  -1   4  -1
M  END
>  <CHROM.1>
-127.13428448,-139.04201478,-6.24369294,34.35223433,-15.58145209,0.46404164
0.78407238,0.36587699

>  <Name>
ligand

>  <RI>
0

>  <Rbt.Current_Directory>
/home/itssahil/PROJECTS/Mol_Feturizer/New_Systems/rnas/4QLM

>  <Rbt.Executable>
rbdock ($Id: //depot/dev/client3/rdock/2013.1/src/exe/rbdock.cxx#4 $)

>  <Rbt.Library>
libRbt.so (2013.1, Build901 2013/11/27)

>  <Rbt.Parameter_File>
/export/apps/rDock/src/rDock_2013.1_src/data/scripts/dock_solv.prm

>  <Rbt.Receptor>
prm/pocket_docking_8.prm

>  <SCORE>
-24.3751

>  <SCORE.INTER>
-24.8996

>  <SCORE.INTER.CONST>
1

>  <SCORE.INTER.POLAR>
0

>  <SCORE.INTER.ROT>
2

>  <SCORE.INTER.SOLV>
34.1364

>  <SCORE.INTER.VDW>
-32.9119

>  <SCORE.INTER.norm>
-0.5659

>  <SCORE.INTRA>
0.323908

>  <SCORE.INTRA.DIHEDRAL>
0.0496923

>  <SCORE.INTRA.DIHEDRAL.0>
2.32994

>  <SCORE.INTRA.POLAR>
0

>  <SCORE.INTRA.POLAR.0>
0

>  <SCORE.INTRA.REPUL>
0

>  <SCORE.INTRA.REPUL.0>
0

>  <SCORE.INTRA.SOLV>
-0.00199983

>  <SCORE.INTRA.SOLV.lig_0>
-117.703

>  <SCORE.INTRA.VDW>
0.300062

>  <SCORE.INTRA.VDW.0>
-1.59997

>  <SCORE.INTRA.norm>
0.00736154

>  <SCORE.RESTR>
0.200625

>  <SCORE.RESTR.CAVITY>
0.200625

>  <SCORE.RESTR.norm>
0.00455966

>  <SCORE.SYSTEM>
0

>  <SCORE.SYSTEM.CONST>
0

>  <SCORE.SYSTEM.DIHEDRAL>
0

>  <SCORE.SYSTEM.SOLV>
0

>  <SCORE.SYSTEM.norm>
0

>  <SCORE.heavy>
44

>  <SCORE.norm>
-0.553979

>  <RMSD>
1.135

$$$$
ligand
 OpenBabel11021811513D
libRbt.so/2013.1/901 2013/11/27
 44 50  0  0  0  0  0  0  0  0999 V2000
   -8.6598   36.3204  -16.0989 P   0  0  2  0  0  0  0  0  0  0  0  0
   -4.5157   34.6278  -13.0712 P   0  0  1  0  0  0  0  0  0  0  0  0
   -9.9799   36.8870  -15.5822 O   0  5  0  0  0  0  0  0  0  0  0  0
   -4.0555   33.3477  -13.7250 O   0  5  0  0  0  0  0  0  0  0  0  0
   -8.9590   35.7323  -17.4569 O   0  0  0  0  0  0  0  0  0  0  0  0
   -3.4241   35.0479  -12.0608 O   0  0  0  0  0  0  0  0  0  0  0  0
   -8.6576   35.5255  -13.6886 C   0  0  0  0  0  0  0  0  0  0  0  0
   -5.4198   36.9045  -13.8882 C   0  0  0  0  0  0  0  0  0  0  0  0
   -8.2273   35.2641  -15.0313 O   0  0  0  0  0  0  0  0  0  0  0  0
   -4.8490   35.6388  -14.3248 O   0  0  0  0  0  0  0  0  0  0  0  0
   -8.2099   34.3981  -12.7646 C   0  0  1  0  0  0  0  0  0  0  0  0
   -5.5471   37.7985  -15.1790 C   0  0  1  0  0  0  0  0  0  0  0  0
   -9.0911   33.4485  -12.8290 O   0  0  0  0  0  0  0  0  0  0  0  0
   -4.3998   37.7629  -15.7235 O   0  0  0  0  0  0  0  0  0  0  0  0
   -6.8862   33.7886  -13.1657 C   0  0  1  0  0  0  0  0  0  0  0  0
   -6.4414   37.1187  -16.2350 C   0  0  1  0  0  0  0  0  0  0  0  0
   -5.9438   34.3365  -12.3533 O   0  0  0  0  0  0  0  0  0  0  0  0
   -7.6719   37.6457  -16.2446 O   0  0  0  0  0  0  0  0  0  0  0  0
   -7.0680   32.2653  -12.8391 C   0  0  1  0  0  0  0  0  0  0  0  0
   -5.7435   37.3031  -17.6018 C   0  0  1  0  0  0  0  0  0  0  0  0
   -6.3877   31.9326  -11.5585 O   0  0  0  0  0  0  0  0  0  0  0  0
   -6.4060   38.3946  -18.3861 O   0  0  0  0  0  0  0  0  0  0  0  0
   -8.3423   32.0529  -12.7578 C   0  0  2  0  0  0  0  0  0  0  0  0
   -4.5360   37.6499  -17.3142 C   0  0  2  0  0  0  0  0  0  0  0  0
  -10.4088   27.5526  -14.8312 N   0  0  0  0  0  0  0  0  0  0  0  0
  -10.2516   27.8168  -13.5035 C   0  0  0  0  0  0  0  0  0  0  0  0
   -9.7120   29.0026  -13.0743 N   0  0  0  0  0  0  0  0  0  0  0  0
   -9.3251   29.9299  -14.0020 C   0  0  0  0  0  0  0  0  0  0  0  0
   -9.4668   29.6816  -15.3115 C   0  0  0  0  0  0  0  0  0  0  0  0
  -10.0247   28.4779  -15.7389 C   0  0  0  0  0  0  0  0  0  0  0  0
  -10.2279   28.0958  -17.0797 N   0  0  0  0  0  0  0  0  0  0  0  0
   -9.0130   30.7578  -15.9882 N   0  0  0  0  0  0  0  0  0  0  0  0
   -8.5807   31.6745  -15.0760 C   0  0  0  0  0  0  0  0  0  0  0  0
   -8.7881   31.1736  -13.8511 N   0  0  0  0  0  0  0  0  0  0  0  0
   -0.8352   36.4495  -20.7758 N   0  0  0  0  0  0  0  0  0  0  0  0
   -1.5789   37.5861  -20.7401 C   0  0  0  0  0  0  0  0  0  0  0  0
   -2.5214   37.7454  -19.7634 N   0  0  0  0  0  0  0  0  0  0  0  0
   -2.7105   36.7750  -18.8290 C   0  0  0  0  0  0  0  0  0  0  0  0
   -1.9730   35.6465  -18.8556 C   0  0  0  0  0  0  0  0  0  0  0  0
   -1.0180   35.4908  -19.8561 C   0  0  0  0  0  0  0  0  0  0  0  0
   -0.1403   34.3719  -20.0855 N   0  0  0  0  0  0  0  0  0  0  0  0
   -2.3782   34.8733  -17.8198 N   0  0  0  0  0  0  0  0  0  0  0  0
   -3.3659   35.5360  -17.1526 C   0  0  0  0  0  0  0  0  0  0  0  0
   -3.5619   36.7119  -17.7826 N   0  0  0  0  0  0  0  0  0  0  0  0
  1  3  1  1  0  0  0
  1  5  2  0  0  0  0
  1  9  1  0  0  0  0
  1 18  1  0  0  0  0
  2  4  1  6  0  0  0
  2  6  2  0  0  0  0
  2 10  1  0  0  0  0
  2 17  1  0  0  0  0
  7  9  1  0  0  0  0
  8 10  1  0  0  0  0
 11  7  1  6  0  0  0
 11 13  1  0  0  0  0
 11 15  1  0  0  0  0
 12  8  1  1  0  0  0
 12 14  1  0  0  0  0
 12 16  1  0  0  0  0
 13 23  1  0  0  0  0
 14 24  1  0  0  0  0
 15 17  1  1  0  0  0
 15 19  1  0  0  0  0
 16 18  1  6  0  0  0
 16 20  1  0  0  0  0
 19 21  1  1  0  0  0
 19 23  1  0  0  0  0
 20 22  1  6  0  0  0
 20 24  1  0  0  0  0
 23 34  1  6  0  0  0
 24 44  1  1  0  0  0
 25 26  2  0  0  0  0
 25 30  1  0  0  0  0
 26 27  1  0  0  0  0
 27 28  2  0  0  0  0
 28 29  1  0  0  0  0
 28 34  1  0  0  0  0
 29 30  2  0  0  0  0
 29 32  1  0  0  0  0
 30 31  1  0  0  0  0
 32 33  2  0  0  0  0
 33 34  1  0  0  0  0
 35 36  2  0  0  0  0
 35 40  1  0  0  0  0
 36 37  1  0  0  0  0
 37 38  2  0  0  0  0
 38 39  1  0  0  0  0
 38 44  1  0  0  0  0
 39 40  2  0  0  0  0
 39 42  1  0  0  0  0
 40 41  1  0  0  0  0
 42 43  2  0  0  0  0
 43 44  1  0  0  0  0
M  CHG  2   3  -1   4  -1
M  END
>  <CHROM.1>
-124.29977908,-134.95034972,-6.29667784,34.37905416,-15.55805137,2.66603014
-0.78557638,-2.79966487

>  <Name>
ligand

>  <RI>
0

>  <Rbt.Current_Directory>
/home/itssahil/PROJECTS/Mol_Feturizer/New_Systems/rnas/4QLM

>  <Rbt.Executable>
rbdock ($Id: //depot/dev/client3/rdock/2013.1/src/exe/rbdock.cxx#4 $)

>  <Rbt.Library>
libRbt.so (2013.1, Build901 2013/11/27)

>  <Rbt.Parameter_File>
/export/apps/rDock/src/rDock_2013.1_src/data/scripts/dock_solv.prm

>  <Rbt.Receptor>
prm/pocket_docking_3.prm

>  <SCORE>
-24.0541

>  <SCORE.INTER>
-24.5168

>  <SCORE.INTER.CONST>
1

>  <SCORE.INTER.POLAR>
0

>  <SCORE.INTER.ROT>
2

>  <SCORE.INTER.SOLV>
33.6131

>  <SCORE.INTER.VDW>
-32.4823

>  <SCORE.INTER.norm>
-0.557201

>  <SCORE.INTRA>
0.462749

>  <SCORE.INTRA.DIHEDRAL>
0.0634159

>  <SCORE.INTRA.DIHEDRAL.0>
2.32994

>  <SCORE.INTRA.POLAR>
0

>  <SCORE.INTRA.POLAR.0>
0

>  <SCORE.INTRA.REPUL>
0

>  <SCORE.INTRA.REPUL.0>
0

>  <SCORE.INTRA.SOLV>
-0.0026552

>  <SCORE.INTRA.SOLV.lig_0>
-117.703

>  <SCORE.INTRA.VDW>
0.432368

>  <SCORE.INTRA.VDW.0>
-1.59997

>  <SCORE.INTRA.norm>
0.010517

>  <SCORE.RESTR>
0

>  <SCORE.RESTR.CAVITY>
0

>  <SCORE.RESTR.norm>
0

>  <SCORE.SYSTEM>
0

>  <SCORE.SYSTEM.CONST>
0

>  <SCORE.SYSTEM.DIHEDRAL>
0

>  <SCORE.SYSTEM.SOLV>
0

>  <SCORE.SYSTEM.norm>
0

>  <SCORE.heavy>
44

>  <SCORE.norm>
-0.546684

>  <RMSD>
1.139

$$$$
ligand
 OpenBabel11021811513D
libRbt.so/2013.1/901 2013/11/27
 44 50  0  0  0  0  0  0  0  0999 V2000
   -8.6107   36.2948  -16.1570 P   0  0  2  0  0  0  0  0  0  0  0  0
   -4.4961   34.6309  -13.0737 P   0  0  1  0  0  0  0  0  0  0  0  0
   -9.9371   36.8629  -15.6584 O   0  5  0  0  0  0  0  0  0  0  0  0
   -4.0270   33.3468  -13.7134 O   0  5  0  0  0  0  0  0  0  0  0  0
   -8.8946   35.6964  -17.5138 O   0  0  0  0  0  0  0  0  0  0  0  0
   -3.4158   35.0601  -12.0550 O   0  0  0  0  0  0  0  0  0  0  0  0
   -8.6327   35.5173  -13.7411 C   0  0  0  0  0  0  0  0  0  0  0  0
   -5.3950   36.9002  -13.9166 C   0  0  0  0  0  0  0  0  0  0  0  0
   -8.1878   35.2469  -15.0773 O   0  0  0  0  0  0  0  0  0  0  0  0
   -4.8178   35.6322  -14.3381 O   0  0  0  0  0  0  0  0  0  0  0  0
   -8.1929   34.3973  -12.8043 C   0  0  1  0  0  0  0  0  0  0  0  0
   -5.5101   37.7845  -15.2152 C   0  0  1  0  0  0  0  0  0  0  0  0
   -9.0719   33.4459  -12.8711 O   0  0  0  0  0  0  0  0  0  0  0  0
   -4.3571   37.7469  -15.7473 O   0  0  0  0  0  0  0  0  0  0  0  0
   -6.8641   33.7872  -13.1871 C   0  0  1  0  0  0  0  0  0  0  0  0
   -6.3922   37.0957  -16.2755 C   0  0  1  0  0  0  0  0  0  0  0  0
   -5.9312   34.3424  -12.3688 O   0  0  0  0  0  0  0  0  0  0  0  0
   -7.6234   37.6206  -16.3019 O   0  0  0  0  0  0  0  0  0  0  0  0
   -7.0470   32.2660  -12.8514 C   0  0  1  0  0  0  0  0  0  0  0  0
   -5.6803   37.2713  -17.6362 C   0  0  1  0  0  0  0  0  0  0  0  0
   -6.3797   31.9436  -11.5613 O   0  0  0  0  0  0  0  0  0  0  0  0
   -6.3362   38.3560  -18.4353 O   0  0  0  0  0  0  0  0  0  0  0  0
   -8.3218   32.0520  -12.7820 C   0  0  2  0  0  0  0  0  0  0  0  0
   -4.4764   37.6221  -17.3385 C   0  0  2  0  0  0  0  0  0  0  0  0
  -10.4092   27.5555  -14.8423 N   0  0  0  0  0  0  0  0  0  0  0  0
  -10.2805   27.8364  -13.5150 C   0  0  0  0  0  0  0  0  0  0  0  0
   -9.7325   29.0196  -13.0893 N   0  0  0  0  0  0  0  0  0  0  0  0
   -9.3079   29.9271  -14.0201 C   0  0  0  0  0  0  0  0  0  0  0  0
   -9.4213   29.6620  -15.3290 C   0  0  0  0  0  0  0  0  0  0  0  0
   -9.9879   28.4613  -15.7531 C   0  0  0  0  0  0  0  0  0  0  0  0
  -10.1641   28.0630  -17.0930 N   0  0  0  0  0  0  0  0  0  0  0  0
   -8.9335   30.7210  -16.0094 N   0  0  0  0  0  0  0  0  0  0  0  0
   -8.5090   31.6438  -15.0998 C   0  0  0  0  0  0  0  0  0  0  0  0
   -8.7547   31.1642  -13.8735 N   0  0  0  0  0  0  0  0  0  0  0  0
   -0.7594   36.3891  -20.7711 N   0  0  0  0  0  0  0  0  0  0  0  0
   -1.5093   37.5221  -20.7548 C   0  0  0  0  0  0  0  0  0  0  0  0
   -2.4553   37.6911  -19.7833 N   0  0  0  0  0  0  0  0  0  0  0  0
   -2.6420   36.7341  -18.8347 C   0  0  0  0  0  0  0  0  0  0  0  0
   -1.8983   35.6094  -18.8420 C   0  0  0  0  0  0  0  0  0  0  0  0
   -0.9397   35.4436  -19.8374 C   0  0  0  0  0  0  0  0  0  0  0  0
   -0.0554   34.3260  -20.0473 N   0  0  0  0  0  0  0  0  0  0  0  0
   -2.3024   34.8499  -17.7956 N   0  0  0  0  0  0  0  0  0  0  0  0
   -3.2955   35.5173  -17.1414 C   0  0  0  0  0  0  0  0  0  0  0  0
   -3.4960   36.6824  -17.7898 N   0  0  0  0  0  0  0  0  0  0  0  0
  1  3  1  1  0  0  0
  1  5  2  0  0  0  0
  1  9  1  0  0  0  0
  1 18  1  0  0  0  0
  2  4  1  6  0  0  0
  2  6  2  0  0  0  0
  2 10  1  0  0  0  0
  2 17  1  0  0  0  0
  7  9  1  0  0  0  0
  8 10  1  0  0  0  0
 11  7  1  6  0  0  0
 11 13  1  0  0  0  0
 11 15  1  0  0  0  0
 12  8  1  1  0  0  0
 12 14  1  0  0  0  0
 12 16  1  0  0  0  0
 13 23  1  0  0  0  0
 14 24  1  0  0  0  0
 15 17  1  1  0  0  0
 15 19  1  0  0  0  0
 16 18  1  6  0  0  0
 16 20  1  0  0  0  0
 19 21  1  1  0  0  0
 19 23  1  0  0  0  0
 20 22  1  6  0  0  0
 20 24  1  0  0  0  0
 23 34  1  6  0  0  0
 24 44  1  1  0  0  0
 25 26  2  0  0  0  0
 25 30  1  0  0  0  0
 26 27  1  0  0  0  0
 27 28  2  0  0  0  0
 28 29  1  0  0  0  0
 28 34  1  0  0  0  0
 29 30  2  0  0  0  0
 29 32  1  0  0  0  0
 30 31  1  0  0  0  0
 32 33  2  0  0  0  0
 33 34  1  0  0  0  0
 35 36  2  0  0  0  0
 35 40  1  0  0  0  0
 36 37  1  0  0  0  0
 37 38  2  0  0  0  0
 38 39  1  0  0  0  0
 38 44  1  0  0  0  0
 39 40  2  0  0  0  0
 39 42  1  0  0  0  0
 40 41  1  0  0  0  0
 42 43  2  0  0  0  0
 43 44  1  0  0  0  0
M  CHG  2   3  -1   4  -1
M  END
>  <CHROM.1>
-122.93852797,-135.62359368,-6.25546083,34.36159073,-15.57853936,2.67278462
-0.78179494,-2.79459173

>  <Name>
ligand

>  <RI>
0

>  <Rbt.Current_Directory>
/home/itssahil/PROJECTS/Mol_Feturizer/New_Systems/rnas/4QLM

>  <Rbt.Executable>
rbdock ($Id: //depot/dev/client3/rdock/2013.1/src/exe/rbdock.cxx#4 $)

>  <Rbt.Library>
libRbt.so (2013.1, Build901 2013/11/27)

>  <Rbt.Parameter_File>
/export/apps/rDock/src/rDock_2013.1_src/data/scripts/dock_solv.prm

>  <Rbt.Receptor>
prm/pocket_docking_3.prm

>  <SCORE>
-24.1069

>  <SCORE.INTER>
-24.6329

>  <SCORE.INTER.CONST>
1

>  <SCORE.INTER.POLAR>
0

>  <SCORE.INTER.ROT>
2

>  <SCORE.INTER.SOLV>
33.7562

>  <SCORE.INTER.VDW>
-32.6073

>  <SCORE.INTER.norm>
-0.559838

>  <SCORE.INTRA>
0.526006

>  <SCORE.INTRA.DIHEDRAL>
0.0710985

>  <SCORE.INTRA.DIHEDRAL.0>
2.32994

>  <SCORE.INTRA.POLAR>
0

>  <SCORE.INTRA.POLAR.0>
0

>  <SCORE.INTRA.REPUL>
0

>  <SCORE.INTRA.REPUL.0>
0

>  <SCORE.INTRA.SOLV>
-0.00254825

>  <SCORE.INTRA.SOLV.lig_0>
-117.703

>  <SCORE.INTRA.VDW>
0.49173

>  <SCORE.INTRA.VDW.0>
-1.59997

>  <SCORE.INTRA.norm>
0.0119547

>  <SCORE.RESTR>
0

>  <SCORE.RESTR.CAVITY>
0

>  <SCORE.RESTR.norm>
0

>  <SCORE.SYSTEM>
0

>  <SCORE.SYSTEM.CONST>
0

>  <SCORE.SYSTEM.DIHEDRAL>
0

>  <SCORE.SYSTEM.SOLV>
0

>  <SCORE.SYSTEM.norm>
0

>  <SCORE.heavy>
44

>  <SCORE.norm>
-0.547883

>  <RMSD>
1.140

$$$$
ligand
 OpenBabel11021811513D
libRbt.so/2013.1/901 2013/11/27
 44 50  0  0  0  0  0  0  0  0999 V2000
   -8.5885   36.2773  -16.1760 P   0  0  2  0  0  0  0  0  0  0  0  0
   -4.4918   34.6494  -13.0499 P   0  0  1  0  0  0  0  0  0  0  0  0
   -9.9222   36.8401  -15.6914 O   0  5  0  0  0  0  0  0  0  0  0  0
   -4.0100   33.3653  -13.6800 O   0  5  0  0  0  0  0  0  0  0  0  0
   -8.8572   35.6717  -17.5326 O   0  0  0  0  0  0  0  0  0  0  0  0
   -3.4228   35.0889  -12.0237 O   0  0  0  0  0  0  0  0  0  0  0  0
   -8.6272   35.5100  -13.7571 C   0  0  0  0  0  0  0  0  0  0  0  0
   -5.3959   36.9101  -13.9103 C   0  0  0  0  0  0  0  0  0  0  0  0
   -8.1692   35.2364  -15.0882 O   0  0  0  0  0  0  0  0  0  0  0  0
   -4.8079   35.6436  -14.3213 O   0  0  0  0  0  0  0  0  0  0  0  0
   -8.1894   34.3964  -12.8117 C   0  0  1  0  0  0  0  0  0  0  0  0
   -5.5045   37.7883  -15.2136 C   0  0  1  0  0  0  0  0  0  0  0  0
   -9.0626   33.4398  -12.8821 O   0  0  0  0  0  0  0  0  0  0  0  0
   -4.3467   37.7548  -15.7355 O   0  0  0  0  0  0  0  0  0  0  0  0
   -6.8540   33.7921  -13.1803 C   0  0  1  0  0  0  0  0  0  0  0  0
   -6.3735   37.0900  -16.2786 C   0  0  1  0  0  0  0  0  0  0  0  0
   -5.9313   34.3559  -12.3563 O   0  0  0  0  0  0  0  0  0  0  0  0
   -7.6072   37.6080  -16.3180 O   0  0  0  0  0  0  0  0  0  0  0  0
   -7.0314   32.2713  -12.8397 C   0  0  1  0  0  0  0  0  0  0  0  0
   -5.6507   37.2639  -17.6338 C   0  0  1  0  0  0  0  0  0  0  0  0
   -6.3736   31.9581  -11.5425 O   0  0  0  0  0  0  0  0  0  0  0  0
   -6.3055   38.3416  -18.4432 O   0  0  0  0  0  0  0  0  0  0  0  0
   -8.3055   32.0506  -12.7805 C   0  0  2  0  0  0  0  0  0  0  0  0
   -4.4515   37.6227  -17.3271 C   0  0  2  0  0  0  0  0  0  0  0  0
  -10.3972   27.5552  -14.8391 N   0  0  0  0  0  0  0  0  0  0  0  0
  -10.2950   27.8491  -13.5124 C   0  0  0  0  0  0  0  0  0  0  0  0
   -9.7433   29.0308  -13.0871 N   0  0  0  0  0  0  0  0  0  0  0  0
   -9.2878   29.9233  -14.0177 C   0  0  0  0  0  0  0  0  0  0  0  0
   -9.3749   29.6452  -15.3260 C   0  0  0  0  0  0  0  0  0  0  0  0
   -9.9455   28.4463  -15.7499 C   0  0  0  0  0  0  0  0  0  0  0  0
  -10.0962   28.0354  -17.0891 N   0  0  0  0  0  0  0  0  0  0  0  0
   -8.8600   30.6912  -16.0064 N   0  0  0  0  0  0  0  0  0  0  0  0
   -8.4456   31.6192  -15.0974 C   0  0  0  0  0  0  0  0  0  0  0  0
   -8.7240   31.1557  -13.8719 N   0  0  0  0  0  0  0  0  0  0  0  0
   -0.7567   36.3570  -20.7720 N   0  0  0  0  0  0  0  0  0  0  0  0
   -1.5240   37.4784  -20.7759 C   0  0  0  0  0  0  0  0  0  0  0  0
   -2.4609   37.6584  -19.7976 N   0  0  0  0  0  0  0  0  0  0  0  0
   -2.6213   36.7239  -18.8222 C   0  0  0  0  0  0  0  0  0  0  0  0
   -1.8603   35.6108  -18.8094 C   0  0  0  0  0  0  0  0  0  0  0  0
   -0.9112   35.4336  -19.8119 C   0  0  0  0  0  0  0  0  0  0  0  0
   -0.0121   34.3246  -20.0034 N   0  0  0  0  0  0  0  0  0  0  0  0
   -2.2400   34.8729  -17.7387 N   0  0  0  0  0  0  0  0  0  0  0  0
   -3.2356   35.5420  -17.0899 C   0  0  0  0  0  0  0  0  0  0  0  0
   -3.4619   36.6866  -17.7659 N   0  0  0  0  0  0  0  0  0  0  0  0
  1  3  1  1  0  0  0
  1  5  2  0  0  0  0
  1  9  1  0  0  0  0
  1 18  1  0  0  0  0
  2  4  1  6  0  0  0
  2  6  2  0  0  0  0
  2 10  1  0  0  0  0
  2 17  1  0  0  0  0
  7  9  1  0  0  0  0
  8 10  1  0  0  0  0
 11  7  1  6  0  0  0
 11 13  1  0  0  0  0
 11 15  1  0  0  0  0
 12  8  1  1  0  0  0
 12 14  1  0  0  0  0
 12 16  1  0  0  0  0
 13 23  1  0  0  0  0
 14 24  1  0  0  0  0
 15 17  1  1  0  0  0
 15 19  1  0  0  0  0
 16 18  1  6  0  0  0
 16 20  1  0  0  0  0
 19 21  1  1  0  0  0
 19 23  1  0  0  0  0
 20 22  1  6  0  0  0
 20 24  1  0  0  0  0
 23 34  1  6  0  0  0
 24 44  1  1  0  0  0
 25 26  2  0  0  0  0
 25 30  1  0  0  0  0
 26 27  1  0  0  0  0
 27 28  2  0  0  0  0
 28 29  1  0  0  0  0
 28 34  1  0  0  0  0
 29 30  2  0  0  0  0
 29 32  1  0  0  0  0
 30 31  1  0  0  0  0
 32 33  2  0  0  0  0
 33 34  1  0  0  0  0
 35 36  2  0  0  0  0
 35 40  1  0  0  0  0
 36 37  1  0  0  0  0
 37 38  2  0  0  0  0
 38 39  1  0  0  0  0
 38 44  1  0  0  0  0
 39 40  2  0  0  0  0
 39 42  1  0  0  0  0
 40 41  1  0  0  0  0
 42 43  2  0  0  0  0
 43 44  1  0  0  0  0
M  CHG  2   3  -1   4  -1
M  END
>  <CHROM.1>
-121.64477607,-137.44443185,-6.23543061,34.35813820,-15.57254226,2.68435384
-0.78728251,-2.77743415

>  <Name>
ligand

>  <RI>
0

>  <Rbt.Current_Directory>
/home/itssahil/PROJECTS/Mol_Feturizer/New_Systems/rnas/4QLM

>  <Rbt.Executable>
rbdock ($Id: //depot/dev/client3/rdock/2013.1/src/exe/rbdock.cxx#4 $)

>  <Rbt.Library>
libRbt.so (2013.1, Build901 2013/11/27)

>  <Rbt.Parameter_File>
/export/apps/rDock/src/rDock_2013.1_src/data/scripts/dock_solv.prm

>  <Rbt.Receptor>
prm/pocket_docking_3.prm

>  <SCORE>
-24.2293

>  <SCORE.INTER>
-24.8156

>  <SCORE.INTER.CONST>
1

>  <SCORE.INTER.POLAR>
0

>  <SCORE.INTER.ROT>
2

>  <SCORE.INTER.SOLV>
33.6858

>  <SCORE.INTER.VDW>
-32.7057

>  <SCORE.INTER.norm>
-0.563991

>  <SCORE.INTRA>
0.586323

>  <SCORE.INTRA.DIHEDRAL>
0.0788464

>  <SCORE.INTRA.DIHEDRAL.0>
2.32994

>  <SCORE.INTRA.POLAR>
0

>  <SCORE.INTRA.POLAR.0>
0

>  <SCORE.INTRA.REPUL>
0

>  <SCORE.INTRA.REPUL.0>
0

>  <SCORE.INTRA.SOLV>
-0.00231908

>  <SCORE.INTRA.SOLV.lig_0>
-117.703

>  <SCORE.INTRA.VDW>
0.54806

>  <SCORE.INTRA.VDW.0>
-1.59997

>  <SCORE.INTRA.norm>
0.0133255

>  <SCORE.RESTR>
0

>  <SCORE.RESTR.CAVITY>
0

>  <SCORE.RESTR.norm>
0

>  <SCORE.SYSTEM>
0

>  <SCORE.SYSTEM.CONST>
0

>  <SCORE.SYSTEM.DIHEDRAL>
0

>  <SCORE.SYSTEM.SOLV>
0

>  <SCORE.SYSTEM.norm>
0

>  <SCORE.heavy>
44

>  <SCORE.norm>
-0.550666

>  <RMSD>
1.143

$$$$
ligand
 OpenBabel11021811513D
libRbt.so/2013.1/901 2013/11/27
 44 50  0  0  0  0  0  0  0  0999 V2000
   -8.5785   36.3449  -16.1569 P   0  0  2  0  0  0  0  0  0  0  0  0
   -4.5133   34.6010  -13.0522 P   0  0  1  0  0  0  0  0  0  0  0  0
   -9.9070   36.9137  -15.6649 O   0  5  0  0  0  0  0  0  0  0  0  0
   -4.0450   33.3247  -13.7077 O   0  5  0  0  0  0  0  0  0  0  0  0
   -8.8497   35.7714  -17.5269 O   0  0  0  0  0  0  0  0  0  0  0  0
   -3.4427   35.0055  -12.0134 O   0  0  0  0  0  0  0  0  0  0  0  0
   -8.6353   35.5271  -13.7550 C   0  0  0  0  0  0  0  0  0  0  0  0
   -5.3866   36.8903  -13.8676 C   0  0  0  0  0  0  0  0  0  0  0  0
   -8.1759   35.2761  -15.0900 O   0  0  0  0  0  0  0  0  0  0  0  0
   -4.8127   35.6256  -14.3034 O   0  0  0  0  0  0  0  0  0  0  0  0
   -8.2146   34.3885  -12.8319 C   0  0  1  0  0  0  0  0  0  0  0  0
   -5.4797   37.7971  -15.1524 C   0  0  1  0  0  0  0  0  0  0  0  0
   -9.0991   33.4445  -12.9254 O   0  0  0  0  0  0  0  0  0  0  0  0
   -4.3206   37.7604  -15.6710 O   0  0  0  0  0  0  0  0  0  0  0  0
   -6.8854   33.7757  -13.2087 C   0  0  1  0  0  0  0  0  0  0  0  0
   -6.3534   37.1323  -16.2349 C   0  0  1  0  0  0  0  0  0  0  0  0
   -5.9589   34.3107  -12.3698 O   0  0  0  0  0  0  0  0  0  0  0  0
   -7.5805   37.6660  -16.2674 O   0  0  0  0  0  0  0  0  0  0  0  0
   -7.0825   32.2504  -12.9010 C   0  0  1  0  0  0  0  0  0  0  0  0
   -5.6236   37.3258  -17.5837 C   0  0  1  0  0  0  0  0  0  0  0  0
   -6.4333   31.9018  -11.6085 O   0  0  0  0  0  0  0  0  0  0  0  0
   -6.2623   38.4283  -18.3722 O   0  0  0  0  0  0  0  0  0  0  0  0
   -8.3595   32.0441  -12.8507 C   0  0  2  0  0  0  0  0  0  0  0  0
   -4.4212   37.6632  -17.2654 C   0  0  2  0  0  0  0  0  0  0  0  0
  -10.2888   27.5285  -15.0205 N   0  0  0  0  0  0  0  0  0  0  0  0
  -10.1284   27.7644  -13.6879 C   0  0  0  0  0  0  0  0  0  0  0  0
   -9.6261   28.9571  -13.2332 N   0  0  0  0  0  0  0  0  0  0  0  0
   -9.2801   29.9204  -14.1402 C   0  0  0  0  0  0  0  0  0  0  0  0
   -9.4253   29.7003  -15.4543 C   0  0  0  0  0  0  0  0  0  0  0  0
   -9.9454   28.4891  -15.9075 C   0  0  0  0  0  0  0  0  0  0  0  0
  -10.1477   28.1340  -17.2558 N   0  0  0  0  0  0  0  0  0  0  0  0
   -9.0152   30.8083  -16.1072 N   0  0  0  0  0  0  0  0  0  0  0  0
   -8.6063   31.7162  -15.1756 C   0  0  0  0  0  0  0  0  0  0  0  0
   -8.7849   31.1777  -13.9622 N   0  0  0  0  0  0  0  0  0  0  0  0
   -0.8215   36.3655  -20.7978 N   0  0  0  0  0  0  0  0  0  0  0  0
   -1.5920   37.4847  -20.7937 C   0  0  0  0  0  0  0  0  0  0  0  0
   -2.5014   37.6741  -19.7915 N   0  0  0  0  0  0  0  0  0  0  0  0
   -2.6313   36.7512  -18.8006 C   0  0  0  0  0  0  0  0  0  0  0  0
   -1.8669   35.6404  -18.7958 C   0  0  0  0  0  0  0  0  0  0  0  0
   -0.9459   35.4535  -19.8225 C   0  0  0  0  0  0  0  0  0  0  0  0
   -0.0492   34.3446  -20.0259 N   0  0  0  0  0  0  0  0  0  0  0  0
   -2.2138   34.9147  -17.7059 N   0  0  0  0  0  0  0  0  0  0  0  0
   -3.1927   35.5890  -17.0374 C   0  0  0  0  0  0  0  0  0  0  0  0
   -3.4416   36.7245  -17.7206 N   0  0  0  0  0  0  0  0  0  0  0  0
  1  3  1  1  0  0  0
  1  5  2  0  0  0  0
  1  9  1  0  0  0  0
  1 18  1  0  0  0  0
  2  4  1  6  0  0  0
  2  6  2  0  0  0  0
  2 10  1  0  0  0  0
  2 17  1  0  0  0  0
  7  9  1  0  0  0  0
  8 10  1  0  0  0  0
 11  7  1  6  0  0  0
 11 13  1  0  0  0  0
 11 15  1  0  0  0  0
 12  8  1  1  0  0  0
 12 14  1  0  0  0  0
 12 16  1  0  0  0  0
 13 23  1  0  0  0  0
 14 24  1  0  0  0  0
 15 17  1  1  0  0  0
 15 19  1  0  0  0  0
 16 18  1  6  0  0  0
 16 20  1  0  0  0  0
 19 21  1  1  0  0  0
 19 23  1  0  0  0  0
 20 22  1  6  0  0  0
 20 24  1  0  0  0  0
 23 34  1  6  0  0  0
 24 44  1  1  0  0  0
 25 26  2  0  0  0  0
 25 30  1  0  0  0  0
 26 27  1  0  0  0  0
 27 28  2  0  0  0  0
 28 29  1  0  0  0  0
 28 34  1  0  0  0  0
 29 30  2  0  0  0  0
 29 32  1  0  0  0  0
 30 31  1  0  0  0  0
 32 33  2  0  0  0  0
 33 34  1  0  0  0  0
 35 36  2  0  0  0  0
 35 40  1  0  0  0  0
 36 37  1  0  0  0  0
 37 38  2  0  0  0  0
 38 39  1  0  0  0  0
 38 44  1  0  0  0  0
 39 40  2  0  0  0  0
 39 42  1  0  0  0  0
 40 41  1  0  0  0  0
 42 43  2  0  0  0  0
 43 44  1  0  0  0  0
M  CHG  2   3  -1   4  -1
M  END
>  <CHROM.1>
-127.35687516,-140.22358629,-6.24401079,34.37421269,-15.59298351,0.45574514
0.78738344,0.38204071

>  <Name>
ligand

>  <RI>
0

>  <Rbt.Current_Directory>
/home/itssahil/PROJECTS/Mol_Feturizer/New_Systems/rnas/4QLM

>  <Rbt.Executable>
rbdock ($Id: //depot/dev/client3/rdock/2013.1/src/exe/rbdock.cxx#4 $)

>  <Rbt.Library>
libRbt.so (2013.1, Build901 2013/11/27)

>  <Rbt.Parameter_File>
/export/apps/rDock/src/rDock_2013.1_src/data/scripts/dock_solv.prm

>  <Rbt.Receptor>
prm/pocket_docking_4.prm

>  <SCORE>
-24.7139

>  <SCORE.INTER>
-25.0276

>  <SCORE.INTER.CONST>
1

>  <SCORE.INTER.POLAR>
0

>  <SCORE.INTER.ROT>
2

>  <SCORE.INTER.SOLV>
34.4299

>  <SCORE.INTER.VDW>
-33.095

>  <SCORE.INTER.norm>
-0.568808

>  <SCORE.INTRA>
0.313638

>  <SCORE.INTRA.DIHEDRAL>
0.0488663

>  <SCORE.INTRA.DIHEDRAL.0>
2.32994

>  <SCORE.INTRA.POLAR>
0

>  <SCORE.INTRA.POLAR.0>
0

>  <SCORE.INTRA.REPUL>
0

>  <SCORE.INTRA.REPUL.0>
0

>  <SCORE.INTRA.SOLV>
-0.0018328

>  <SCORE.INTRA.SOLV.lig_0>
-117.703

>  <SCORE.INTRA.VDW>
0.290121

>  <SCORE.INTRA.VDW.0>
-1.59997

>  <SCORE.INTRA.norm>
0.00712813

>  <SCORE.RESTR>
0

>  <SCORE.RESTR.CAVITY>
0

>  <SCORE.RESTR.norm>
0

>  <SCORE.SYSTEM>
0

>  <SCORE.SYSTEM.CONST>
0

>  <SCORE.SYSTEM.DIHEDRAL>
0

>  <SCORE.SYSTEM.SOLV>
0

>  <SCORE.SYSTEM.norm>
0

>  <SCORE.heavy>
44

>  <SCORE.norm>
-0.56168

>  <RMSD>
1.143

$$$$
ligand
 OpenBabel11021811513D
libRbt.so/2013.1/901 2013/11/27
 44 50  0  0  0  0  0  0  0  0999 V2000
   -8.5733   36.3452  -16.1580 P   0  0  2  0  0  0  0  0  0  0  0  0
   -4.5118   34.5998  -13.0492 P   0  0  1  0  0  0  0  0  0  0  0  0
   -9.9020   36.9145  -15.6673 O   0  5  0  0  0  0  0  0  0  0  0  0
   -4.0434   33.3233  -13.7042 O   0  5  0  0  0  0  0  0  0  0  0  0
   -8.8434   35.7717  -17.5282 O   0  0  0  0  0  0  0  0  0  0  0  0
   -3.4421   35.0040  -12.0094 O   0  0  0  0  0  0  0  0  0  0  0  0
   -8.6328   35.5275  -13.7561 C   0  0  0  0  0  0  0  0  0  0  0  0
   -5.3834   36.8894  -13.8656 C   0  0  0  0  0  0  0  0  0  0  0  0
   -8.1722   35.2763  -15.0906 O   0  0  0  0  0  0  0  0  0  0  0  0
   -4.8096   35.6245  -14.3007 O   0  0  0  0  0  0  0  0  0  0  0  0
   -8.2134   34.3888  -12.8325 C   0  0  1  0  0  0  0  0  0  0  0  0
   -5.4749   37.7962  -15.1505 C   0  0  1  0  0  0  0  0  0  0  0  0
   -9.0982   33.4451  -12.9269 O   0  0  0  0  0  0  0  0  0  0  0  0
   -4.3153   37.7591  -15.6679 O   0  0  0  0  0  0  0  0  0  0  0  0
   -6.8841   33.7755  -13.2080 C   0  0  1  0  0  0  0  0  0  0  0  0
   -6.3478   37.1317  -16.2338 C   0  0  1  0  0  0  0  0  0  0  0  0
   -5.9582   34.3101  -12.3682 O   0  0  0  0  0  0  0  0  0  0  0  0
   -7.5747   37.6659  -16.2676 O   0  0  0  0  0  0  0  0  0  0  0  0
   -7.0821   32.2502  -12.9004 C   0  0  1  0  0  0  0  0  0  0  0  0
   -5.6166   37.3249  -17.5819 C   0  0  1  0  0  0  0  0  0  0  0  0
   -6.4344   31.9014  -11.6073 O   0  0  0  0  0  0  0  0  0  0  0  0
   -6.2541   38.4276  -18.3711 O   0  0  0  0  0  0  0  0  0  0  0  0
   -8.3592   32.0445  -12.8513 C   0  0  2  0  0  0  0  0  0  0  0  0
   -4.4144   37.6618  -17.2624 C   0  0  2  0  0  0  0  0  0  0  0  0
  -10.2802   27.5264  -15.0235 N   0  0  0  0  0  0  0  0  0  0  0  0
  -10.1187   27.7614  -13.6909 C   0  0  0  0  0  0  0  0  0  0  0  0
   -9.6188   28.9548  -13.2356 N   0  0  0  0  0  0  0  0  0  0  0  0
   -9.2762   29.9198  -14.1420 C   0  0  0  0  0  0  0  0  0  0  0  0
   -9.4226   29.7007  -15.4561 C   0  0  0  0  0  0  0  0  0  0  0  0
   -9.9402   28.4888  -15.9099 C   0  0  0  0  0  0  0  0  0  0  0  0
  -10.1433   28.1346  -17.2584 N   0  0  0  0  0  0  0  0  0  0  0  0
   -9.0159   30.8104  -16.1083 N   0  0  0  0  0  0  0  0  0  0  0  0
   -8.6081   31.7183  -15.1763 C   0  0  0  0  0  0  0  0  0  0  0  0
   -8.7839   31.1782  -13.9633 N   0  0  0  0  0  0  0  0  0  0  0  0
   -0.8186   36.3579  -20.7966 N   0  0  0  0  0  0  0  0  0  0  0  0
   -1.5899   37.4765  -20.7942 C   0  0  0  0  0  0  0  0  0  0  0  0
   -2.4981   37.6678  -19.7912 N   0  0  0  0  0  0  0  0  0  0  0  0
   -2.6259   36.7472  -18.7979 C   0  0  0  0  0  0  0  0  0  0  0  0
   -1.8606   35.6371  -18.7913 C   0  0  0  0  0  0  0  0  0  0  0  0
   -0.9409   35.4483  -19.8188 C   0  0  0  0  0  0  0  0  0  0  0  0
   -0.0437   34.3396  -20.0207 N   0  0  0  0  0  0  0  0  0  0  0  0
   -2.2056   34.9138  -17.6991 N   0  0  0  0  0  0  0  0  0  0  0  0
   -3.1840   35.5891  -17.0309 C   0  0  0  0  0  0  0  0  0  0  0  0
   -3.4347   36.7227  -17.7166 N   0  0  0  0  0  0  0  0  0  0  0  0
  1  3  1  1  0  0  0
  1  5  2  0  0  0  0
  1  9  1  0  0  0  0
  1 18  1  0  0  0  0
  2  4  1  6  0  0  0
  2  6  2  0  0  0  0
  2 10  1  0  0  0  0
  2 17  1  0  0  0  0
  7  9  1  0  0  0  0
  8 10  1  0  0  0  0
 11  7  1  6  0  0  0
 11 13  1  0  0  0  0
 11 15  1  0  0  0  0
 12  8  1  1  0  0  0
 12 14  1  0  0  0  0
 12 16  1  0  0  0  0
 13 23  1  0  0  0  0
 14 24  1  0  0  0  0
 15 17  1  1  0  0  0
 15 19  1  0  0  0  0
 16 18  1  6  0  0  0
 16 20  1  0  0  0  0
 19 21  1  1  0  0  0
 19 23  1  0  0  0  0
 20 22  1  6  0  0  0
 20 24  1  0  0  0  0
 23 34  1  6  0  0  0
 24 44  1  1  0  0  0
 25 26  2  0  0  0  0
 25 30  1  0  0  0  0
 26 27  1  0  0  0  0
 27 28  2  0  0  0  0
 28 29  1  0  0  0  0
 28 34  1  0  0  0  0
 29 30  2  0  0  0  0
 29 32  1  0  0  0  0
 30 31  1  0  0  0  0
 32 33  2  0  0  0  0
 33 34  1  0  0  0  0
 35 36  2  0  0  0  0
 35 40  1  0  0  0  0
 36 37  1  0  0  0  0
 37 38  2  0  0  0  0
 38 39  1  0  0  0  0
 38 44  1  0  0  0  0
 39 40  2  0  0  0  0
 39 42  1  0  0  0  0
 40 41  1  0  0  0  0
 42 43  2  0  0  0  0
 43 44  1  0  0  0  0
M  CHG  2   3  -1   4  -1
M  END
>  <CHROM.1>
-127.57136144,-140.43081807,-6.24011730,34.37305532,-15.59213709,0.45543018
0.78713157,0.38253881

>  <Name>
ligand

>  <RI>
0

>  <Rbt.Current_Directory>
/home/itssahil/PROJECTS/Mol_Feturizer/New_Systems/rnas/4QLM

>  <Rbt.Executable>
rbdock ($Id: //depot/dev/client3/rdock/2013.1/src/exe/rbdock.cxx#4 $)

>  <Rbt.Library>
libRbt.so (2013.1, Build901 2013/11/27)

>  <Rbt.Parameter_File>
/export/apps/rDock/src/rDock_2013.1_src/data/scripts/dock_solv.prm

>  <Rbt.Receptor>
prm/pocket_docking_4.prm

>  <SCORE>
-24.6963

>  <SCORE.INTER>
-25.0013

>  <SCORE.INTER.CONST>
1

>  <SCORE.INTER.POLAR>
0

>  <SCORE.INTER.ROT>
2

>  <SCORE.INTER.SOLV>
34.4435

>  <SCORE.INTER.VDW>
-33.082

>  <SCORE.INTER.norm>
-0.568211

>  <SCORE.INTRA>
0.304946

>  <SCORE.INTRA.DIHEDRAL>
0.047801

>  <SCORE.INTRA.DIHEDRAL.0>
2.32994

>  <SCORE.INTRA.POLAR>
0

>  <SCORE.INTRA.POLAR.0>
0

>  <SCORE.INTRA.REPUL>
0

>  <SCORE.INTRA.REPUL.0>
0

>  <SCORE.INTRA.SOLV>
-0.00178022

>  <SCORE.INTRA.SOLV.lig_0>
-117.703

>  <SCORE.INTRA.VDW>
0.281935

>  <SCORE.INTRA.VDW.0>
-1.59997

>  <SCORE.INTRA.norm>
0.00693058

>  <SCORE.RESTR>
0

>  <SCORE.RESTR.CAVITY>
0

>  <SCORE.RESTR.norm>
0

>  <SCORE.SYSTEM>
0

>  <SCORE.SYSTEM.CONST>
0

>  <SCORE.SYSTEM.DIHEDRAL>
0

>  <SCORE.SYSTEM.SOLV>
0

>  <SCORE.SYSTEM.norm>
0

>  <SCORE.heavy>
44

>  <SCORE.norm>
-0.56128

>  <RMSD>
1.143

$$$$
ligand
 OpenBabel11021811513D
libRbt.so/2013.1/901 2013/11/27
 44 50  0  0  0  0  0  0  0  0999 V2000
   -8.5672   36.3091  -16.1551 P   0  0  2  0  0  0  0  0  0  0  0  0
   -4.5078   34.6313  -13.0068 P   0  0  1  0  0  0  0  0  0  0  0  0
   -9.9044   36.8699  -15.6775 O   0  5  0  0  0  0  0  0  0  0  0  0
   -4.0231   33.3536  -13.6474 O   0  5  0  0  0  0  0  0  0  0  0  0
   -8.8236   35.7208  -17.5217 O   0  0  0  0  0  0  0  0  0  0  0  0
   -3.4483   35.0552  -11.9643 O   0  0  0  0  0  0  0  0  0  0  0  0
   -8.6332   35.5125  -13.7463 C   0  0  0  0  0  0  0  0  0  0  0  0
   -5.3966   36.9049  -13.8489 C   0  0  0  0  0  0  0  0  0  0  0  0
   -8.1622   35.2538  -15.0758 O   0  0  0  0  0  0  0  0  0  0  0  0
   -4.8079   35.6418  -14.2692 O   0  0  0  0  0  0  0  0  0  0  0  0
   -8.2084   34.3863  -12.8100 C   0  0  1  0  0  0  0  0  0  0  0  0
   -5.4892   37.7992  -15.1424 C   0  0  1  0  0  0  0  0  0  0  0  0
   -9.0835   33.4332  -12.9011 O   0  0  0  0  0  0  0  0  0  0  0  0
   -4.3261   37.7687  -15.6527 O   0  0  0  0  0  0  0  0  0  0  0  0
   -6.8710   33.7826  -13.1721 C   0  0  1  0  0  0  0  0  0  0  0  0
   -6.3490   37.1165  -16.2249 C   0  0  1  0  0  0  0  0  0  0  0  0
   -5.9553   34.3337  -12.3317 O   0  0  0  0  0  0  0  0  0  0  0  0
   -7.5808   37.6385  -16.2707 O   0  0  0  0  0  0  0  0  0  0  0  0
   -7.0561   32.2583  -12.8519 C   0  0  1  0  0  0  0  0  0  0  0  0
   -5.6117   37.3048  -17.5703 C   0  0  1  0  0  0  0  0  0  0  0  0
   -6.4127   31.9274  -11.5519 O   0  0  0  0  0  0  0  0  0  0  0  0
   -6.2551   38.3941  -18.3732 O   0  0  0  0  0  0  0  0  0  0  0  0
   -8.3314   32.0406  -12.8086 C   0  0  2  0  0  0  0  0  0  0  0  0
   -4.4147   37.6562  -17.2468 C   0  0  2  0  0  0  0  0  0  0  0  0
  -10.2577   27.5089  -14.9473 N   0  0  0  0  0  0  0  0  0  0  0  0
  -10.1242   27.7650  -13.6155 C   0  0  0  0  0  0  0  0  0  0  0  0
   -9.6201   28.9601  -13.1691 N   0  0  0  0  0  0  0  0  0  0  0  0
   -9.2447   29.9050  -14.0837 C   0  0  0  0  0  0  0  0  0  0  0  0
   -9.3633   29.6648  -15.3969 C   0  0  0  0  0  0  0  0  0  0  0  0
   -9.8854   28.4515  -15.8419 C   0  0  0  0  0  0  0  0  0  0  0  0
  -10.0616   28.0764  -17.1885 N   0  0  0  0  0  0  0  0  0  0  0  0
   -8.9279   30.7581  -16.0584 N   0  0  0  0  0  0  0  0  0  0  0  0
   -8.5305   31.6770  -15.1328 C   0  0  0  0  0  0  0  0  0  0  0  0
   -8.7410   31.1603  -13.9151 N   0  0  0  0  0  0  0  0  0  0  0  0
   -0.8052   36.3419  -20.7630 N   0  0  0  0  0  0  0  0  0  0  0  0
   -1.5910   37.4503  -20.7780 C   0  0  0  0  0  0  0  0  0  0  0  0
   -2.5008   37.6460  -19.7773 N   0  0  0  0  0  0  0  0  0  0  0  0
   -2.6158   36.7401  -18.7690 C   0  0  0  0  0  0  0  0  0  0  0  0
   -1.8362   35.6402  -18.7453 C   0  0  0  0  0  0  0  0  0  0  0  0
   -0.9149   35.4468  -19.7705 C   0  0  0  0  0  0  0  0  0  0  0  0
   -0.0035   34.3466  -19.9553 N   0  0  0  0  0  0  0  0  0  0  0  0
   -2.1708   34.9304  -17.6411 N   0  0  0  0  0  0  0  0  0  0  0  0
   -3.1574   35.6037  -16.9829 C   0  0  0  0  0  0  0  0  0  0  0  0
   -3.4233   36.7227  -17.6867 N   0  0  0  0  0  0  0  0  0  0  0  0
  1  3  1  1  0  0  0
  1  5  2  0  0  0  0
  1  9  1  0  0  0  0
  1 18  1  0  0  0  0
  2  4  1  6  0  0  0
  2  6  2  0  0  0  0
  2 10  1  0  0  0  0
  2 17  1  0  0  0  0
  7  9  1  0  0  0  0
  8 10  1  0  0  0  0
 11  7  1  6  0  0  0
 11 13  1  0  0  0  0
 11 15  1  0  0  0  0
 12  8  1  1  0  0  0
 12 14  1  0  0  0  0
 12 16  1  0  0  0  0
 13 23  1  0  0  0  0
 14 24  1  0  0  0  0
 15 17  1  1  0  0  0
 15 19  1  0  0  0  0
 16 18  1  6  0  0  0
 16 20  1  0  0  0  0
 19 21  1  1  0  0  0
 19 23  1  0  0  0  0
 20 22  1  6  0  0  0
 20 24  1  0  0  0  0
 23 34  1  6  0  0  0
 24 44  1  1  0  0  0
 25 26  2  0  0  0  0
 25 30  1  0  0  0  0
 26 27  1  0  0  0  0
 27 28  2  0  0  0  0
 28 29  1  0  0  0  0
 28 34  1  0  0  0  0
 29 30  2  0  0  0  0
 29 32  1  0  0  0  0
 30 31  1  0  0  0  0
 32 33  2  0  0  0  0
 33 34  1  0  0  0  0
 35 36  2  0  0  0  0
 35 40  1  0  0  0  0
 36 37  1  0  0  0  0
 37 38  2  0  0  0  0
 38 39  1  0  0  0  0
 38 44  1  0  0  0  0
 39 40  2  0  0  0  0
 39 42  1  0  0  0  0
 40 41  1  0  0  0  0
 42 43  2  0  0  0  0
 43 44  1  0  0  0  0
M  CHG  2   3  -1   4  -1
M  END
>  <CHROM.1>
-125.90185486,-141.03298408,-6.22428594,34.36544331,-15.55852625,0.45649914
0.79030033,0.38074228

>  <Name>
ligand

>  <RI>
0

>  <Rbt.Current_Directory>
/home/itssahil/PROJECTS/Mol_Feturizer/New_Systems/rnas/4QLM

>  <Rbt.Executable>
rbdock ($Id: //depot/dev/client3/rdock/2013.1/src/exe/rbdock.cxx#4 $)

>  <Rbt.Library>
libRbt.so (2013.1, Build901 2013/11/27)

>  <Rbt.Parameter_File>
/export/apps/rDock/src/rDock_2013.1_src/data/scripts/dock_solv.prm

>  <Rbt.Receptor>
prm/pocket_docking_8.prm

>  <SCORE>
-24.4364

>  <SCORE.INTER>
-25.0051

>  <SCORE.INTER.CONST>
1

>  <SCORE.INTER.POLAR>
0

>  <SCORE.INTER.ROT>
2

>  <SCORE.INTER.SOLV>
33.9187

>  <SCORE.INTER.VDW>
-32.9096

>  <SCORE.INTER.norm>
-0.568297

>  <SCORE.INTRA>
0.37455

>  <SCORE.INTRA.DIHEDRAL>
0.0567829

>  <SCORE.INTRA.DIHEDRAL.0>
2.32994

>  <SCORE.INTRA.POLAR>
0

>  <SCORE.INTRA.POLAR.0>
0

>  <SCORE.INTRA.REPUL>
0

>  <SCORE.INTRA.REPUL.0>
0

>  <SCORE.INTRA.SOLV>
-0.00190995

>  <SCORE.INTRA.SOLV.lig_0>
-117.703

>  <SCORE.INTRA.VDW>
0.347114

>  <SCORE.INTRA.VDW.0>
-1.59997

>  <SCORE.INTRA.norm>
0.0085125

>  <SCORE.RESTR>
0.194159

>  <SCORE.RESTR.CAVITY>
0.194159

>  <SCORE.RESTR.norm>
0.0044127

>  <SCORE.SYSTEM>
0

>  <SCORE.SYSTEM.CONST>
0

>  <SCORE.SYSTEM.DIHEDRAL>
0

>  <SCORE.SYSTEM.SOLV>
0

>  <SCORE.SYSTEM.norm>
0

>  <SCORE.heavy>
44

>  <SCORE.norm>
-0.555372

>  <RMSD>
1.144

$$$$
ligand
 OpenBabel11021811513D
libRbt.so/2013.1/901 2013/11/27
 44 50  0  0  0  0  0  0  0  0999 V2000
   -8.5519   36.3663  -16.1689 P   0  0  2  0  0  0  0  0  0  0  0  0
   -4.5000   34.6947  -13.0078 P   0  0  1  0  0  0  0  0  0  0  0  0
   -9.8840   36.9427  -15.6957 O   0  5  0  0  0  0  0  0  0  0  0  0
   -4.0260   33.4059  -13.6343 O   0  5  0  0  0  0  0  0  0  0  0  0
   -8.8150   35.7641  -17.5282 O   0  0  0  0  0  0  0  0  0  0  0  0
   -3.4355   35.1226  -11.9720 O   0  0  0  0  0  0  0  0  0  0  0  0
   -8.6199   35.5983  -13.7509 C   0  0  0  0  0  0  0  0  0  0  0  0
   -5.3730   36.9650  -13.8749 C   0  0  0  0  0  0  0  0  0  0  0  0
   -8.1531   35.3206  -15.0780 O   0  0  0  0  0  0  0  0  0  0  0  0
   -4.7946   35.6926  -14.2814 O   0  0  0  0  0  0  0  0  0  0  0  0
   -8.2020   34.4799  -12.8023 C   0  0  1  0  0  0  0  0  0  0  0  0
   -5.4611   37.8448  -15.1786 C   0  0  1  0  0  0  0  0  0  0  0  0
   -9.0843   33.5324  -12.8808 O   0  0  0  0  0  0  0  0  0  0  0  0
   -4.2991   37.7996  -15.6904 O   0  0  0  0  0  0  0  0  0  0  0  0
   -6.8697   33.8619  -13.1594 C   0  0  1  0  0  0  0  0  0  0  0  0
   -6.3278   37.1561  -16.2516 C   0  0  1  0  0  0  0  0  0  0  0  0
   -5.9485   34.4158  -12.3270 O   0  0  0  0  0  0  0  0  0  0  0  0
   -7.5558   37.6868  -16.3016 O   0  0  0  0  0  0  0  0  0  0  0  0
   -7.0658   32.3429  -12.8212 C   0  0  1  0  0  0  0  0  0  0  0  0
   -5.5914   37.3231  -17.6004 C   0  0  1  0  0  0  0  0  0  0  0  0
   -6.4227   32.0223  -11.5185 O   0  0  0  0  0  0  0  0  0  0  0  0
   -6.2279   38.4078  -18.4149 O   0  0  0  0  0  0  0  0  0  0  0  0
   -8.3426   32.1353  -12.7733 C   0  0  2  0  0  0  0  0  0  0  0  0
   -4.3912   37.6693  -17.2829 C   0  0  2  0  0  0  0  0  0  0  0  0
  -10.2175   27.5588  -14.8617 N   0  0  0  0  0  0  0  0  0  0  0  0
  -10.0544   27.8183  -13.5338 C   0  0  0  0  0  0  0  0  0  0  0  0
   -9.5671   29.0250  -13.1006 N   0  0  0  0  0  0  0  0  0  0  0  0
   -9.2388   29.9784  -14.0244 C   0  0  0  0  0  0  0  0  0  0  0  0
   -9.3868   29.7353  -15.3342 C   0  0  0  0  0  0  0  0  0  0  0  0
   -9.8917   28.5098  -15.7655 C   0  0  0  0  0  0  0  0  0  0  0  0
  -10.0950   28.1303  -17.1070 N   0  0  0  0  0  0  0  0  0  0  0  0
   -8.9953   30.8384  -16.0066 N   0  0  0  0  0  0  0  0  0  0  0  0
   -8.5952   31.7667  -15.0915 C   0  0  0  0  0  0  0  0  0  0  0  0
   -8.7607   31.2453  -13.8689 N   0  0  0  0  0  0  0  0  0  0  0  0
   -0.7800   36.2991  -20.7760 N   0  0  0  0  0  0  0  0  0  0  0  0
   -1.5542   37.4155  -20.8002 C   0  0  0  0  0  0  0  0  0  0  0  0
   -2.4663   37.6259  -19.8047 N   0  0  0  0  0  0  0  0  0  0  0  0
   -2.5952   36.7266  -18.7923 C   0  0  0  0  0  0  0  0  0  0  0  0
   -1.8271   35.6188  -18.7592 C   0  0  0  0  0  0  0  0  0  0  0  0
   -0.9034   35.4104  -19.7793 C   0  0  0  0  0  0  0  0  0  0  0  0
   -0.0027   34.3000  -19.9543 N   0  0  0  0  0  0  0  0  0  0  0  0
   -2.1740   34.9183  -17.6529 N   0  0  0  0  0  0  0  0  0  0  0  0
   -3.1565   35.6052  -17.0027 C   0  0  0  0  0  0  0  0  0  0  0  0
   -3.4076   36.7232  -17.7135 N   0  0  0  0  0  0  0  0  0  0  0  0
  1  3  1  1  0  0  0
  1  5  2  0  0  0  0
  1  9  1  0  0  0  0
  1 18  1  0  0  0  0
  2  4  1  6  0  0  0
  2  6  2  0  0  0  0
  2 10  1  0  0  0  0
  2 17  1  0  0  0  0
  7  9  1  0  0  0  0
  8 10  1  0  0  0  0
 11  7  1  6  0  0  0
 11 13  1  0  0  0  0
 11 15  1  0  0  0  0
 12  8  1  1  0  0  0
 12 14  1  0  0  0  0
 12 16  1  0  0  0  0
 13 23  1  0  0  0  0
 14 24  1  0  0  0  0
 15 17  1  1  0  0  0
 15 19  1  0  0  0  0
 16 18  1  6  0  0  0
 16 20  1  0  0  0  0
 19 21  1  1  0  0  0
 19 23  1  0  0  0  0
 20 22  1  6  0  0  0
 20 24  1  0  0  0  0
 23 34  1  6  0  0  0
 24 44  1  1  0  0  0
 25 26  2  0  0  0  0
 25 30  1  0  0  0  0
 26 27  1  0  0  0  0
 27 28  2  0  0  0  0
 28 29  1  0  0  0  0
 28 34  1  0  0  0  0
 29 30  2  0  0  0  0
 29 32  1  0  0  0  0
 30 31  1  0  0  0  0
 32 33  2  0  0  0  0
 33 34  1  0  0  0  0
 35 36  2  0  0  0  0
 35 40  1  0  0  0  0
 36 37  1  0  0  0  0
 37 38  2  0  0  0  0
 38 39  1  0  0  0  0
 38 44  1  0  0  0  0
 39 40  2  0  0  0  0
 39 42  1  0  0  0  0
 40 41  1  0  0  0  0
 42 43  2  0  0  0  0
 43 44  1  0  0  0  0
M  CHG  2   3  -1   4  -1
M  END
>  <CHROM.1>
-128.29780293,-140.49964080,-6.21527471,34.41080701,-15.55300811,0.46430105
0.78346313,0.35371611

>  <Name>
ligand

>  <RI>
0

>  <Rbt.Current_Directory>
/home/itssahil/PROJECTS/Mol_Feturizer/New_Systems/rnas/4QLM

>  <Rbt.Executable>
rbdock ($Id: //depot/dev/client3/rdock/2013.1/src/exe/rbdock.cxx#4 $)

>  <Rbt.Library>
libRbt.so (2013.1, Build901 2013/11/27)

>  <Rbt.Parameter_File>
/export/apps/rDock/src/rDock_2013.1_src/data/scripts/dock_solv.prm

>  <Rbt.Receptor>
prm/pocket_docking_3.prm

>  <SCORE>
-24.5413

>  <SCORE.INTER>
-24.8196

>  <SCORE.INTER.CONST>
1

>  <SCORE.INTER.POLAR>
0

>  <SCORE.INTER.ROT>
2

>  <SCORE.INTER.SOLV>
33.5871

>  <SCORE.INTER.VDW>
-32.6754

>  <SCORE.INTER.norm>
-0.564082

>  <SCORE.INTRA>
0.276573

>  <SCORE.INTRA.DIHEDRAL>
0.0440516

>  <SCORE.INTRA.DIHEDRAL.0>
2.32994

>  <SCORE.INTRA.POLAR>
0

>  <SCORE.INTRA.POLAR.0>
0

>  <SCORE.INTRA.REPUL>
0

>  <SCORE.INTRA.REPUL.0>
0

>  <SCORE.INTRA.SOLV>
-0.0016774

>  <SCORE.INTRA.SOLV.lig_0>
-117.703

>  <SCORE.INTRA.VDW>
0.255386

>  <SCORE.INTRA.VDW.0>
-1.59997

>  <SCORE.INTRA.norm>
0.00628574

>  <SCORE.RESTR>
0.00173731

>  <SCORE.RESTR.CAVITY>
0.00173731

>  <SCORE.RESTR.norm>
3.94844e-05

>  <SCORE.SYSTEM>
0

>  <SCORE.SYSTEM.CONST>
0

>  <SCORE.SYSTEM.DIHEDRAL>
0

>  <SCORE.SYSTEM.SOLV>
0

>  <SCORE.SYSTEM.norm>
0

>  <SCORE.heavy>
44

>  <SCORE.norm>
-0.557757

>  <RMSD>
1.157

$$$$
ligand
 OpenBabel11021811513D
libRbt.so/2013.1/901 2013/11/27
 44 50  0  0  0  0  0  0  0  0999 V2000
   -8.5561   36.3788  -16.1603 P   0  0  2  0  0  0  0  0  0  0  0  0
   -4.4988   34.6943  -13.0128 P   0  0  1  0  0  0  0  0  0  0  0  0
   -9.8855   36.9575  -15.6826 O   0  5  0  0  0  0  0  0  0  0  0  0
   -4.0294   33.4053  -13.6423 O   0  5  0  0  0  0  0  0  0  0  0  0
   -8.8243   35.7789  -17.5195 O   0  0  0  0  0  0  0  0  0  0  0  0
   -3.4305   35.1186  -11.9796 O   0  0  0  0  0  0  0  0  0  0  0  0
   -8.6188   35.6080  -13.7430 C   0  0  0  0  0  0  0  0  0  0  0  0
   -5.3693   36.9676  -13.8746 C   0  0  0  0  0  0  0  0  0  0  0  0
   -8.1564   35.3309  -15.0718 O   0  0  0  0  0  0  0  0  0  0  0  0
   -4.7948   35.6945  -14.2844 O   0  0  0  0  0  0  0  0  0  0  0  0
   -8.2007   34.4874  -12.7970 C   0  0  1  0  0  0  0  0  0  0  0  0
   -5.4591   37.8493  -15.1770 C   0  0  1  0  0  0  0  0  0  0  0  0
   -9.0853   33.5420  -12.8742 O   0  0  0  0  0  0  0  0  0  0  0  0
   -4.2987   37.8021  -15.6921 O   0  0  0  0  0  0  0  0  0  0  0  0
   -6.8708   33.8669  -13.1587 C   0  0  1  0  0  0  0  0  0  0  0  0
   -6.3305   37.1638  -16.2484 C   0  0  1  0  0  0  0  0  0  0  0  0
   -5.9460   34.4178  -12.3283 O   0  0  0  0  0  0  0  0  0  0  0  0
   -7.5573   37.6973  -16.2942 O   0  0  0  0  0  0  0  0  0  0  0  0
   -7.0692   32.3480  -12.8218 C   0  0  1  0  0  0  0  0  0  0  0  0
   -5.5975   37.3308  -17.5990 C   0  0  1  0  0  0  0  0  0  0  0  0
   -6.4232   32.0243  -11.5213 O   0  0  0  0  0  0  0  0  0  0  0  0
   -6.2339   38.4180  -18.4103 O   0  0  0  0  0  0  0  0  0  0  0  0
   -8.3464   32.1432  -12.7705 C   0  0  2  0  0  0  0  0  0  0  0  0
   -4.3957   37.6740  -17.2845 C   0  0  2  0  0  0  0  0  0  0  0  0
  -10.2678   27.5850  -14.8569 N   0  0  0  0  0  0  0  0  0  0  0  0
  -10.1091   27.8462  -13.5289 C   0  0  0  0  0  0  0  0  0  0  0  0
   -9.6088   29.0479  -13.0962 N   0  0  0  0  0  0  0  0  0  0  0  0
   -9.2630   29.9943  -14.0208 C   0  0  0  0  0  0  0  0  0  0  0  0
   -9.4066   29.7493  -15.3307 C   0  0  0  0  0  0  0  0  0  0  0  0
   -9.9246   28.5292  -15.7615 C   0  0  0  0  0  0  0  0  0  0  0  0
  -10.1251   28.1485  -17.1031 N   0  0  0  0  0  0  0  0  0  0  0  0
   -8.9971   30.8454  -16.0039 N   0  0  0  0  0  0  0  0  0  0  0  0
   -8.5904   31.7711  -15.0892 C   0  0  0  0  0  0  0  0  0  0  0  0
   -8.7696   31.2554  -13.8660 N   0  0  0  0  0  0  0  0  0  0  0  0
   -0.7799   36.3122  -20.7762 N   0  0  0  0  0  0  0  0  0  0  0  0
   -1.5485   37.4326  -20.7945 C   0  0  0  0  0  0  0  0  0  0  0  0
   -2.4628   37.6401  -19.8004 N   0  0  0  0  0  0  0  0  0  0  0  0
   -2.5994   36.7338  -18.7951 C   0  0  0  0  0  0  0  0  0  0  0  0
   -1.8370   35.6219  -18.7680 C   0  0  0  0  0  0  0  0  0  0  0  0
   -0.9110   35.4166  -19.7867 C   0  0  0  0  0  0  0  0  0  0  0  0
   -0.0152   34.3031  -19.9672 N   0  0  0  0  0  0  0  0  0  0  0  0
   -2.1909   34.9148  -17.6682 N   0  0  0  0  0  0  0  0  0  0  0  0
   -3.1721   35.6017  -17.0160 C   0  0  0  0  0  0  0  0  0  0  0  0
   -3.4154   36.7262  -17.7190 N   0  0  0  0  0  0  0  0  0  0  0  0
  1  3  1  1  0  0  0
  1  5  2  0  0  0  0
  1  9  1  0  0  0  0
  1 18  1  0  0  0  0
  2  4  1  6  0  0  0
  2  6  2  0  0  0  0
  2 10  1  0  0  0  0
  2 17  1  0  0  0  0
  7  9  1  0  0  0  0
  8 10  1  0  0  0  0
 11  7  1  6  0  0  0
 11 13  1  0  0  0  0
 11 15  1  0  0  0  0
 12  8  1  1  0  0  0
 12 14  1  0  0  0  0
 12 16  1  0  0  0  0
 13 23  1  0  0  0  0
 14 24  1  0  0  0  0
 15 17  1  1  0  0  0
 15 19  1  0  0  0  0
 16 18  1  6  0  0  0
 16 20  1  0  0  0  0
 19 21  1  1  0  0  0
 19 23  1  0  0  0  0
 20 22  1  6  0  0  0
 20 24  1  0  0  0  0
 23 34  1  6  0  0  0
 24 44  1  1  0  0  0
 25 26  2  0  0  0  0
 25 30  1  0  0  0  0
 26 27  1  0  0  0  0
 27 28  2  0  0  0  0
 28 29  1  0  0  0  0
 28 34  1  0  0  0  0
 29 30  2  0  0  0  0
 29 32  1  0  0  0  0
 30 31  1  0  0  0  0
 32 33  2  0  0  0  0
 33 34  1  0  0  0  0
 35 36  2  0  0  0  0
 35 40  1  0  0  0  0
 36 37  1  0  0  0  0
 37 38  2  0  0  0  0
 38 39  1  0  0  0  0
 38 44  1  0  0  0  0
 39 40  2  0  0  0  0
 39 42  1  0  0  0  0
 40 41  1  0  0  0  0
 42 43  2  0  0  0  0
 43 44  1  0  0  0  0
M  CHG  2   3  -1   4  -1
M  END
>  <CHROM.1>
-127.47980862,-139.97268255,-6.22270377,34.41904073,-15.55223138,0.45914587
0.78363453,0.35862585

>  <Name>
ligand

>  <RI>
0

>  <Rbt.Current_Directory>
/home/itssahil/PROJECTS/Mol_Feturizer/New_Systems/rnas/4QLM

>  <Rbt.Executable>
rbdock ($Id: //depot/dev/client3/rdock/2013.1/src/exe/rbdock.cxx#4 $)

>  <Rbt.Library>
libRbt.so (2013.1, Build901 2013/11/27)

>  <Rbt.Parameter_File>
/export/apps/rDock/src/rDock_2013.1_src/data/scripts/dock_solv.prm

>  <Rbt.Receptor>
prm/pocket_docking_3.prm

>  <SCORE>
-24.5604

>  <SCORE.INTER>
-24.8692

>  <SCORE.INTER.CONST>
1

>  <SCORE.INTER.POLAR>
0

>  <SCORE.INTER.ROT>
2

>  <SCORE.INTER.SOLV>
33.5822

>  <SCORE.INTER.VDW>
-32.7069

>  <SCORE.INTER.norm>
-0.56521

>  <SCORE.INTRA>
0.30886

>  <SCORE.INTRA.DIHEDRAL>
0.0481534

>  <SCORE.INTRA.DIHEDRAL.0>
2.32994

>  <SCORE.INTRA.POLAR>
0

>  <SCORE.INTRA.POLAR.0>
0

>  <SCORE.INTRA.REPUL>
0

>  <SCORE.INTRA.REPUL.0>
0

>  <SCORE.INTRA.SOLV>
-0.00184751

>  <SCORE.INTRA.SOLV.lig_0>
-117.703

>  <SCORE.INTRA.VDW>
0.285707

>  <SCORE.INTRA.VDW.0>
-1.59997

>  <SCORE.INTRA.norm>
0.00701955

>  <SCORE.RESTR>
0

>  <SCORE.RESTR.CAVITY>
0

>  <SCORE.RESTR.norm>
0

>  <SCORE.SYSTEM>
0

>  <SCORE.SYSTEM.CONST>
0

>  <SCORE.SYSTEM.DIHEDRAL>
0

>  <SCORE.SYSTEM.SOLV>
0

>  <SCORE.SYSTEM.norm>
0

>  <SCORE.heavy>
44

>  <SCORE.norm>
-0.558191

>  <RMSD>
1.159

$$$$
ligand
 OpenBabel11021811513D
libRbt.so/2013.1/901 2013/11/27
 44 50  0  0  0  0  0  0  0  0999 V2000
   -8.5479   36.3645  -16.1605 P   0  0  2  0  0  0  0  0  0  0  0  0
   -4.4978   34.6967  -12.9949 P   0  0  1  0  0  0  0  0  0  0  0  0
   -9.8815   36.9384  -15.6887 O   0  5  0  0  0  0  0  0  0  0  0  0
   -4.0209   33.4092  -13.6217 O   0  5  0  0  0  0  0  0  0  0  0  0
   -8.8080   35.7629  -17.5206 O   0  0  0  0  0  0  0  0  0  0  0  0
   -3.4355   35.1255  -11.9572 O   0  0  0  0  0  0  0  0  0  0  0  0
   -8.6181   35.5945  -13.7432 C   0  0  0  0  0  0  0  0  0  0  0  0
   -5.3732   36.9663  -13.8615 C   0  0  0  0  0  0  0  0  0  0  0  0
   -8.1489   35.3186  -15.0698 O   0  0  0  0  0  0  0  0  0  0  0  0
   -4.7922   35.6952  -14.2681 O   0  0  0  0  0  0  0  0  0  0  0  0
   -8.1998   34.4760  -12.7948 C   0  0  1  0  0  0  0  0  0  0  0  0
   -5.4607   37.8471  -15.1646 C   0  0  1  0  0  0  0  0  0  0  0  0
   -9.0805   33.5272  -12.8754 O   0  0  0  0  0  0  0  0  0  0  0  0
   -4.2980   37.8041  -15.6747 O   0  0  0  0  0  0  0  0  0  0  0  0
   -6.8661   33.8604  -13.1505 C   0  0  1  0  0  0  0  0  0  0  0  0
   -6.3249   37.1578  -16.2394 C   0  0  1  0  0  0  0  0  0  0  0  0
   -5.9469   34.4151  -12.3164 O   0  0  0  0  0  0  0  0  0  0  0  0
   -7.5536   37.6866  -16.2907 O   0  0  0  0  0  0  0  0  0  0  0  0
   -7.0602   32.3408  -12.8138 C   0  0  1  0  0  0  0  0  0  0  0  0
   -5.5868   37.3270  -17.5869 C   0  0  1  0  0  0  0  0  0  0  0  0
   -6.4185   32.0202  -11.5104 O   0  0  0  0  0  0  0  0  0  0  0  0
   -6.2238   38.4114  -18.4015 O   0  0  0  0  0  0  0  0  0  0  0  0
   -8.3368   32.1312  -12.7679 C   0  0  2  0  0  0  0  0  0  0  0  0
   -4.3876   37.6748  -17.2675 C   0  0  2  0  0  0  0  0  0  0  0  0
  -10.2698   27.5797  -14.8581 N   0  0  0  0  0  0  0  0  0  0  0  0
  -10.1286   27.8468  -13.5292 C   0  0  0  0  0  0  0  0  0  0  0  0
   -9.6234   29.0461  -13.0956 N   0  0  0  0  0  0  0  0  0  0  0  0
   -9.2549   29.9841  -14.0201 C   0  0  0  0  0  0  0  0  0  0  0  0
   -9.3812   29.7332  -15.3306 C   0  0  0  0  0  0  0  0  0  0  0  0
   -9.9042   28.5156  -15.7625 C   0  0  0  0  0  0  0  0  0  0  0  0
  -10.0882   28.1293  -17.1049 N   0  0  0  0  0  0  0  0  0  0  0  0
   -8.9513   30.8216  -16.0035 N   0  0  0  0  0  0  0  0  0  0  0  0
   -8.5495   31.7485  -15.0878 C   0  0  0  0  0  0  0  0  0  0  0  0
   -8.7519   31.2414  -13.8647 N   0  0  0  0  0  0  0  0  0  0  0  0
   -0.7892   36.2992  -20.7716 N   0  0  0  0  0  0  0  0  0  0  0  0
   -1.5688   37.4118  -20.7987 C   0  0  0  0  0  0  0  0  0  0  0  0
   -2.4764   37.6243  -19.7995 N   0  0  0  0  0  0  0  0  0  0  0  0
   -2.5954   36.7309  -18.7806 C   0  0  0  0  0  0  0  0  0  0  0  0
   -1.8220   35.6270  -18.7447 C   0  0  0  0  0  0  0  0  0  0  0  0
   -0.9029   35.4164  -19.7685 C   0  0  0  0  0  0  0  0  0  0  0  0
    0.0021   34.3091  -19.9413 N   0  0  0  0  0  0  0  0  0  0  0  0
   -2.1594   34.9320  -17.6320 N   0  0  0  0  0  0  0  0  0  0  0  0
   -3.1416   35.6185  -16.9808 C   0  0  0  0  0  0  0  0  0  0  0  0
   -3.4019   36.7306  -17.6974 N   0  0  0  0  0  0  0  0  0  0  0  0
  1  3  1  1  0  0  0
  1  5  2  0  0  0  0
  1  9  1  0  0  0  0
  1 18  1  0  0  0  0
  2  4  1  6  0  0  0
  2  6  2  0  0  0  0
  2 10  1  0  0  0  0
  2 17  1  0  0  0  0
  7  9  1  0  0  0  0
  8 10  1  0  0  0  0
 11  7  1  6  0  0  0
 11 13  1  0  0  0  0
 11 15  1  0  0  0  0
 12  8  1  1  0  0  0
 12 14  1  0  0  0  0
 12 16  1  0  0  0  0
 13 23  1  0  0  0  0
 14 24  1  0  0  0  0
 15 17  1  1  0  0  0
 15 19  1  0  0  0  0
 16 18  1  6  0  0  0
 16 20  1  0  0  0  0
 19 21  1  1  0  0  0
 19 23  1  0  0  0  0
 20 22  1  6  0  0  0
 20 24  1  0  0  0  0
 23 34  1  6  0  0  0
 24 44  1  1  0  0  0
 25 26  2  0  0  0  0
 25 30  1  0  0  0  0
 26 27  1  0  0  0  0
 27 28  2  0  0  0  0
 28 29  1  0  0  0  0
 28 34  1  0  0  0  0
 29 30  2  0  0  0  0
 29 32  1  0  0  0  0
 30 31  1  0  0  0  0
 32 33  2  0  0  0  0
 33 34  1  0  0  0  0
 35 36  2  0  0  0  0
 35 40  1  0  0  0  0
 36 37  1  0  0  0  0
 37 38  2  0  0  0  0
 38 39  1  0  0  0  0
 38 44  1  0  0  0  0
 39 40  2  0  0  0  0
 39 42  1  0  0  0  0
 40 41  1  0  0  0  0
 42 43  2  0  0  0  0
 43 44  1  0  0  0  0
M  CHG  2   3  -1   4  -1
M  END
>  <CHROM.1>
-126.46397260,-141.10198054,-6.21521441,34.41277066,-15.54349702,0.45141774
0.78797022,0.37206753

>  <Name>
ligand

>  <RI>
0

>  <Rbt.Current_Directory>
/home/itssahil/PROJECTS/Mol_Feturizer/New_Systems/rnas/4QLM

>  <Rbt.Executable>
rbdock ($Id: //depot/dev/client3/rdock/2013.1/src/exe/rbdock.cxx#4 $)

>  <Rbt.Library>
libRbt.so (2013.1, Build901 2013/11/27)

>  <Rbt.Parameter_File>
/export/apps/rDock/src/rDock_2013.1_src/data/scripts/dock_solv.prm

>  <Rbt.Receptor>
prm/pocket_docking_3.prm

>  <SCORE>
-24.5586

>  <SCORE.INTER>
-24.9091

>  <SCORE.INTER.CONST>
1

>  <SCORE.INTER.POLAR>
0

>  <SCORE.INTER.ROT>
2

>  <SCORE.INTER.SOLV>
33.5549

>  <SCORE.INTER.VDW>
-32.7244

>  <SCORE.INTER.norm>
-0.566115

>  <SCORE.INTRA>
0.350395

>  <SCORE.INTRA.DIHEDRAL>
0.053806

>  <SCORE.INTRA.DIHEDRAL.0>
2.32994

>  <SCORE.INTRA.POLAR>
0

>  <SCORE.INTRA.POLAR.0>
0

>  <SCORE.INTRA.REPUL>
0

>  <SCORE.INTRA.REPUL.0>
0

>  <SCORE.INTRA.SOLV>
-0.00183404

>  <SCORE.INTRA.SOLV.lig_0>
-117.703

>  <SCORE.INTRA.VDW>
0.324409

>  <SCORE.INTRA.VDW.0>
-1.59997

>  <SCORE.INTRA.norm>
0.00796353

>  <SCORE.RESTR>
0.000106249

>  <SCORE.RESTR.CAVITY>
0.000106249

>  <SCORE.RESTR.norm>
2.41475e-06

>  <SCORE.SYSTEM>
0

>  <SCORE.SYSTEM.CONST>
0

>  <SCORE.SYSTEM.DIHEDRAL>
0

>  <SCORE.SYSTEM.SOLV>
0

>  <SCORE.SYSTEM.norm>
0

>  <SCORE.heavy>
44

>  <SCORE.norm>
-0.558149

>  <RMSD>
1.160

$$$$
ligand
 OpenBabel11021811513D
libRbt.so/2013.1/901 2013/11/27
 44 50  0  0  0  0  0  0  0  0999 V2000
   -4.5077   35.0655  -12.8273 P   0  0  2  0  0  0  0  0  0  0  0  0
   -8.5458   36.3974  -16.1627 P   0  0  1  0  0  0  0  0  0  0  0  0
   -3.7451   36.0192  -11.9110 O   0  5  0  0  0  0  0  0  0  0  0  0
   -8.2601   35.6425  -17.4381 O   0  5  0  0  0  0  0  0  0  0  0  0
   -3.5667   33.9210  -13.1176 O   0  0  0  0  0  0  0  0  0  0  0  0
   -9.9931   36.9315  -16.2575 O   0  0  0  0  0  0  0  0  0  0  0  0
   -5.0617   37.3214  -13.8497 C   0  0  0  0  0  0  0  0  0  0  0  0
   -8.2928   35.9287  -13.6359 C   0  0  0  0  0  0  0  0  0  0  0  0
   -4.8753   35.9190  -14.0839 O   0  0  0  0  0  0  0  0  0  0  0  0
   -8.1834   35.3353  -14.9605 O   0  0  0  0  0  0  0  0  0  0  0  0
   -5.3673   38.0369  -15.1613 C   0  0  1  0  0  0  0  0  0  0  0  0
   -8.0542   34.7587  -12.6085 C   0  0  1  0  0  0  0  0  0  0  0  0
   -4.2413   38.3152  -15.7418 O   0  0  0  0  0  0  0  0  0  0  0  0
   -8.8472   33.8332  -12.9672 O   0  0  0  0  0  0  0  0  0  0  0  0
   -6.1577   37.1901  -16.1322 C   0  0  1  0  0  0  0  0  0  0  0  0
   -6.6693   34.1144  -12.8177 C   0  0  1  0  0  0  0  0  0  0  0  0
   -7.4526   37.5924  -16.0342 O   0  0  0  0  0  0  0  0  0  0  0  0
   -5.7876   34.5462  -11.9077 O   0  0  0  0  0  0  0  0  0  0  0  0
   -5.5686   37.5865  -17.5308 C   0  0  1  0  0  0  0  0  0  0  0  0
   -6.8659   32.5842  -12.7235 C   0  0  1  0  0  0  0  0  0  0  0  0
   -6.4838   38.5353  -18.2204 O   0  0  0  0  0  0  0  0  0  0  0  0
   -6.4098   32.0778  -11.3890 O   0  0  0  0  0  0  0  0  0  0  0  0
   -4.4160   38.1315  -17.3069 C   0  0  2  0  0  0  0  0  0  0  0  0
   -8.1366   32.4046  -12.8422 C   0  0  2  0  0  0  0  0  0  0  0  0
   -0.7753   36.6797  -20.9755 N   0  0  0  0  0  0  0  0  0  0  0  0
   -1.6035   37.7585  -21.0614 C   0  0  0  0  0  0  0  0  0  0  0  0
   -2.5019   38.0453  -20.0653 N   0  0  0  0  0  0  0  0  0  0  0  0
   -2.5629   37.2274  -18.9710 C   0  0  0  0  0  0  0  0  0  0  0  0
   -1.7598   36.1586  -18.8756 C   0  0  0  0  0  0  0  0  0  0  0  0
   -0.8432   35.8797  -19.8879 C   0  0  0  0  0  0  0  0  0  0  0  0
    0.0535   34.7931  -19.9090 N   0  0  0  0  0  0  0  0  0  0  0  0
   -2.0284   35.5425  -17.7049 N   0  0  0  0  0  0  0  0  0  0  0  0
   -3.0168   36.2435  -17.0798 C   0  0  0  0  0  0  0  0  0  0  0  0
   -3.3356   37.2919  -17.8500 N   0  0  0  0  0  0  0  0  0  0  0  0
  -10.2233   28.0526  -14.7981 N   0  0  0  0  0  0  0  0  0  0  0  0
  -10.0918   28.3735  -13.4843 C   0  0  0  0  0  0  0  0  0  0  0  0
   -9.5111   29.5599  -13.1344 N   0  0  0  0  0  0  0  0  0  0  0  0
   -9.0722   30.4175  -14.0947 C   0  0  0  0  0  0  0  0  0  0  0  0
   -9.2035   30.1078  -15.4005 C   0  0  0  0  0  0  0  0  0  0  0  0
   -9.7926   28.8955  -15.7480 C   0  0  0  0  0  0  0  0  0  0  0  0
  -10.0151   28.3568  -17.0653 N   0  0  0  0  0  0  0  0  0  0  0  0
   -8.6824   31.1342  -16.1146 N   0  0  0  0  0  0  0  0  0  0  0  0
   -8.2348   32.0797  -15.2397 C   0  0  0  0  0  0  0  0  0  0  0  0
   -8.4831   31.6286  -13.9936 N   0  0  0  0  0  0  0  0  0  0  0  0
  1  3  1  1  0  0  0
  1  5  2  0  0  0  0
  1  9  1  0  0  0  0
  1 18  1  0  0  0  0
  2  4  1  6  0  0  0
  2  6  2  0  0  0  0
  2 10  1  0  0  0  0
  2 17  1  0  0  0  0
  7  9  1  0  0  0  0
  8 10  1  0  0  0  0
 11  7  1  1  0  0  0
 11 13  1  0  0  0  0
 11 15  1  0  0  0  0
 12  8  1  6  0  0  0
 12 14  1  0  0  0  0
 12 16  1  0  0  0  0
 13 23  1  0  0  0  0
 14 24  1  0  0  0  0
 15 17  1  6  0  0  0
 15 19  1  0  0  0  0
 16 18  1  1  0  0  0
 16 20  1  0  0  0  0
 19 21  1  1  0  0  0
 19 23  1  0  0  0  0
 20 22  1  1  0  0  0
 20 24  1  0  0  0  0
 23 34  1  1  0  0  0
 24 44  1  6  0  0  0
 25 26  2  0  0  0  0
 25 30  1  0  0  0  0
 26 27  1  0  0  0  0
 27 28  2  0  0  0  0
 28 29  1  0  0  0  0
 28 34  1  0  0  0  0
 29 30  2  0  0  0  0
 29 32  1  0  0  0  0
 30 31  1  0  0  0  0
 32 33  2  0  0  0  0
 33 34  1  0  0  0  0
 35 36  2  0  0  0  0
 35 40  1  0  0  0  0
 36 37  1  0  0  0  0
 37 38  2  0  0  0  0
 38 39  1  0  0  0  0
 38 44  1  0  0  0  0
 39 40  2  0  0  0  0
 39 42  1  0  0  0  0
 40 41  1  0  0  0  0
 42 43  2  0  0  0  0
 43 44  1  0  0  0  0
M  CHG  2   3  -1   4  -1
M  END
>  <CHROM.1>
-142.41057560,-123.40974579,-6.12134338,34.72885495,-15.52834920,0.05259149
0.89182736,0.88308472

>  <Name>
ligand

>  <RI>
0

>  <Rbt.Current_Directory>
/home/itssahil/PROJECTS/Mol_Feturizer/New_Systems/rnas/4QLM

>  <Rbt.Executable>
rbdock ($Id: //depot/dev/client3/rdock/2013.1/src/exe/rbdock.cxx#4 $)

>  <Rbt.Library>
libRbt.so (2013.1, Build901 2013/11/27)

>  <Rbt.Parameter_File>
/export/apps/rDock/src/rDock_2013.1_src/data/scripts/dock_solv.prm

>  <Rbt.Receptor>
prm/pocket_docking_3.prm

>  <SCORE>
-22.0282

>  <SCORE.INTER>
-22.1116

>  <SCORE.INTER.CONST>
1

>  <SCORE.INTER.POLAR>
0

>  <SCORE.INTER.ROT>
2

>  <SCORE.INTER.SOLV>
33.7633

>  <SCORE.INTER.VDW>
-30.9289

>  <SCORE.INTER.norm>
-0.502537

>  <SCORE.INTRA>
0.083422

>  <SCORE.INTRA.DIHEDRAL>
-0.0205092

>  <SCORE.INTRA.DIHEDRAL.0>
2.32994

>  <SCORE.INTRA.POLAR>
0

>  <SCORE.INTRA.POLAR.0>
0

>  <SCORE.INTRA.REPUL>
0

>  <SCORE.INTRA.REPUL.0>
0

>  <SCORE.INTRA.SOLV>
-0.000365736

>  <SCORE.INTRA.SOLV.lig_0>
-117.703

>  <SCORE.INTRA.VDW>
0.0938595

>  <SCORE.INTRA.VDW.0>
-1.59997

>  <SCORE.INTRA.norm>
0.00189595

>  <SCORE.RESTR>
0

>  <SCORE.RESTR.CAVITY>
0

>  <SCORE.RESTR.norm>
0

>  <SCORE.SYSTEM>
0

>  <SCORE.SYSTEM.CONST>
0

>  <SCORE.SYSTEM.DIHEDRAL>
0

>  <SCORE.SYSTEM.SOLV>
0

>  <SCORE.SYSTEM.norm>
0

>  <SCORE.heavy>
44

>  <SCORE.norm>
-0.500641

>  <RMSD>
1.162

$$$$
ligand
 OpenBabel11021811513D
libRbt.so/2013.1/901 2013/11/27
 44 50  0  0  0  0  0  0  0  0999 V2000
   -8.5536   36.3673  -16.1602 P   0  0  2  0  0  0  0  0  0  0  0  0
   -4.4907   34.6899  -13.0163 P   0  0  1  0  0  0  0  0  0  0  0  0
   -9.8837   36.9435  -15.6814 O   0  5  0  0  0  0  0  0  0  0  0  0
   -4.0194   33.4019  -13.6462 O   0  5  0  0  0  0  0  0  0  0  0  0
   -8.8219   35.7670  -17.5193 O   0  0  0  0  0  0  0  0  0  0  0  0
   -3.4223   35.1161  -11.9838 O   0  0  0  0  0  0  0  0  0  0  0  0
   -8.6130   35.5960  -13.7430 C   0  0  0  0  0  0  0  0  0  0  0  0
   -5.3661   36.9617  -13.8771 C   0  0  0  0  0  0  0  0  0  0  0  0
   -8.1511   35.3200  -15.0722 O   0  0  0  0  0  0  0  0  0  0  0  0
   -4.7896   35.6897  -14.2874 O   0  0  0  0  0  0  0  0  0  0  0  0
   -8.1920   34.4761  -12.7975 C   0  0  1  0  0  0  0  0  0  0  0  0
   -5.4586   37.8434  -15.1792 C   0  0  1  0  0  0  0  0  0  0  0  0
   -9.0750   33.5291  -12.8741 O   0  0  0  0  0  0  0  0  0  0  0  0
   -4.2986   37.7984  -15.6953 O   0  0  0  0  0  0  0  0  0  0  0  0
   -6.8613   33.8582  -13.1603 C   0  0  1  0  0  0  0  0  0  0  0  0
   -6.3296   37.1564  -16.2500 C   0  0  1  0  0  0  0  0  0  0  0  0
   -5.9368   34.4106  -12.3306 O   0  0  0  0  0  0  0  0  0  0  0  0
   -7.5575   37.6876  -16.2947 O   0  0  0  0  0  0  0  0  0  0  0  0
   -7.0566   32.3388  -12.8235 C   0  0  1  0  0  0  0  0  0  0  0  0
   -5.5980   37.3250  -17.6012 C   0  0  1  0  0  0  0  0  0  0  0  0
   -6.4089   32.0162  -11.5235 O   0  0  0  0  0  0  0  0  0  0  0  0
   -6.2371   38.4111  -18.4119 O   0  0  0  0  0  0  0  0  0  0  0  0
   -8.3333   32.1316  -12.7712 C   0  0  2  0  0  0  0  0  0  0  0  0
   -4.3966   37.6703  -17.2876 C   0  0  2  0  0  0  0  0  0  0  0  0
  -10.2788   27.5823  -14.8545 N   0  0  0  0  0  0  0  0  0  0  0  0
  -10.1282   27.8474  -13.5263 C   0  0  0  0  0  0  0  0  0  0  0  0
   -9.6206   29.0463  -13.0945 N   0  0  0  0  0  0  0  0  0  0  0  0
   -9.2592   29.9859  -14.0201 C   0  0  0  0  0  0  0  0  0  0  0  0
   -9.3946   29.7369  -15.3301 C   0  0  0  0  0  0  0  0  0  0  0  0
   -9.9201   28.5197  -15.7601 C   0  0  0  0  0  0  0  0  0  0  0  0
  -10.1133   28.1354  -17.1018 N   0  0  0  0  0  0  0  0  0  0  0  0
   -8.9701   30.8265  -16.0044 N   0  0  0  0  0  0  0  0  0  0  0  0
   -8.5623   31.7523  -15.0901 C   0  0  0  0  0  0  0  0  0  0  0  0
   -8.7557   31.2432  -13.8664 N   0  0  0  0  0  0  0  0  0  0  0  0
   -0.7582   36.3313  -20.7647 N   0  0  0  0  0  0  0  0  0  0  0  0
   -1.5246   37.4532  -20.7791 C   0  0  0  0  0  0  0  0  0  0  0  0
   -2.4457   37.6540  -19.7898 N   0  0  0  0  0  0  0  0  0  0  0  0
   -2.5912   36.7395  -18.7932 C   0  0  0  0  0  0  0  0  0  0  0  0
   -1.8310   35.6261  -18.7700 C   0  0  0  0  0  0  0  0  0  0  0  0
   -0.8980   35.4277  -19.7837 C   0  0  0  0  0  0  0  0  0  0  0  0
   -0.0030   34.3140  -19.9671 N   0  0  0  0  0  0  0  0  0  0  0  0
   -2.1940   34.9104  -17.6787 N   0  0  0  0  0  0  0  0  0  0  0  0
   -3.1787   35.5936  -17.0278 C   0  0  0  0  0  0  0  0  0  0  0  0
   -3.4149   36.7245  -17.7231 N   0  0  0  0  0  0  0  0  0  0  0  0
  1  3  1  1  0  0  0
  1  5  2  0  0  0  0
  1  9  1  0  0  0  0
  1 18  1  0  0  0  0
  2  4  1  6  0  0  0
  2  6  2  0  0  0  0
  2 10  1  0  0  0  0
  2 17  1  0  0  0  0
  7  9  1  0  0  0  0
  8 10  1  0  0  0  0
 11  7  1  6  0  0  0
 11 13  1  0  0  0  0
 11 15  1  0  0  0  0
 12  8  1  1  0  0  0
 12 14  1  0  0  0  0
 12 16  1  0  0  0  0
 13 23  1  0  0  0  0
 14 24  1  0  0  0  0
 15 17  1  1  0  0  0
 15 19  1  0  0  0  0
 16 18  1  6  0  0  0
 16 20  1  0  0  0  0
 19 21  1  1  0  0  0
 19 23  1  0  0  0  0
 20 22  1  6  0  0  0
 20 24  1  0  0  0  0
 23 34  1  6  0  0  0
 24 44  1  1  0  0  0
 25 26  2  0  0  0  0
 25 30  1  0  0  0  0
 26 27  1  0  0  0  0
 27 28  2  0  0  0  0
 28 29  1  0  0  0  0
 28 34  1  0  0  0  0
 29 30  2  0  0  0  0
 29 32  1  0  0  0  0
 30 31  1  0  0  0  0
 32 33  2  0  0  0  0
 33 34  1  0  0  0  0
 35 36  2  0  0  0  0
 35 40  1  0  0  0  0
 36 37  1  0  0  0  0
 37 38  2  0  0  0  0
 38 39  1  0  0  0  0
 38 44  1  0  0  0  0
 39 40  2  0  0  0  0
 39 42  1  0  0  0  0
 40 41  1  0  0  0  0
 42 43  2  0  0  0  0
 43 44  1  0  0  0  0
M  CHG  2   3  -1   4  -1
M  END
>  <CHROM.1>
-126.65164146,-139.28056176,-6.21647824,34.41373198,-15.55275311,0.46162315
0.78243605,0.35624813

>  <Name>
ligand

>  <RI>
0

>  <Rbt.Current_Directory>
/home/itssahil/PROJECTS/Mol_Feturizer/New_Systems/rnas/4QLM

>  <Rbt.Executable>
rbdock ($Id: //depot/dev/client3/rdock/2013.1/src/exe/rbdock.cxx#4 $)

>  <Rbt.Library>
libRbt.so (2013.1, Build901 2013/11/27)

>  <Rbt.Parameter_File>
/export/apps/rDock/src/rDock_2013.1_src/data/scripts/dock_solv.prm

>  <Rbt.Receptor>
prm/pocket_docking_3.prm

>  <SCORE>
-24.4956

>  <SCORE.INTER>
-24.8391

>  <SCORE.INTER.CONST>
1

>  <SCORE.INTER.POLAR>
0

>  <SCORE.INTER.ROT>
2

>  <SCORE.INTER.SOLV>
33.6057

>  <SCORE.INTER.VDW>
-32.6946

>  <SCORE.INTER.norm>
-0.564525

>  <SCORE.INTRA>
0.343532

>  <SCORE.INTRA.DIHEDRAL>
0.0523104

>  <SCORE.INTRA.DIHEDRAL.0>
2.32994

>  <SCORE.INTRA.POLAR>
0

>  <SCORE.INTRA.POLAR.0>
0

>  <SCORE.INTRA.REPUL>
0

>  <SCORE.INTRA.REPUL.0>
0

>  <SCORE.INTRA.SOLV>
-0.0020322

>  <SCORE.INTRA.SOLV.lig_0>
-117.703

>  <SCORE.INTRA.VDW>
0.318393

>  <SCORE.INTRA.VDW.0>
-1.59997

>  <SCORE.INTRA.norm>
0.00780754

>  <SCORE.RESTR>
0

>  <SCORE.RESTR.CAVITY>
0

>  <SCORE.RESTR.norm>
0

>  <SCORE.SYSTEM>
0

>  <SCORE.SYSTEM.CONST>
0

>  <SCORE.SYSTEM.DIHEDRAL>
0

>  <SCORE.SYSTEM.SOLV>
0

>  <SCORE.SYSTEM.norm>
0

>  <SCORE.heavy>
44

>  <SCORE.norm>
-0.556718

>  <RMSD>
1.162

$$$$
ligand
 OpenBabel11021811513D
libRbt.so/2013.1/901 2013/11/27
 44 50  0  0  0  0  0  0  0  0999 V2000
   -8.5984   36.4247  -16.0555 P   0  0  2  0  0  0  0  0  0  0  0  0
   -4.4891   34.6700  -13.0157 P   0  0  1  0  0  0  0  0  0  0  0  0
   -9.9168   36.9985  -15.5425 O   0  5  0  0  0  0  0  0  0  0  0  0
   -4.0359   33.3914  -13.6774 O   0  5  0  0  0  0  0  0  0  0  0  0
   -8.8939   35.8507  -17.4203 O   0  0  0  0  0  0  0  0  0  0  0  0
   -3.4004   35.0719  -11.9948 O   0  0  0  0  0  0  0  0  0  0  0  0
   -8.6189   35.6095  -13.6521 C   0  0  0  0  0  0  0  0  0  0  0  0
   -5.3678   36.9615  -13.8191 C   0  0  0  0  0  0  0  0  0  0  0  0
   -8.1821   35.3556  -14.9941 O   0  0  0  0  0  0  0  0  0  0  0  0
   -4.8054   35.6944  -14.2628 O   0  0  0  0  0  0  0  0  0  0  0  0
   -8.1870   34.4704  -12.7348 C   0  0  1  0  0  0  0  0  0  0  0  0
   -5.4788   37.8673  -15.1031 C   0  0  1  0  0  0  0  0  0  0  0  0
   -9.0762   33.5292  -12.8129 O   0  0  0  0  0  0  0  0  0  0  0  0
   -4.3283   37.8262  -15.6405 O   0  0  0  0  0  0  0  0  0  0  0  0
   -6.8662   33.8527  -13.1326 C   0  0  1  0  0  0  0  0  0  0  0  0
   -6.3722   37.2044  -16.1705 C   0  0  1  0  0  0  0  0  0  0  0  0
   -5.9243   34.3853  -12.3095 O   0  0  0  0  0  0  0  0  0  0  0  0
   -7.5979   37.7423  -16.1836 O   0  0  0  0  0  0  0  0  0  0  0  0
   -7.0635   32.3283  -12.8201 C   0  0  1  0  0  0  0  0  0  0  0  0
   -5.6639   37.3942  -17.5312 C   0  0  1  0  0  0  0  0  0  0  0  0
   -6.3945   31.9788  -11.5380 O   0  0  0  0  0  0  0  0  0  0  0  0
   -6.3116   38.4980  -18.3104 O   0  0  0  0  0  0  0  0  0  0  0  0
   -8.3401   32.1265  -12.7488 C   0  0  2  0  0  0  0  0  0  0  0  0
   -4.4553   37.7278  -17.2329 C   0  0  2  0  0  0  0  0  0  0  0  0
  -10.2472   27.5878  -14.8900 N   0  0  0  0  0  0  0  0  0  0  0  0
  -10.0436   27.8157  -13.5620 C   0  0  0  0  0  0  0  0  0  0  0  0
   -9.5515   29.0153  -13.1145 N   0  0  0  0  0  0  0  0  0  0  0  0
   -9.2601   29.9939  -14.0242 C   0  0  0  0  0  0  0  0  0  0  0  0
   -9.4482   29.7820  -15.3342 C   0  0  0  0  0  0  0  0  0  0  0  0
   -9.9576   28.5635  -15.7798 C   0  0  0  0  0  0  0  0  0  0  0  0
  -10.2010   28.2157  -17.1232 N   0  0  0  0  0  0  0  0  0  0  0  0
   -9.0866   30.9046  -15.9910 N   0  0  0  0  0  0  0  0  0  0  0  0
   -8.6642   31.8132  -15.0663 C   0  0  0  0  0  0  0  0  0  0  0  0
   -8.7866   31.2604  -13.8524 N   0  0  0  0  0  0  0  0  0  0  0  0
   -0.9113   36.4187  -20.8171 N   0  0  0  0  0  0  0  0  0  0  0  0
   -1.6766   37.5414  -20.8007 C   0  0  0  0  0  0  0  0  0  0  0  0
   -2.5710   37.7335  -19.7856 N   0  0  0  0  0  0  0  0  0  0  0  0
   -2.6912   36.8098  -18.7943 C   0  0  0  0  0  0  0  0  0  0  0  0
   -1.9318   35.6956  -18.8017 C   0  0  0  0  0  0  0  0  0  0  0  0
   -1.0262   35.5060  -19.8414 C   0  0  0  0  0  0  0  0  0  0  0  0
   -0.1375   34.3933  -20.0588 N   0  0  0  0  0  0  0  0  0  0  0  0
   -2.2668   34.9699  -17.7079 N   0  0  0  0  0  0  0  0  0  0  0  0
   -3.2332   35.6477  -17.0249 C   0  0  0  0  0  0  0  0  0  0  0  0
   -3.4864   36.7853  -17.7030 N   0  0  0  0  0  0  0  0  0  0  0  0
  1  3  1  1  0  0  0
  1  5  2  0  0  0  0
  1  9  1  0  0  0  0
  1 18  1  0  0  0  0
  2  4  1  6  0  0  0
  2  6  2  0  0  0  0
  2 10  1  0  0  0  0
  2 17  1  0  0  0  0
  7  9  1  0  0  0  0
  8 10  1  0  0  0  0
 11  7  1  6  0  0  0
 11 13  1  0  0  0  0
 11 15  1  0  0  0  0
 12  8  1  1  0  0  0
 12 14  1  0  0  0  0
 12 16  1  0  0  0  0
 13 23  1  0  0  0  0
 14 24  1  0  0  0  0
 15 17  1  1  0  0  0
 15 19  1  0  0  0  0
 16 18  1  6  0  0  0
 16 20  1  0  0  0  0
 19 21  1  1  0  0  0
 19 23  1  0  0  0  0
 20 22  1  6  0  0  0
 20 24  1  0  0  0  0
 23 34  1  6  0  0  0
 24 44  1  1  0  0  0
 25 26  2  0  0  0  0
 25 30  1  0  0  0  0
 26 27  1  0  0  0  0
 27 28  2  0  0  0  0
 28 29  1  0  0  0  0
 28 34  1  0  0  0  0
 29 30  2  0  0  0  0
 29 32  1  0  0  0  0
 30 31  1  0  0  0  0
 32 33  2  0  0  0  0
 33 34  1  0  0  0  0
 35 36  2  0  0  0  0
 35 40  1  0  0  0  0
 36 37  1  0  0  0  0
 37 38  2  0  0  0  0
 38 39  1  0  0  0  0
 38 44  1  0  0  0  0
 39 40  2  0  0  0  0
 39 42  1  0  0  0  0
 40 41  1  0  0  0  0
 42 43  2  0  0  0  0
 43 44  1  0  0  0  0
M  CHG  2   3  -1   4  -1
M  END
>  <CHROM.1>
-129.30787210,-140.02336890,-6.25629925,34.44522718,-15.52787271,0.45600454
0.79792047,0.37406403

>  <Name>
ligand

>  <RI>
0

>  <Rbt.Current_Directory>
/home/itssahil/PROJECTS/Mol_Feturizer/New_Systems/rnas/4QLM

>  <Rbt.Executable>
rbdock ($Id: //depot/dev/client3/rdock/2013.1/src/exe/rbdock.cxx#4 $)

>  <Rbt.Library>
libRbt.so (2013.1, Build901 2013/11/27)

>  <Rbt.Parameter_File>
/export/apps/rDock/src/rDock_2013.1_src/data/scripts/dock_solv.prm

>  <Rbt.Receptor>
prm/pocket_docking_3.prm

>  <SCORE>
-24.3471

>  <SCORE.INTER>
-24.5883

>  <SCORE.INTER.CONST>
1

>  <SCORE.INTER.POLAR>
0

>  <SCORE.INTER.ROT>
2

>  <SCORE.INTER.SOLV>
33.6841

>  <SCORE.INTER.VDW>
-32.5536

>  <SCORE.INTER.norm>
-0.558826

>  <SCORE.INTRA>
0.239364

>  <SCORE.INTRA.DIHEDRAL>
0.0387692

>  <SCORE.INTRA.DIHEDRAL.0>
2.32994

>  <SCORE.INTRA.POLAR>
0

>  <SCORE.INTRA.POLAR.0>
0

>  <SCORE.INTRA.REPUL>
0

>  <SCORE.INTRA.REPUL.0>
0

>  <SCORE.INTRA.SOLV>
-0.00159907

>  <SCORE.INTRA.SOLV.lig_0>
-117.703

>  <SCORE.INTRA.VDW>
0.220778

>  <SCORE.INTRA.VDW.0>
-1.59997

>  <SCORE.INTRA.norm>
0.00544008

>  <SCORE.RESTR>
0.00181604

>  <SCORE.RESTR.CAVITY>
0.00181604

>  <SCORE.RESTR.norm>
4.12736e-05

>  <SCORE.SYSTEM>
0

>  <SCORE.SYSTEM.CONST>
0

>  <SCORE.SYSTEM.DIHEDRAL>
0

>  <SCORE.SYSTEM.SOLV>
0

>  <SCORE.SYSTEM.norm>
0

>  <SCORE.heavy>
44

>  <SCORE.norm>
-0.553344

>  <RMSD>
1.179

$$$$
ligand
 OpenBabel11021811513D
libRbt.so/2013.1/901 2013/11/27
 44 50  0  0  0  0  0  0  0  0999 V2000
   -9.9324   35.8591  -16.3532 P   0  0  2  0  0  0  0  0  0  0  0  0
   -6.3446   34.2165  -12.6606 P   0  0  1  0  0  0  0  0  0  0  0  0
  -11.3092   36.4540  -16.0684 O   0  5  0  0  0  0  0  0  0  0  0  0
   -5.8054   32.9129  -13.1972 O   0  5  0  0  0  0  0  0  0  0  0  0
  -10.0216   35.2336  -17.7244 O   0  0  0  0  0  0  0  0  0  0  0  0
   -5.4204   34.6558  -11.5022 O   0  0  0  0  0  0  0  0  0  0  0  0
  -10.3231   35.1367  -13.9517 C   0  0  0  0  0  0  0  0  0  0  0  0
   -7.0747   36.4767  -13.6740 C   0  0  0  0  0  0  0  0  0  0  0  0
   -9.6897   34.8309  -15.2014 O   0  0  0  0  0  0  0  0  0  0  0  0
   -6.4606   35.1928  -13.9791 O   0  0  0  0  0  0  0  0  0  0  0  0
  -10.0436   34.0330  -12.9372 C   0  0  1  0  0  0  0  0  0  0  0  0
   -6.9831   37.3328  -14.9932 C   0  0  1  0  0  0  0  0  0  0  0  0
  -10.9174   33.0908  -13.1139 O   0  0  0  0  0  0  0  0  0  0  0  0
   -5.7647   37.2695  -15.3477 O   0  0  0  0  0  0  0  0  0  0  0  0
   -8.6822   33.3987  -13.1062 C   0  0  1  0  0  0  0  0  0  0  0  0
   -7.7090   36.6307  -16.1581 C   0  0  1  0  0  0  0  0  0  0  0  0
   -7.8723   33.9611  -12.1703 O   0  0  0  0  0  0  0  0  0  0  0  0
   -8.9146   37.1694  -16.3775 O   0  0  0  0  0  0  0  0  0  0  0  0
   -8.9356   31.8877  -12.7701 C   0  0  1  0  0  0  0  0  0  0  0  0
   -6.8011   36.7671  -17.4017 C   0  0  1  0  0  0  0  0  0  0  0  0
   -8.4714   31.5867  -11.3891 O   0  0  0  0  0  0  0  0  0  0  0  0
   -7.3152   37.8412  -18.3113 O   0  0  0  0  0  0  0  0  0  0  0  0
  -10.2097   31.6905  -12.8859 C   0  0  2  0  0  0  0  0  0  0  0  0
   -5.6494   37.1102  -16.9361 C   0  0  2  0  0  0  0  0  0  0  0  0
  -10.4235   26.9182  -15.3356 N   0  0  0  0  0  0  0  0  0  0  0  0
  -10.0247   27.1347  -14.0505 C   0  0  0  0  0  0  0  0  0  0  0  0
  -10.0072   28.3977  -13.5156 N   0  0  0  0  0  0  0  0  0  0  0  0
  -10.3958   29.4533  -14.2933 C   0  0  0  0  0  0  0  0  0  0  0  0
  -10.7837   29.2569  -15.5612 C   0  0  0  0  0  0  0  0  0  0  0  0
  -10.8076   27.9692  -16.0941 C   0  0  0  0  0  0  0  0  0  0  0  0
  -11.1929   27.6290  -17.4059 N   0  0  0  0  0  0  0  0  0  0  0  0
  -11.1125   30.4573  -16.0838 N   0  0  0  0  0  0  0  0  0  0  0  0
  -10.9148   31.4019  -15.1205 C   0  0  0  0  0  0  0  0  0  0  0  0
  -10.4898   30.7834  -14.0111 N   0  0  0  0  0  0  0  0  0  0  0  0
   -1.1749   35.9644  -19.3416 N   0  0  0  0  0  0  0  0  0  0  0  0
   -1.8437   37.1464  -19.3857 C   0  0  0  0  0  0  0  0  0  0  0  0
   -3.0171   37.2838  -18.6991 N   0  0  0  0  0  0  0  0  0  0  0  0
   -3.5105   36.2460  -17.9711 C   0  0  0  0  0  0  0  0  0  0  0  0
   -2.8499   35.0717  -17.9190 C   0  0  0  0  0  0  0  0  0  0  0  0
   -1.6575   34.9391  -18.6245 C   0  0  0  0  0  0  0  0  0  0  0  0
   -0.8044   33.7828  -18.7257 N   0  0  0  0  0  0  0  0  0  0  0  0
   -3.5699   34.2365  -17.1321 N   0  0  0  0  0  0  0  0  0  0  0  0
   -4.6747   34.9066  -16.6960 C   0  0  0  0  0  0  0  0  0  0  0  0
   -4.6272   36.1490  -17.2178 N   0  0  0  0  0  0  0  0  0  0  0  0
  1  3  1  1  0  0  0
  1  5  2  0  0  0  0
  1  9  1  0  0  0  0
  1 18  1  0  0  0  0
  2  4  1  6  0  0  0
  2  6  2  0  0  0  0
  2 10  1  0  0  0  0
  2 17  1  0  0  0  0
  7  9  1  0  0  0  0
  8 10  1  0  0  0  0
 11  7  1  6  0  0  0
 11 13  1  0  0  0  0
 11 15  1  0  0  0  0
 12  8  1  1  0  0  0
 12 14  1  0  0  0  0
 12 16  1  0  0  0  0
 13 23  1  0  0  0  0
 14 24  1  0  0  0  0
 15 17  1  1  0  0  0
 15 19  1  0  0  0  0
 16 18  1  6  0  0  0
 16 20  1  0  0  0  0
 19 21  1  1  0  0  0
 19 23  1  0  0  0  0
 20 22  1  6  0  0  0
 20 24  1  0  0  0  0
 23 34  1  6  0  0  0
 24 44  1  1  0  0  0
 25 26  2  0  0  0  0
 25 30  1  0  0  0  0
 26 27  1  0  0  0  0
 27 28  2  0  0  0  0
 28 29  1  0  0  0  0
 28 34  1  0  0  0  0
 29 30  2  0  0  0  0
 29 32  1  0  0  0  0
 30 31  1  0  0  0  0
 32 33  2  0  0  0  0
 33 34  1  0  0  0  0
 35 36  2  0  0  0  0
 35 40  1  0  0  0  0
 36 37  1  0  0  0  0
 37 38  2  0  0  0  0
 38 39  1  0  0  0  0
 38 44  1  0  0  0  0
 39 40  2  0  0  0  0
 39 42  1  0  0  0  0
 40 41  1  0  0  0  0
 42 43  2  0  0  0  0
 43 44  1  0  0  0  0
M  CHG  2   3  -1   4  -1
M  END
>  <CHROM.1>
-164.95916825,-123.90015262,-7.58531475,33.91301598,-15.37613358,2.46137767
-0.50591209,-3.09189849

>  <Name>
ligand

>  <RI>
0

>  <Rbt.Current_Directory>
/home/itssahil/PROJECTS/Mol_Feturizer/New_Systems/rnas/4QLM

>  <Rbt.Executable>
rbdock ($Id: //depot/dev/client3/rdock/2013.1/src/exe/rbdock.cxx#4 $)

>  <Rbt.Library>
libRbt.so (2013.1, Build901 2013/11/27)

>  <Rbt.Parameter_File>
/export/apps/rDock/src/rDock_2013.1_src/data/scripts/dock_solv.prm

>  <Rbt.Receptor>
prm/pocket_docking_2.prm

>  <SCORE>
-15.6796

>  <SCORE.INTER>
-15.9099

>  <SCORE.INTER.CONST>
1

>  <SCORE.INTER.POLAR>
0

>  <SCORE.INTER.ROT>
2

>  <SCORE.INTER.SOLV>
36.9426

>  <SCORE.INTER.VDW>
-27.8541

>  <SCORE.INTER.norm>
-0.361589

>  <SCORE.INTRA>
0.186214

>  <SCORE.INTRA.DIHEDRAL>
-0.00795372

>  <SCORE.INTRA.DIHEDRAL.0>
2.32994

>  <SCORE.INTRA.POLAR>
0

>  <SCORE.INTRA.POLAR.0>
0

>  <SCORE.INTRA.REPUL>
0

>  <SCORE.INTRA.REPUL.0>
0

>  <SCORE.INTRA.SOLV>
0.00553561

>  <SCORE.INTRA.SOLV.lig_0>
-117.703

>  <SCORE.INTRA.VDW>
0.187423

>  <SCORE.INTRA.VDW.0>
-1.59997

>  <SCORE.INTRA.norm>
0.00423213

>  <SCORE.RESTR>
0.0440743

>  <SCORE.RESTR.CAVITY>
0.0440743

>  <SCORE.RESTR.norm>
0.00100169

>  <SCORE.SYSTEM>
0

>  <SCORE.SYSTEM.CONST>
0

>  <SCORE.SYSTEM.DIHEDRAL>
0

>  <SCORE.SYSTEM.SOLV>
0

>  <SCORE.SYSTEM.norm>
0

>  <SCORE.heavy>
44

>  <SCORE.norm>
-0.356355

>  <RMSD>
1.181

$$$$
ligand
 OpenBabel11021811513D
libRbt.so/2013.1/901 2013/11/27
 44 50  0  0  0  0  0  0  0  0999 V2000
   -8.4585   36.4202  -16.2493 P   0  0  2  0  0  0  0  0  0  0  0  0
   -4.4804   35.0147  -12.8722 P   0  0  1  0  0  0  0  0  0  0  0  0
   -9.8072   37.0156  -15.8534 O   0  5  0  0  0  0  0  0  0  0  0  0
   -3.9797   33.6896  -13.3931 O   0  5  0  0  0  0  0  0  0  0  0  0
   -8.6801   35.7210  -17.5690 O   0  0  0  0  0  0  0  0  0  0  0  0
   -3.4476   35.5249  -11.8416 O   0  0  0  0  0  0  0  0  0  0  0  0
   -8.5856   35.8241  -13.7856 C   0  0  0  0  0  0  0  0  0  0  0  0
   -5.3473   37.2097  -13.9205 C   0  0  0  0  0  0  0  0  0  0  0  0
   -8.0811   35.4579  -15.0770 O   0  0  0  0  0  0  0  0  0  0  0  0
   -4.7483   35.9175  -14.2206 O   0  0  0  0  0  0  0  0  0  0  0  0
   -8.1848   34.7794  -12.7495 C   0  0  1  0  0  0  0  0  0  0  0  0
   -5.4069   37.9945  -15.2851 C   0  0  1  0  0  0  0  0  0  0  0  0
   -9.0574   33.8203  -12.7840 O   0  0  0  0  0  0  0  0  0  0  0  0
   -4.2313   37.9244  -15.7616 O   0  0  0  0  0  0  0  0  0  0  0  0
   -6.8387   34.1506  -13.0268 C   0  0  1  0  0  0  0  0  0  0  0  0
   -6.2391   37.2235  -16.3291 C   0  0  1  0  0  0  0  0  0  0  0  0
   -5.9446   34.7707  -12.2117 O   0  0  0  0  0  0  0  0  0  0  0  0
   -7.4693   37.7375  -16.4489 O   0  0  0  0  0  0  0  0  0  0  0  0
   -7.0320   32.6574  -12.5872 C   0  0  1  0  0  0  0  0  0  0  0  0
   -5.4679   37.3019  -17.6664 C   0  0  1  0  0  0  0  0  0  0  0  0
   -6.4219   32.4358  -11.2486 O   0  0  0  0  0  0  0  0  0  0  0  0
   -6.0906   38.3203  -18.5722 O   0  0  0  0  0  0  0  0  0  0  0  0
   -8.3081   32.4415  -12.5584 C   0  0  2  0  0  0  0  0  0  0  0  0
   -4.2794   37.6812  -17.3427 C   0  0  2  0  0  0  0  0  0  0  0  0
  -10.4486   27.8679  -14.3809 N   0  0  0  0  0  0  0  0  0  0  0  0
  -10.4247   28.2709  -13.0793 C   0  0  0  0  0  0  0  0  0  0  0  0
   -9.8523   29.4630  -12.7152 N   0  0  0  0  0  0  0  0  0  0  0  0
   -9.2954   30.2543  -13.6817 C   0  0  0  0  0  0  0  0  0  0  0  0
   -9.3048   29.8681  -14.9651 C   0  0  0  0  0  0  0  0  0  0  0  0
   -9.8970   28.6595  -15.3277 C   0  0  0  0  0  0  0  0  0  0  0  0
   -9.9735   28.1408  -16.6354 N   0  0  0  0  0  0  0  0  0  0  0  0
   -8.6993   30.8314  -15.6915 N   0  0  0  0  0  0  0  0  0  0  0  0
   -8.3079   31.8178  -14.8354 C   0  0  0  0  0  0  0  0  0  0  0  0
   -8.6896   31.4724  -13.5988 N   0  0  0  0  0  0  0  0  0  0  0  0
   -0.5516   36.1130  -20.6237 N   0  0  0  0  0  0  0  0  0  0  0  0
   -1.3310   37.2193  -20.7455 C   0  0  0  0  0  0  0  0  0  0  0  0
   -2.2754   37.4875  -19.7949 N   0  0  0  0  0  0  0  0  0  0  0  0
   -2.4311   36.6555  -18.7300 C   0  0  0  0  0  0  0  0  0  0  0  0
   -1.6582   35.5583  -18.6002 C   0  0  0  0  0  0  0  0  0  0  0  0
   -0.7015   35.2907  -19.5750 C   0  0  0  0  0  0  0  0  0  0  0  0
    0.2107   34.1782  -19.6483 N   0  0  0  0  0  0  0  0  0  0  0  0
   -2.0359   34.9292  -17.4615 N   0  0  0  0  0  0  0  0  0  0  0  0
   -3.0424   35.6496  -16.8889 C   0  0  0  0  0  0  0  0  0  0  0  0
   -3.2773   36.7166  -17.6792 N   0  0  0  0  0  0  0  0  0  0  0  0
  1  3  1  1  0  0  0
  1  5  2  0  0  0  0
  1  9  1  0  0  0  0
  1 18  1  0  0  0  0
  2  4  1  6  0  0  0
  2  6  2  0  0  0  0
  2 10  1  0  0  0  0
  2 17  1  0  0  0  0
  7  9  1  0  0  0  0
  8 10  1  0  0  0  0
 11  7  1  6  0  0  0
 11 13  1  0  0  0  0
 11 15  1  0  0  0  0
 12  8  1  1  0  0  0
 12 14  1  0  0  0  0
 12 16  1  0  0  0  0
 13 23  1  0  0  0  0
 14 24  1  0  0  0  0
 15 17  1  1  0  0  0
 15 19  1  0  0  0  0
 16 18  1  6  0  0  0
 16 20  1  0  0  0  0
 19 21  1  1  0  0  0
 19 23  1  0  0  0  0
 20 22  1  6  0  0  0
 20 24  1  0  0  0  0
 23 34  1  6  0  0  0
 24 44  1  1  0  0  0
 25 26  2  0  0  0  0
 25 30  1  0  0  0  0
 26 27  1  0  0  0  0
 27 28  2  0  0  0  0
 28 29  1  0  0  0  0
 28 34  1  0  0  0  0
 29 30  2  0  0  0  0
 29 32  1  0  0  0  0
 30 31  1  0  0  0  0
 32 33  2  0  0  0  0
 33 34  1  0  0  0  0
 35 36  2  0  0  0  0
 35 40  1  0  0  0  0
 36 37  1  0  0  0  0
 37 38  2  0  0  0  0
 38 39  1  0  0  0  0
 38 44  1  0  0  0  0
 39 40  2  0  0  0  0
 39 42  1  0  0  0  0
 40 41  1  0  0  0  0
 42 43  2  0  0  0  0
 43 44  1  0  0  0  0
M  CHG  2   3  -1   4  -1
M  END
>  <CHROM.1>
-118.51994940,-140.08958636,-6.14761209,34.54633066,-15.43480882,2.71018349
-0.77059163,-2.80582612

>  <Name>
ligand

>  <RI>
0

>  <Rbt.Current_Directory>
/home/itssahil/PROJECTS/Mol_Feturizer/New_Systems/rnas/4QLM

>  <Rbt.Executable>
rbdock ($Id: //depot/dev/client3/rdock/2013.1/src/exe/rbdock.cxx#4 $)

>  <Rbt.Library>
libRbt.so (2013.1, Build901 2013/11/27)

>  <Rbt.Parameter_File>
/export/apps/rDock/src/rDock_2013.1_src/data/scripts/dock_solv.prm

>  <Rbt.Receptor>
prm/pocket_docking_6.prm

>  <SCORE>
-22.7448

>  <SCORE.INTER>
-23.5053

>  <SCORE.INTER.CONST>
1

>  <SCORE.INTER.POLAR>
0

>  <SCORE.INTER.ROT>
2

>  <SCORE.INTER.SOLV>
31.8266

>  <SCORE.INTER.VDW>
-31.2124

>  <SCORE.INTER.norm>
-0.534211

>  <SCORE.INTRA>
0.759929

>  <SCORE.INTRA.DIHEDRAL>
0.0967137

>  <SCORE.INTRA.DIHEDRAL.0>
2.32994

>  <SCORE.INTRA.POLAR>
0

>  <SCORE.INTRA.POLAR.0>
0

>  <SCORE.INTRA.REPUL>
0

>  <SCORE.INTRA.REPUL.0>
0

>  <SCORE.INTRA.SOLV>
-0.00186535

>  <SCORE.INTRA.SOLV.lig_0>
-117.703

>  <SCORE.INTRA.VDW>
0.712505

>  <SCORE.INTRA.VDW.0>
-1.59997

>  <SCORE.INTRA.norm>
0.0172711

>  <SCORE.RESTR>
0.000522395

>  <SCORE.RESTR.CAVITY>
0.000522395

>  <SCORE.RESTR.norm>
1.18726e-05

>  <SCORE.SYSTEM>
0

>  <SCORE.SYSTEM.CONST>
0

>  <SCORE.SYSTEM.DIHEDRAL>
0

>  <SCORE.SYSTEM.SOLV>
0

>  <SCORE.SYSTEM.norm>
0

>  <SCORE.heavy>
44

>  <SCORE.norm>
-0.516928

>  <RMSD>
1.253

$$$$
ligand
 OpenBabel11021811513D
libRbt.so/2013.1/901 2013/11/27
 44 50  0  0  0  0  0  0  0  0999 V2000
   -4.8665   34.9837  -12.9596 P   0  0  2  0  0  0  0  0  0  0  0  0
   -8.9199   36.2720  -16.2937 P   0  0  1  0  0  0  0  0  0  0  0  0
   -4.1245   35.9425  -12.0319 O   0  5  0  0  0  0  0  0  0  0  0  0
   -8.6165   35.5351  -17.5755 O   0  5  0  0  0  0  0  0  0  0  0  0
   -3.9033   33.8600  -13.2583 O   0  0  0  0  0  0  0  0  0  0  0  0
  -10.3767   36.7796  -16.3874 O   0  0  0  0  0  0  0  0  0  0  0  0
   -5.4601   37.2386  -13.9617 C   0  0  0  0  0  0  0  0  0  0  0  0
   -8.6650   35.7834  -13.7709 C   0  0  0  0  0  0  0  0  0  0  0  0
   -5.2467   35.8423  -14.2090 O   0  0  0  0  0  0  0  0  0  0  0  0
   -8.5408   35.2051  -15.1008 O   0  0  0  0  0  0  0  0  0  0  0  0
   -5.7756   37.9611  -15.2671 C   0  0  1  0  0  0  0  0  0  0  0  0
   -8.4072   34.6081  -12.7542 C   0  0  1  0  0  0  0  0  0  0  0  0
   -4.6535   38.2662  -15.8416 O   0  0  0  0  0  0  0  0  0  0  0  0
   -9.1816   33.6714  -13.1242 O   0  0  0  0  0  0  0  0  0  0  0  0
   -6.5472   37.1092  -16.2485 C   0  0  1  0  0  0  0  0  0  0  0  0
   -7.0098   33.9921  -12.9657 C   0  0  1  0  0  0  0  0  0  0  0  0
   -7.8498   37.4861  -16.1503 O   0  0  0  0  0  0  0  0  0  0  0  0
   -6.1389   34.4314  -12.0489 O   0  0  0  0  0  0  0  0  0  0  0  0
   -5.9619   37.5302  -17.6414 C   0  0  1  0  0  0  0  0  0  0  0  0
   -7.1778   32.4575  -12.8869 C   0  0  1  0  0  0  0  0  0  0  0  0
   -6.8929   38.4683  -18.3245 O   0  0  0  0  0  0  0  0  0  0  0  0
   -6.7159   31.9468  -11.5561 O   0  0  0  0  0  0  0  0  0  0  0  0
   -4.8204   38.0946  -17.4088 C   0  0  2  0  0  0  0  0  0  0  0  0
   -8.4446   32.2552  -13.0110 C   0  0  2  0  0  0  0  0  0  0  0  0
   -2.0147   33.5719  -18.1119 N   0  0  0  0  0  0  0  0  0  0  0  0
   -3.1565   33.6928  -17.3779 C   0  0  0  0  0  0  0  0  0  0  0  0
   -3.8015   34.8977  -17.2610 N   0  0  0  0  0  0  0  0  0  0  0  0
   -3.2812   35.9930  -17.8934 C   0  0  0  0  0  0  0  0  0  0  0  0
   -2.1551   35.8913  -18.6130 C   0  0  0  0  0  0  0  0  0  0  0  0
   -1.5111   34.6611  -18.7344 C   0  0  0  0  0  0  0  0  0  0  0  0
   -0.3264   34.4208  -19.4582 N   0  0  0  0  0  0  0  0  0  0  0  0
   -1.8781   37.1103  -19.1223 N   0  0  0  0  0  0  0  0  0  0  0  0
   -2.8477   37.9709  -18.7000 C   0  0  0  0  0  0  0  0  0  0  0  0
   -3.7229   37.2809  -17.9570 N   0  0  0  0  0  0  0  0  0  0  0  0
  -10.2138   27.7862  -15.0154 N   0  0  0  0  0  0  0  0  0  0  0  0
  -10.0493   28.0795  -13.6989 C   0  0  0  0  0  0  0  0  0  0  0  0
   -9.5640   29.3043  -13.3359 N   0  0  0  0  0  0  0  0  0  0  0  0
   -9.2526   30.2268  -14.2859 C   0  0  0  0  0  0  0  0  0  0  0  0
   -9.4176   29.9444  -15.5940 C   0  0  0  0  0  0  0  0  0  0  0  0
   -9.9087   28.6930  -15.9549 C   0  0  0  0  0  0  0  0  0  0  0  0
  -10.1439   28.1746  -17.2782 N   0  0  0  0  0  0  0  0  0  0  0  0
   -9.0281   31.0354  -16.2962 N   0  0  0  0  0  0  0  0  0  0  0  0
   -8.6278   31.9927  -15.4112 C   0  0  0  0  0  0  0  0  0  0  0  0
   -8.7733   31.4841  -14.1709 N   0  0  0  0  0  0  0  0  0  0  0  0
  1  3  1  1  0  0  0
  1  5  2  0  0  0  0
  1  9  1  0  0  0  0
  1 18  1  0  0  0  0
  2  4  1  6  0  0  0
  2  6  2  0  0  0  0
  2 10  1  0  0  0  0
  2 17  1  0  0  0  0
  7  9  1  0  0  0  0
  8 10  1  0  0  0  0
 11  7  1  1  0  0  0
 11 13  1  0  0  0  0
 11 15  1  0  0  0  0
 12  8  1  6  0  0  0
 12 14  1  0  0  0  0
 12 16  1  0  0  0  0
 13 23  1  0  0  0  0
 14 24  1  0  0  0  0
 15 17  1  6  0  0  0
 15 19  1  0  0  0  0
 16 18  1  1  0  0  0
 16 20  1  0  0  0  0
 19 21  1  1  0  0  0
 19 23  1  0  0  0  0
 20 22  1  1  0  0  0
 20 24  1  0  0  0  0
 23 34  1  1  0  0  0
 24 44  1  6  0  0  0
 25 26  2  0  0  0  0
 25 30  1  0  0  0  0
 26 27  1  0  0  0  0
 27 28  2  0  0  0  0
 28 29  1  0  0  0  0
 28 34  1  0  0  0  0
 29 30  2  0  0  0  0
 29 32  1  0  0  0  0
 30 31  1  0  0  0  0
 32 33  2  0  0  0  0
 33 34  1  0  0  0  0
 35 36  2  0  0  0  0
 35 40  1  0  0  0  0
 36 37  1  0  0  0  0
 37 38  2  0  0  0  0
 38 39  1  0  0  0  0
 38 44  1  0  0  0  0
 39 40  2  0  0  0  0
 39 42  1  0  0  0  0
 40 41  1  0  0  0  0
 42 43  2  0  0  0  0
 43 44  1  0  0  0  0
M  CHG  2   3  -1   4  -1
M  END
>  <CHROM.1>
67.48233749,-128.66524361,-6.50131136,34.42547727,-15.46217164,0.68403943
0.63420619,0.16667520

>  <Name>
ligand

>  <RI>
0

>  <Rbt.Current_Directory>
/home/itssahil/PROJECTS/Mol_Feturizer/New_Systems/rnas/4QLM

>  <Rbt.Executable>
rbdock ($Id: //depot/dev/client3/rdock/2013.1/src/exe/rbdock.cxx#4 $)

>  <Rbt.Library>
libRbt.so (2013.1, Build901 2013/11/27)

>  <Rbt.Parameter_File>
/export/apps/rDock/src/rDock_2013.1_src/data/scripts/dock_solv.prm

>  <Rbt.Receptor>
prm/pocket_docking_2.prm

>  <SCORE>
-10.7292

>  <SCORE.INTER>
-11.6512

>  <SCORE.INTER.CONST>
1

>  <SCORE.INTER.POLAR>
0

>  <SCORE.INTER.ROT>
2

>  <SCORE.INTER.SOLV>
32.8054

>  <SCORE.INTER.VDW>
-23.636

>  <SCORE.INTER.norm>
-0.264801

>  <SCORE.INTRA>
-0.842228

>  <SCORE.INTRA.DIHEDRAL>
0.0266699

>  <SCORE.INTRA.DIHEDRAL.0>
2.32994

>  <SCORE.INTRA.POLAR>
0

>  <SCORE.INTRA.POLAR.0>
0

>  <SCORE.INTRA.REPUL>
0

>  <SCORE.INTRA.REPUL.0>
0

>  <SCORE.INTRA.SOLV>
-0.00458527

>  <SCORE.INTRA.SOLV.lig_0>
-117.703

>  <SCORE.INTRA.VDW>
-0.85327

>  <SCORE.INTRA.VDW.0>
-1.59997

>  <SCORE.INTRA.norm>
-0.0191415

>  <SCORE.RESTR>
1.7643

>  <SCORE.RESTR.CAVITY>
1.7643

>  <SCORE.RESTR.norm>
0.0400977

>  <SCORE.SYSTEM>
0

>  <SCORE.SYSTEM.CONST>
0

>  <SCORE.SYSTEM.DIHEDRAL>
0

>  <SCORE.SYSTEM.SOLV>
0

>  <SCORE.SYSTEM.norm>
0

>  <SCORE.heavy>
44

>  <SCORE.norm>
-0.243845

>  <RMSD>
1.467

$$$$
ligand
 OpenBabel11021811513D
libRbt.so/2013.1/901 2013/11/27
 44 50  0  0  0  0  0  0  0  0999 V2000
   -5.5534   34.2220  -13.2596 P   0  0  2  0  0  0  0  0  0  0  0  0
   -9.7895   35.2010  -16.4693 P   0  0  1  0  0  0  0  0  0  0  0  0
   -4.9019   35.2152  -12.3006 O   0  5  0  0  0  0  0  0  0  0  0  0
   -9.4334   34.5585  -17.7878 O   0  5  0  0  0  0  0  0  0  0  0  0
   -4.4796   33.2250  -13.6237 O   0  0  0  0  0  0  0  0  0  0  0  0
  -11.2946   35.5491  -16.5176 O   0  0  0  0  0  0  0  0  0  0  0  0
   -6.4095   36.4395  -14.1488 C   0  0  0  0  0  0  0  0  0  0  0  0
   -9.4320   34.6341  -13.9755 C   0  0  0  0  0  0  0  0  0  0  0  0
   -6.0501   35.0872  -14.4626 O   0  0  0  0  0  0  0  0  0  0  0  0
   -9.2723   34.1314  -15.3321 O   0  0  0  0  0  0  0  0  0  0  0  0
   -6.8282   37.1791  -15.4151 C   0  0  1  0  0  0  0  0  0  0  0  0
   -9.0271   33.4510  -13.0174 C   0  0  1  0  0  0  0  0  0  0  0  0
   -5.7578   37.6304  -15.9922 O   0  0  0  0  0  0  0  0  0  0  0  0
   -9.7021   32.4519  -13.4178 O   0  0  0  0  0  0  0  0  0  0  0  0
   -7.5219   36.2911  -16.4223 C   0  0  1  0  0  0  0  0  0  0  0  0
   -7.5754   33.0021  -13.2780 C   0  0  1  0  0  0  0  0  0  0  0  0
   -8.8555   36.5179  -16.2872 O   0  0  0  0  0  0  0  0  0  0  0  0
   -6.7394   33.4941  -12.3556 O   0  0  0  0  0  0  0  0  0  0  0  0
   -7.0142   36.8341  -17.8034 C   0  0  1  0  0  0  0  0  0  0  0  0
   -7.5734   31.4564  -13.2665 C   0  0  1  0  0  0  0  0  0  0  0  0
   -8.0555   37.6931  -18.4288 O   0  0  0  0  0  0  0  0  0  0  0  0
   -7.0318   30.9421  -11.9675 O   0  0  0  0  0  0  0  0  0  0  0  0
   -5.9366   37.5099  -17.5629 C   0  0  2  0  0  0  0  0  0  0  0  0
   -8.8128   31.1217  -13.3803 C   0  0  2  0  0  0  0  0  0  0  0  0
   -2.2189   33.6584  -17.9707 N   0  0  0  0  0  0  0  0  0  0  0  0
   -3.2243   33.6983  -17.0516 C   0  0  0  0  0  0  0  0  0  0  0  0
   -4.1279   34.7301  -17.0318 N   0  0  0  0  0  0  0  0  0  0  0  0
   -4.0091   35.7340  -17.9528 C   0  0  0  0  0  0  0  0  0  0  0  0
   -3.0213   35.7123  -18.8584 C   0  0  0  0  0  0  0  0  0  0  0  0
   -2.1129   34.6553  -18.8776 C   0  0  0  0  0  0  0  0  0  0  0  0
   -1.0346   34.5137  -19.7733 N   0  0  0  0  0  0  0  0  0  0  0  0
   -3.1468   36.8100  -19.6340 N   0  0  0  0  0  0  0  0  0  0  0  0
   -4.2249   37.5163  -19.1889 C   0  0  0  0  0  0  0  0  0  0  0  0
   -4.7681   36.8463  -18.1641 N   0  0  0  0  0  0  0  0  0  0  0  0
  -10.7558   26.8130  -15.5665 N   0  0  0  0  0  0  0  0  0  0  0  0
  -10.7150   27.1059  -14.2403 C   0  0  0  0  0  0  0  0  0  0  0  0
  -10.1610   28.2844  -13.8263 N   0  0  0  0  0  0  0  0  0  0  0  0
   -9.6582   29.1620  -14.7359 C   0  0  0  0  0  0  0  0  0  0  0  0
   -9.6993   28.8801  -16.0539 C   0  0  0  0  0  0  0  0  0  0  0  0
  -10.2618   27.6757  -16.4666 C   0  0  0  0  0  0  0  0  0  0  0  0
  -10.3929   27.1651  -17.8071 N   0  0  0  0  0  0  0  0  0  0  0  0
   -9.1316   29.9212  -16.7087 N   0  0  0  0  0  0  0  0  0  0  0  0
   -8.7460   30.8478  -15.7853 C   0  0  0  0  0  0  0  0  0  0  0  0
   -9.0787   30.3704  -14.5690 N   0  0  0  0  0  0  0  0  0  0  0  0
  1  3  1  1  0  0  0
  1  5  2  0  0  0  0
  1  9  1  0  0  0  0
  1 18  1  0  0  0  0
  2  4  1  6  0  0  0
  2  6  2  0  0  0  0
  2 10  1  0  0  0  0
  2 17  1  0  0  0  0
  7  9  1  0  0  0  0
  8 10  1  0  0  0  0
 11  7  1  1  0  0  0
 11 13  1  0  0  0  0
 11 15  1  0  0  0  0
 12  8  1  6  0  0  0
 12 14  1  0  0  0  0
 12 16  1  0  0  0  0
 13 23  1  0  0  0  0
 14 24  1  0  0  0  0
 15 17  1  6  0  0  0
 15 19  1  0  0  0  0
 16 18  1  1  0  0  0
 16 20  1  0  0  0  0
 19 21  1  1  0  0  0
 19 23  1  0  0  0  0
 20 22  1  1  0  0  0
 20 24  1  0  0  0  0
 23 34  1  1  0  0  0
 24 44  1  6  0  0  0
 25 26  2  0  0  0  0
 25 30  1  0  0  0  0
 26 27  1  0  0  0  0
 27 28  2  0  0  0  0
 28 29  1  0  0  0  0
 28 34  1  0  0  0  0
 29 30  2  0  0  0  0
 29 32  1  0  0  0  0
 30 31  1  0  0  0  0
 32 33  2  0  0  0  0
 33 34  1  0  0  0  0
 35 36  2  0  0  0  0
 35 40  1  0  0  0  0
 36 37  1  0  0  0  0
 37 38  2  0  0  0  0
 38 39  1  0  0  0  0
 38 44  1  0  0  0  0
 39 40  2  0  0  0  0
 39 42  1  0  0  0  0
 40 41  1  0  0  0  0
 42 43  2  0  0  0  0
 43 44  1  0  0  0  0
M  CHG  2   3  -1   4  -1
M  END
>  <CHROM.1>
48.24800361,-114.43680779,-7.18546573,33.63684530,-15.72468491,0.84659736
0.50927904,0.01379398

>  <Name>
ligand

>  <RI>
0

>  <Rbt.Current_Directory>
/home/itssahil/PROJECTS/Mol_Feturizer/New_Systems/rnas/4QLM

>  <Rbt.Executable>
rbdock ($Id: //depot/dev/client3/rdock/2013.1/src/exe/rbdock.cxx#4 $)

>  <Rbt.Library>
libRbt.so (2013.1, Build901 2013/11/27)

>  <Rbt.Parameter_File>
/export/apps/rDock/src/rDock_2013.1_src/data/scripts/dock_solv.prm

>  <Rbt.Receptor>
prm/pocket_docking_3.prm

>  <SCORE>
-9.77572

>  <SCORE.INTER>
-9.09228

>  <SCORE.INTER.CONST>
1

>  <SCORE.INTER.POLAR>
0

>  <SCORE.INTER.ROT>
2

>  <SCORE.INTER.SOLV>
35.051

>  <SCORE.INTER.VDW>
-22.6785

>  <SCORE.INTER.norm>
-0.206643

>  <SCORE.INTRA>
-0.683448

>  <SCORE.INTRA.DIHEDRAL>
0.119758

>  <SCORE.INTRA.DIHEDRAL.0>
2.32994

>  <SCORE.INTRA.POLAR>
0

>  <SCORE.INTRA.POLAR.0>
0

>  <SCORE.INTRA.REPUL>
0

>  <SCORE.INTRA.REPUL.0>
0

>  <SCORE.INTRA.SOLV>
0.286992

>  <SCORE.INTRA.SOLV.lig_0>
-117.703

>  <SCORE.INTRA.VDW>
-0.886823

>  <SCORE.INTRA.VDW.0>
-1.59997

>  <SCORE.INTRA.norm>
-0.0155329

>  <SCORE.RESTR>
0

>  <SCORE.RESTR.CAVITY>
0

>  <SCORE.RESTR.norm>
0

>  <SCORE.SYSTEM>
0

>  <SCORE.SYSTEM.CONST>
0

>  <SCORE.SYSTEM.DIHEDRAL>
0

>  <SCORE.SYSTEM.SOLV>
0

>  <SCORE.SYSTEM.norm>
0

>  <SCORE.heavy>
44

>  <SCORE.norm>
-0.222176

>  <RMSD>
1.528

$$$$
ligand
 OpenBabel11021811513D
libRbt.so/2013.1/901 2013/11/27
 44 50  0  0  0  0  0  0  0  0999 V2000
   -5.6144   34.1427  -13.2806 P   0  0  2  0  0  0  0  0  0  0  0  0
   -9.8500   35.1771  -16.4735 P   0  0  1  0  0  0  0  0  0  0  0  0
   -4.9485   35.1262  -12.3215 O   0  5  0  0  0  0  0  0  0  0  0  0
   -9.5057   34.5338  -17.7947 O   0  5  0  0  0  0  0  0  0  0  0  0
   -4.5532   33.1346  -13.6508 O   0  0  0  0  0  0  0  0  0  0  0  0
  -11.3513   35.5423  -16.5159 O   0  0  0  0  0  0  0  0  0  0  0  0
   -6.4485   36.3719  -14.1616 C   0  0  0  0  0  0  0  0  0  0  0  0
   -9.4906   34.6001  -13.9823 C   0  0  0  0  0  0  0  0  0  0  0  0
   -6.1054   35.0164  -14.4799 O   0  0  0  0  0  0  0  0  0  0  0  0
   -9.3411   34.0990  -15.3407 O   0  0  0  0  0  0  0  0  0  0  0  0
   -6.8631   37.1191  -15.4246 C   0  0  1  0  0  0  0  0  0  0  0  0
   -9.0958   33.4103  -13.0284 C   0  0  1  0  0  0  0  0  0  0  0  0
   -5.7897   37.5598  -16.0043 O   0  0  0  0  0  0  0  0  0  0  0  0
   -9.7833   32.4198  -13.4289 O   0  0  0  0  0  0  0  0  0  0  0  0
   -7.5702   36.2415  -16.4316 C   0  0  1  0  0  0  0  0  0  0  0  0
   -7.6501   32.9456  -13.2950 C   0  0  1  0  0  0  0  0  0  0  0  0
   -8.9007   36.4830  -16.2915 O   0  0  0  0  0  0  0  0  0  0  0  0
   -6.8054   33.4260  -12.3743 O   0  0  0  0  0  0  0  0  0  0  0  0
   -7.0611   36.7821  -17.8132 C   0  0  1  0  0  0  0  0  0  0  0  0
   -7.6655   31.4000  -13.2873 C   0  0  1  0  0  0  0  0  0  0  0  0
   -8.0948   37.6543  -18.4329 O   0  0  0  0  0  0  0  0  0  0  0  0
   -7.1253   30.8765  -11.9914 O   0  0  0  0  0  0  0  0  0  0  0  0
   -5.9751   37.4451  -17.5747 C   0  0  2  0  0  0  0  0  0  0  0  0
   -8.9089   31.0796  -13.3977 C   0  0  2  0  0  0  0  0  0  0  0  0
   -2.1554   33.6843  -17.8696 N   0  0  0  0  0  0  0  0  0  0  0  0
   -3.1149   33.7686  -16.9055 C   0  0  0  0  0  0  0  0  0  0  0  0
   -4.0505   34.7715  -16.9204 N   0  0  0  0  0  0  0  0  0  0  0  0
   -4.0110   35.7011  -17.9227 C   0  0  0  0  0  0  0  0  0  0  0  0
   -3.0689   35.6355  -18.8738 C   0  0  0  0  0  0  0  0  0  0  0  0
   -2.1277   34.6076  -18.8566 C   0  0  0  0  0  0  0  0  0  0  0  0
   -1.0909   34.4261  -19.7931 N   0  0  0  0  0  0  0  0  0  0  0  0
   -3.2692   36.6630  -19.7261 N   0  0  0  0  0  0  0  0  0  0  0  0
   -4.3470   37.3709  -19.2828 C   0  0  0  0  0  0  0  0  0  0  0  0
   -4.8163   36.7699  -18.1815 N   0  0  0  0  0  0  0  0  0  0  0  0
  -10.8305   26.7601  -15.5817 N   0  0  0  0  0  0  0  0  0  0  0  0
  -10.7676   27.0426  -14.2541 C   0  0  0  0  0  0  0  0  0  0  0  0
  -10.2231   28.2260  -13.8411 N   0  0  0  0  0  0  0  0  0  0  0  0
   -9.7518   29.1186  -14.7530 C   0  0  0  0  0  0  0  0  0  0  0  0
   -9.8151   28.8470  -16.0722 C   0  0  0  0  0  0  0  0  0  0  0  0
  -10.3677   27.6377  -16.4839 C   0  0  0  0  0  0  0  0  0  0  0  0
  -10.5179   27.1364  -17.8260 N   0  0  0  0  0  0  0  0  0  0  0  0
   -9.2763   29.9020  -16.7292 N   0  0  0  0  0  0  0  0  0  0  0  0
   -8.8862   30.8266  -15.8058 C   0  0  0  0  0  0  0  0  0  0  0  0
   -9.1873   30.3342  -14.5872 N   0  0  0  0  0  0  0  0  0  0  0  0
  1  3  1  1  0  0  0
  1  5  2  0  0  0  0
  1  9  1  0  0  0  0
  1 18  1  0  0  0  0
  2  4  1  6  0  0  0
  2  6  2  0  0  0  0
  2 10  1  0  0  0  0
  2 17  1  0  0  0  0
  7  9  1  0  0  0  0
  8 10  1  0  0  0  0
 11  7  1  1  0  0  0
 11 13  1  0  0  0  0
 11 15  1  0  0  0  0
 12  8  1  6  0  0  0
 12 14  1  0  0  0  0
 12 16  1  0  0  0  0
 13 23  1  0  0  0  0
 14 24  1  0  0  0  0
 15 17  1  6  0  0  0
 15 19  1  0  0  0  0
 16 18  1  1  0  0  0
 16 20  1  0  0  0  0
 19 21  1  1  0  0  0
 19 23  1  0  0  0  0
 20 22  1  1  0  0  0
 20 24  1  0  0  0  0
 23 34  1  1  0  0  0
 24 44  1  6  0  0  0
 25 26  2  0  0  0  0
 25 30  1  0  0  0  0
 26 27  1  0  0  0  0
 27 28  2  0  0  0  0
 28 29  1  0  0  0  0
 28 34  1  0  0  0  0
 29 30  2  0  0  0  0
 29 32  1  0  0  0  0
 30 31  1  0  0  0  0
 32 33  2  0  0  0  0
 33 34  1  0  0  0  0
 35 36  2  0  0  0  0
 35 40  1  0  0  0  0
 36 37  1  0  0  0  0
 37 38  2  0  0  0  0
 38 39  1  0  0  0  0
 38 44  1  0  0  0  0
 39 40  2  0  0  0  0
 39 42  1  0  0  0  0
 40 41  1  0  0  0  0
 42 43  2  0  0  0  0
 43 44  1  0  0  0  0
M  CHG  2   3  -1   4  -1
M  END
>  <CHROM.1>
42.28188574,-116.25296350,-7.24546185,33.58820317,-15.73233540,-0.86287392
-0.44899035,3.10382464

>  <Name>
ligand

>  <RI>
0

>  <Rbt.Current_Directory>
/home/itssahil/PROJECTS/Mol_Feturizer/New_Systems/rnas/4QLM

>  <Rbt.Executable>
rbdock ($Id: //depot/dev/client3/rdock/2013.1/src/exe/rbdock.cxx#4 $)

>  <Rbt.Library>
libRbt.so (2013.1, Build901 2013/11/27)

>  <Rbt.Parameter_File>
/export/apps/rDock/src/rDock_2013.1_src/data/scripts/dock_solv.prm

>  <Rbt.Receptor>
prm/pocket_docking_2.prm

>  <SCORE>
-7.9606

>  <SCORE.INTER>
-7.7448

>  <SCORE.INTER.CONST>
1

>  <SCORE.INTER.POLAR>
0

>  <SCORE.INTER.ROT>
2

>  <SCORE.INTER.SOLV>
35.5438

>  <SCORE.INTER.VDW>
-21.9445

>  <SCORE.INTER.norm>
-0.176018

>  <SCORE.INTRA>
-0.721586

>  <SCORE.INTRA.DIHEDRAL>
0.145992

>  <SCORE.INTRA.DIHEDRAL.0>
2.32994

>  <SCORE.INTRA.POLAR>
0

>  <SCORE.INTRA.POLAR.0>
0

>  <SCORE.INTRA.REPUL>
0

>  <SCORE.INTRA.REPUL.0>
0

>  <SCORE.INTRA.SOLV>
0.346204

>  <SCORE.INTRA.SOLV.lig_0>
-117.703

>  <SCORE.INTRA.VDW>
-0.967684

>  <SCORE.INTRA.VDW.0>
-1.59997

>  <SCORE.INTRA.norm>
-0.0163997

>  <SCORE.RESTR>
0.505782

>  <SCORE.RESTR.CAVITY>
0.505782

>  <SCORE.RESTR.norm>
0.0114951

>  <SCORE.SYSTEM>
0

>  <SCORE.SYSTEM.CONST>
0

>  <SCORE.SYSTEM.DIHEDRAL>
0

>  <SCORE.SYSTEM.SOLV>
0

>  <SCORE.SYSTEM.norm>
0

>  <SCORE.heavy>
44

>  <SCORE.norm>
-0.180923

>  <RMSD>
1.547

$$$$
ligand
 OpenBabel11021811513D
libRbt.so/2013.1/901 2013/11/27
 44 50  0  0  0  0  0  0  0  0999 V2000
   -4.4532   34.9102  -13.1607 P   0  0  2  0  0  0  0  0  0  0  0  0
   -8.6175   36.5166  -16.2076 P   0  0  1  0  0  0  0  0  0  0  0  0
   -3.6012   35.8001  -12.2593 O   0  5  0  0  0  0  0  0  0  0  0  0
   -8.4363   35.7973  -17.5221 O   0  5  0  0  0  0  0  0  0  0  0  0
   -3.5780   33.7411  -13.5437 O   0  0  0  0  0  0  0  0  0  0  0  0
  -10.0448   37.1096  -16.1996 O   0  0  0  0  0  0  0  0  0  0  0  0
   -4.9721   37.2210  -14.0729 C   0  0  0  0  0  0  0  0  0  0  0  0
   -8.2399   35.9484  -13.7171 C   0  0  0  0  0  0  0  0  0  0  0  0
   -4.8569   35.8217  -14.3644 O   0  0  0  0  0  0  0  0  0  0  0  0
   -8.2307   35.3988  -15.0649 O   0  0  0  0  0  0  0  0  0  0  0  0
   -5.3226   37.9943  -15.3396 C   0  0  1  0  0  0  0  0  0  0  0  0
   -7.9911   34.7339  -12.7451 C   0  0  1  0  0  0  0  0  0  0  0  0
   -4.2212   38.2493  -15.9755 O   0  0  0  0  0  0  0  0  0  0  0  0
   -8.8405   33.8534  -13.0876 O   0  0  0  0  0  0  0  0  0  0  0  0
   -6.2012   37.2143  -16.2904 C   0  0  1  0  0  0  0  0  0  0  0  0
   -6.6478   34.0442  -13.0565 C   0  0  1  0  0  0  0  0  0  0  0  0
   -7.4708   37.6629  -16.1034 O   0  0  0  0  0  0  0  0  0  0  0  0
   -5.6987   34.4085  -12.1857 O   0  0  0  0  0  0  0  0  0  0  0  0
   -5.6773   37.6372  -17.7071 C   0  0  1  0  0  0  0  0  0  0  0  0
   -6.9012   32.5203  -13.0022 C   0  0  1  0  0  0  0  0  0  0  0  0
   -6.5908   38.6449  -18.3098 O   0  0  0  0  0  0  0  0  0  0  0  0
   -6.3907   31.9492  -11.7144 O   0  0  0  0  0  0  0  0  0  0  0  0
   -4.4924   38.1286  -17.5329 C   0  0  2  0  0  0  0  0  0  0  0  0
   -8.1829   32.3946  -13.0522 C   0  0  2  0  0  0  0  0  0  0  0  0
   -1.8691   33.5168  -18.3517 N   0  0  0  0  0  0  0  0  0  0  0  0
   -2.9168   33.6944  -17.4985 C   0  0  0  0  0  0  0  0  0  0  0  0
   -3.5220   34.9178  -17.3619 N   0  0  0  0  0  0  0  0  0  0  0  0
   -3.0577   35.9735  -18.0968 C   0  0  0  0  0  0  0  0  0  0  0  0
   -2.0235   35.8160  -18.9347 C   0  0  0  0  0  0  0  0  0  0  0  0
   -1.4204   34.5673  -19.0746 C   0  0  0  0  0  0  0  0  0  0  0  0
   -0.3311   34.2698  -19.9171 N   0  0  0  0  0  0  0  0  0  0  0  0
   -1.7844   37.0062  -19.5251 N   0  0  0  0  0  0  0  0  0  0  0  0
   -2.6834   37.9058  -19.0334 C   0  0  0  0  0  0  0  0  0  0  0  0
   -3.4801   37.2676  -18.1661 N   0  0  0  0  0  0  0  0  0  0  0  0
  -10.2786   28.0658  -15.0494 N   0  0  0  0  0  0  0  0  0  0  0  0
  -10.0081   28.3105  -13.7405 C   0  0  0  0  0  0  0  0  0  0  0  0
   -9.4467   29.5028  -13.3790 N   0  0  0  0  0  0  0  0  0  0  0  0
   -9.1653   30.4416  -14.3223 C   0  0  0  0  0  0  0  0  0  0  0  0
   -9.4352   30.2074  -15.6225 C   0  0  0  0  0  0  0  0  0  0  0  0
  -10.0034   28.9889  -15.9824 C   0  0  0  0  0  0  0  0  0  0  0  0
  -10.3544   28.5223  -17.2992 N   0  0  0  0  0  0  0  0  0  0  0  0
   -9.0511   31.3035  -16.3197 N   0  0  0  0  0  0  0  0  0  0  0  0
   -8.5483   32.2155  -15.4392 C   0  0  0  0  0  0  0  0  0  0  0  0
   -8.6261   31.6744  -14.2067 N   0  0  0  0  0  0  0  0  0  0  0  0
  1  3  1  1  0  0  0
  1  5  2  0  0  0  0
  1  9  1  0  0  0  0
  1 18  1  0  0  0  0
  2  4  1  6  0  0  0
  2  6  2  0  0  0  0
  2 10  1  0  0  0  0
  2 17  1  0  0  0  0
  7  9  1  0  0  0  0
  8 10  1  0  0  0  0
 11  7  1  1  0  0  0
 11 13  1  0  0  0  0
 11 15  1  0  0  0  0
 12  8  1  6  0  0  0
 12 14  1  0  0  0  0
 12 16  1  0  0  0  0
 13 23  1  0  0  0  0
 14 24  1  0  0  0  0
 15 17  1  6  0  0  0
 15 19  1  0  0  0  0
 16 18  1  1  0  0  0
 16 20  1  0  0  0  0
 19 21  1  1  0  0  0
 19 23  1  0  0  0  0
 20 22  1  1  0  0  0
 20 24  1  0  0  0  0
 23 34  1  1  0  0  0
 24 44  1  6  0  0  0
 25 26  2  0  0  0  0
 25 30  1  0  0  0  0
 26 27  1  0  0  0  0
 27 28  2  0  0  0  0
 28 29  1  0  0  0  0
 28 34  1  0  0  0  0
 29 30  2  0  0  0  0
 29 32  1  0  0  0  0
 30 31  1  0  0  0  0
 32 33  2  0  0  0  0
 33 34  1  0  0  0  0
 35 36  2  0  0  0  0
 35 40  1  0  0  0  0
 36 37  1  0  0  0  0
 37 38  2  0  0  0  0
 38 39  1  0  0  0  0
 38 44  1  0  0  0  0
 39 40  2  0  0  0  0
 39 42  1  0  0  0  0
 40 41  1  0  0  0  0
 42 43  2  0  0  0  0
 43 44  1  0  0  0  0
M  CHG  2   3  -1   4  -1
M  END
>  <CHROM.1>
62.12236899,-129.87650255,-6.25304599,34.51434281,-15.55925659,0.63341693
0.64806068,0.18669644

>  <Name>
ligand

>  <RI>
0

>  <Rbt.Current_Directory>
/home/itssahil/PROJECTS/Mol_Feturizer/New_Systems/rnas/4QLM

>  <Rbt.Executable>
rbdock ($Id: //depot/dev/client3/rdock/2013.1/src/exe/rbdock.cxx#4 $)

>  <Rbt.Library>
libRbt.so (2013.1, Build901 2013/11/27)

>  <Rbt.Parameter_File>
/export/apps/rDock/src/rDock_2013.1_src/data/scripts/dock_solv.prm

>  <Rbt.Receptor>
prm/pocket_docking_4.prm

>  <SCORE>
-17.8325

>  <SCORE.INTER>
-16.9057

>  <SCORE.INTER.CONST>
1

>  <SCORE.INTER.POLAR>
0

>  <SCORE.INTER.ROT>
2

>  <SCORE.INTER.SOLV>
34.6933

>  <SCORE.INTER.VDW>
-27.7682

>  <SCORE.INTER.norm>
-0.384221

>  <SCORE.INTRA>
-0.936125

>  <SCORE.INTRA.DIHEDRAL>
0.0548859

>  <SCORE.INTRA.DIHEDRAL.0>
2.32994

>  <SCORE.INTRA.POLAR>
0

>  <SCORE.INTRA.POLAR.0>
0

>  <SCORE.INTRA.REPUL>
0

>  <SCORE.INTRA.REPUL.0>
0

>  <SCORE.INTRA.SOLV>
0.0590606

>  <SCORE.INTRA.SOLV.lig_0>
-117.703

>  <SCORE.INTRA.VDW>
-0.993099

>  <SCORE.INTRA.VDW.0>
-1.59997

>  <SCORE.INTRA.norm>
-0.0212756

>  <SCORE.RESTR>
0.00932234

>  <SCORE.RESTR.CAVITY>
0.00932234

>  <SCORE.RESTR.norm>
0.000211871

>  <SCORE.SYSTEM>
0

>  <SCORE.SYSTEM.CONST>
0

>  <SCORE.SYSTEM.DIHEDRAL>
0

>  <SCORE.SYSTEM.SOLV>
0

>  <SCORE.SYSTEM.norm>
0

>  <SCORE.heavy>
44

>  <SCORE.norm>
-0.405285

>  <RMSD>
1.613

$$$$
ligand
 OpenBabel11021811513D
libRbt.so/2013.1/901 2013/11/27
 44 50  0  0  0  0  0  0  0  0999 V2000
   -6.6431   34.9124  -12.5775 P   0  0  2  0  0  0  0  0  0  0  0  0
  -10.2125   35.1846  -16.6260 P   0  0  1  0  0  0  0  0  0  0  0  0
   -6.0804   36.0946  -11.7924 O   0  5  0  0  0  0  0  0  0  0  0  0
   -9.6985   34.2145  -17.6618 O   0  5  0  0  0  0  0  0  0  0  0  0
   -5.6057   33.8190  -12.4897 O   0  0  0  0  0  0  0  0  0  0  0  0
  -11.6580   35.5606  -17.0237 O   0  0  0  0  0  0  0  0  0  0  0  0
   -7.1677   36.8573  -14.1213 C   0  0  0  0  0  0  0  0  0  0  0  0
  -10.3100   35.2617  -14.0467 C   0  0  0  0  0  0  0  0  0  0  0  0
   -6.8689   35.4581  -14.0245 O   0  0  0  0  0  0  0  0  0  0  0  0
   -9.9719   34.4238  -15.1879 O   0  0  0  0  0  0  0  0  0  0  0  0
   -7.3162   37.2627  -15.5839 C   0  0  1  0  0  0  0  0  0  0  0  0
  -10.1596   34.3495  -12.7713 C   0  0  1  0  0  0  0  0  0  0  0  0
   -6.1345   37.5143  -16.0556 O   0  0  0  0  0  0  0  0  0  0  0  0
  -10.8366   33.3052  -13.0267 O   0  0  0  0  0  0  0  0  0  0  0  0
   -7.9045   36.1714  -16.4483 C   0  0  1  0  0  0  0  0  0  0  0  0
   -8.7244   33.7989  -12.6527 C   0  0  1  0  0  0  0  0  0  0  0  0
   -9.2205   36.4712  -16.6110 O   0  0  0  0  0  0  0  0  0  0  0  0
   -8.0133   34.4811  -11.7467 O   0  0  0  0  0  0  0  0  0  0  0  0
   -7.1385   36.3256  -17.8083 C   0  0  1  0  0  0  0  0  0  0  0  0
   -8.8450   32.3084  -12.2616 C   0  0  1  0  0  0  0  0  0  0  0  0
   -7.9942   37.0317  -18.7995 O   0  0  0  0  0  0  0  0  0  0  0  0
   -8.5633   32.1246  -10.8014 O   0  0  0  0  0  0  0  0  0  0  0  0
   -6.0648   37.0027  -17.5546 C   0  0  2  0  0  0  0  0  0  0  0  0
  -10.0718   31.9988  -12.5069 C   0  0  2  0  0  0  0  0  0  0  0  0
   -1.4269   35.6554  -19.8990 N   0  0  0  0  0  0  0  0  0  0  0  0
   -2.1760   36.7552  -20.1930 C   0  0  0  0  0  0  0  0  0  0  0  0
   -3.3506   37.0118  -19.5328 N   0  0  0  0  0  0  0  0  0  0  0  0
   -3.7717   36.1419  -18.5652 C   0  0  0  0  0  0  0  0  0  0  0  0
   -3.0495   35.0521  -18.2699 C   0  0  0  0  0  0  0  0  0  0  0  0
   -1.8523   34.8038  -18.9390 C   0  0  0  0  0  0  0  0  0  0  0  0
   -1.0035   33.7001  -18.7239 N   0  0  0  0  0  0  0  0  0  0  0  0
   -3.6908   34.3845  -17.2875 N   0  0  0  0  0  0  0  0  0  0  0  0
   -4.8266   35.0752  -16.9841 C   0  0  0  0  0  0  0  0  0  0  0  0
   -4.8697   36.1675  -17.7580 N   0  0  0  0  0  0  0  0  0  0  0  0
   -8.7044   30.1663  -17.1858 N   0  0  0  0  0  0  0  0  0  0  0  0
   -8.2777   31.3188  -16.6062 C   0  0  0  0  0  0  0  0  0  0  0  0
   -8.7406   31.6626  -15.3673 N   0  0  0  0  0  0  0  0  0  0  0  0
   -9.6188   30.8539  -14.7152 C   0  0  0  0  0  0  0  0  0  0  0  0
  -10.0430   29.7065  -15.2824 C   0  0  0  0  0  0  0  0  0  0  0  0
   -9.5695   29.3659  -16.5461 C   0  0  0  0  0  0  0  0  0  0  0  0
   -9.8988   28.2105  -17.3408 N   0  0  0  0  0  0  0  0  0  0  0  0
  -10.9015   29.1190  -14.4147 N   0  0  0  0  0  0  0  0  0  0  0  0
  -10.9982   29.9098  -13.3078 C   0  0  0  0  0  0  0  0  0  0  0  0
  -10.1991   30.9783  -13.5022 N   0  0  0  0  0  0  0  0  0  0  0  0
  1  3  1  1  0  0  0
  1  5  2  0  0  0  0
  1  9  1  0  0  0  0
  1 18  1  0  0  0  0
  2  4  1  6  0  0  0
  2  6  2  0  0  0  0
  2 10  1  0  0  0  0
  2 17  1  0  0  0  0
  7  9  1  0  0  0  0
  8 10  1  0  0  0  0
 11  7  1  1  0  0  0
 11 13  1  0  0  0  0
 11 15  1  0  0  0  0
 12  8  1  6  0  0  0
 12 14  1  0  0  0  0
 12 16  1  0  0  0  0
 13 23  1  0  0  0  0
 14 24  1  0  0  0  0
 15 17  1  6  0  0  0
 15 19  1  0  0  0  0
 16 18  1  1  0  0  0
 16 20  1  0  0  0  0
 19 21  1  6  0  0  0
 19 23  1  0  0  0  0
 20 22  1  1  0  0  0
 20 24  1  0  0  0  0
 23 34  1  1  0  0  0
 24 44  1  6  0  0  0
 25 26  2  0  0  0  0
 25 30  1  0  0  0  0
 26 27  1  0  0  0  0
 27 28  2  0  0  0  0
 28 29  1  0  0  0  0
 28 34  1  0  0  0  0
 29 30  2  0  0  0  0
 29 32  1  0  0  0  0
 30 31  1  0  0  0  0
 32 33  2  0  0  0  0
 33 34  1  0  0  0  0
 35 36  2  0  0  0  0
 35 40  1  0  0  0  0
 36 37  1  0  0  0  0
 37 38  2  0  0  0  0
 38 39  1  0  0  0  0
 38 44  1  0  0  0  0
 39 40  2  0  0  0  0
 39 42  1  0  0  0  0
 40 41  1  0  0  0  0
 42 43  2  0  0  0  0
 43 44  1  0  0  0  0
M  CHG  2   3  -1   4  -1
M  END
>  <CHROM.1>
-123.11035438,72.56274114,-7.56591699,34.15943485,-15.57121378,-3.13812524
-0.78441536,-2.38412173

>  <Name>
ligand

>  <RI>
0

>  <Rbt.Current_Directory>
/home/itssahil/PROJECTS/Mol_Feturizer/New_Systems/rnas/4QLM

>  <Rbt.Executable>
rbdock ($Id: //depot/dev/client3/rdock/2013.1/src/exe/rbdock.cxx#4 $)

>  <Rbt.Library>
libRbt.so (2013.1, Build901 2013/11/27)

>  <Rbt.Parameter_File>
/export/apps/rDock/src/rDock_2013.1_src/data/scripts/dock_solv.prm

>  <Rbt.Receptor>
prm/pocket_docking_2.prm

>  <SCORE>
-1.1119

>  <SCORE.INTER>
-2.773

>  <SCORE.INTER.CONST>
1

>  <SCORE.INTER.POLAR>
0

>  <SCORE.INTER.ROT>
2

>  <SCORE.INTER.SOLV>
36.4624

>  <SCORE.INTER.VDW>
-18.9361

>  <SCORE.INTER.norm>
-0.0630226

>  <SCORE.INTRA>
-0.296434

>  <SCORE.INTRA.DIHEDRAL>
0.0687272

>  <SCORE.INTRA.DIHEDRAL.0>
2.32994

>  <SCORE.INTRA.POLAR>
0

>  <SCORE.INTRA.POLAR.0>
0

>  <SCORE.INTRA.REPUL>
0

>  <SCORE.INTRA.REPUL.0>
0

>  <SCORE.INTRA.SOLV>
0.437403

>  <SCORE.INTRA.SOLV.lig_0>
-117.703

>  <SCORE.INTRA.VDW>
-0.549499

>  <SCORE.INTRA.VDW.0>
-1.59997

>  <SCORE.INTRA.norm>
-0.00673714

>  <SCORE.RESTR>
1.95753

>  <SCORE.RESTR.CAVITY>
1.95753

>  <SCORE.RESTR.norm>
0.0444894

>  <SCORE.SYSTEM>
0

>  <SCORE.SYSTEM.CONST>
0

>  <SCORE.SYSTEM.DIHEDRAL>
0

>  <SCORE.SYSTEM.SOLV>
0

>  <SCORE.SYSTEM.norm>
0

>  <SCORE.heavy>
44

>  <SCORE.norm>
-0.0252704

>  <RMSD>
1.636

$$$$
ligand
 OpenBabel11021811513D
libRbt.so/2013.1/901 2013/11/27
 44 50  0  0  0  0  0  0  0  0999 V2000
   -6.6374   34.9040  -12.5634 P   0  0  2  0  0  0  0  0  0  0  0  0
  -10.2137   35.1965  -16.6044 P   0  0  1  0  0  0  0  0  0  0  0  0
   -6.0681   36.0828  -11.7779 O   0  5  0  0  0  0  0  0  0  0  0  0
   -9.7058   34.2257  -17.6425 O   0  5  0  0  0  0  0  0  0  0  0  0
   -5.6044   33.8062  -12.4791 O   0  0  0  0  0  0  0  0  0  0  0  0
  -11.6584   35.5791  -16.9987 O   0  0  0  0  0  0  0  0  0  0  0  0
   -7.1569   36.8532  -14.1036 C   0  0  0  0  0  0  0  0  0  0  0  0
  -10.3056   35.2706  -14.0248 C   0  0  0  0  0  0  0  0  0  0  0  0
   -6.8637   35.4526  -14.0092 O   0  0  0  0  0  0  0  0  0  0  0  0
   -9.9734   34.4328  -15.1678 O   0  0  0  0  0  0  0  0  0  0  0  0
   -7.3066   37.2612  -15.5653 C   0  0  1  0  0  0  0  0  0  0  0  0
  -10.1566   34.3561  -12.7508 C   0  0  1  0  0  0  0  0  0  0  0  0
   -6.1248   37.5084  -16.0391 O   0  0  0  0  0  0  0  0  0  0  0  0
  -10.8384   33.3150  -13.0063 O   0  0  0  0  0  0  0  0  0  0  0  0
   -7.9012   36.1734  -16.4300 C   0  0  1  0  0  0  0  0  0  0  0  0
   -8.7234   33.7994  -12.6358 C   0  0  1  0  0  0  0  0  0  0  0  0
   -9.2163   36.4789  -16.5897 O   0  0  0  0  0  0  0  0  0  0  0  0
   -8.0077   34.4774  -11.7304 O   0  0  0  0  0  0  0  0  0  0  0  0
   -7.1373   36.3262  -17.7913 C   0  0  1  0  0  0  0  0  0  0  0  0
   -8.8495   32.3089  -12.2464 C   0  0  1  0  0  0  0  0  0  0  0  0
   -7.9920   37.0372  -18.7799 O   0  0  0  0  0  0  0  0  0  0  0  0
   -8.5657   32.1220  -10.7871 O   0  0  0  0  0  0  0  0  0  0  0  0
   -6.0603   36.9985  -17.5389 C   0  0  2  0  0  0  0  0  0  0  0  0
  -10.0781   32.0047  -12.4897 C   0  0  2  0  0  0  0  0  0  0  0  0
   -1.4294   35.6384  -19.8899 N   0  0  0  0  0  0  0  0  0  0  0  0
   -2.1735   36.7427  -20.1796 C   0  0  0  0  0  0  0  0  0  0  0  0
   -3.3467   37.0023  -19.5180 N   0  0  0  0  0  0  0  0  0  0  0  0
   -3.7715   36.1308  -18.5535 C   0  0  0  0  0  0  0  0  0  0  0  0
   -3.0542   35.0367  -18.2625 C   0  0  0  0  0  0  0  0  0  0  0  0
   -1.8583   34.7853  -18.9329 C   0  0  0  0  0  0  0  0  0  0  0  0
   -1.0145   33.6769  -18.7221 N   0  0  0  0  0  0  0  0  0  0  0  0
   -3.6982   34.3684  -17.2822 N   0  0  0  0  0  0  0  0  0  0  0  0
   -4.8308   35.0632  -16.9759 C   0  0  0  0  0  0  0  0  0  0  0  0
   -4.8691   36.1586  -17.7458 N   0  0  0  0  0  0  0  0  0  0  0  0
   -8.7750   30.2036  -17.1991 N   0  0  0  0  0  0  0  0  0  0  0  0
   -8.3512   31.3591  -16.6233 C   0  0  0  0  0  0  0  0  0  0  0  0
   -8.7954   31.6935  -15.3750 N   0  0  0  0  0  0  0  0  0  0  0  0
   -9.6522   30.8724  -14.7099 C   0  0  0  0  0  0  0  0  0  0  0  0
  -10.0733   29.7220  -15.2732 C   0  0  0  0  0  0  0  0  0  0  0  0
   -9.6190   29.3911  -16.5466 C   0  0  0  0  0  0  0  0  0  0  0  0
   -9.9493   28.2346  -17.3392 N   0  0  0  0  0  0  0  0  0  0  0  0
  -10.9090   29.1218  -14.3921 N   0  0  0  0  0  0  0  0  0  0  0  0
  -10.9947   29.9078  -13.2809 C   0  0  0  0  0  0  0  0  0  0  0  0
  -10.2117   30.9862  -13.4861 N   0  0  0  0  0  0  0  0  0  0  0  0
  1  3  1  1  0  0  0
  1  5  2  0  0  0  0
  1  9  1  0  0  0  0
  1 18  1  0  0  0  0
  2  4  1  6  0  0  0
  2  6  2  0  0  0  0
  2 10  1  0  0  0  0
  2 17  1  0  0  0  0
  7  9  1  0  0  0  0
  8 10  1  0  0  0  0
 11  7  1  1  0  0  0
 11 13  1  0  0  0  0
 11 15  1  0  0  0  0
 12  8  1  6  0  0  0
 12 14  1  0  0  0  0
 12 16  1  0  0  0  0
 13 23  1  0  0  0  0
 14 24  1  0  0  0  0
 15 17  1  6  0  0  0
 15 19  1  0  0  0  0
 16 18  1  1  0  0  0
 16 20  1  0  0  0  0
 19 21  1  6  0  0  0
 19 23  1  0  0  0  0
 20 22  1  1  0  0  0
 20 24  1  0  0  0  0
 23 34  1  1  0  0  0
 24 44  1  6  0  0  0
 25 26  2  0  0  0  0
 25 30  1  0  0  0  0
 26 27  1  0  0  0  0
 27 28  2  0  0  0  0
 28 29  1  0  0  0  0
 28 34  1  0  0  0  0
 29 30  2  0  0  0  0
 29 32  1  0  0  0  0
 30 31  1  0  0  0  0
 32 33  2  0  0  0  0
 33 34  1  0  0  0  0
 35 36  2  0  0  0  0
 35 40  1  0  0  0  0
 36 37  1  0  0  0  0
 37 38  2  0  0  0  0
 38 39  1  0  0  0  0
 38 44  1  0  0  0  0
 39 40  2  0  0  0  0
 39 42  1  0  0  0  0
 40 41  1  0  0  0  0
 42 43  2  0  0  0  0
 43 44  1  0  0  0  0
M  CHG  2   3  -1   4  -1
M  END
>  <CHROM.1>
-122.94426822,71.26040426,-7.57268439,34.16153884,-15.55788676,-3.11800947
-0.78168658,-2.35808346

>  <Name>
ligand

>  <RI>
0

>  <Rbt.Current_Directory>
/home/itssahil/PROJECTS/Mol_Feturizer/New_Systems/rnas/4QLM

>  <Rbt.Executable>
rbdock ($Id: //depot/dev/client3/rdock/2013.1/src/exe/rbdock.cxx#4 $)

>  <Rbt.Library>
libRbt.so (2013.1, Build901 2013/11/27)

>  <Rbt.Parameter_File>
/export/apps/rDock/src/rDock_2013.1_src/data/scripts/dock_solv.prm

>  <Rbt.Receptor>
prm/pocket_docking_2.prm

>  <SCORE>
-0.926988

>  <SCORE.INTER>
-2.54088

>  <SCORE.INTER.CONST>
1

>  <SCORE.INTER.POLAR>
0

>  <SCORE.INTER.ROT>
2

>  <SCORE.INTER.SOLV>
36.5308

>  <SCORE.INTER.VDW>
-18.8042

>  <SCORE.INTER.norm>
-0.0577474

>  <SCORE.INTRA>
-0.298526

>  <SCORE.INTRA.DIHEDRAL>
0.0690297

>  <SCORE.INTRA.DIHEDRAL.0>
2.32994

>  <SCORE.INTRA.POLAR>
0

>  <SCORE.INTRA.POLAR.0>
0

>  <SCORE.INTRA.REPUL>
0

>  <SCORE.INTRA.REPUL.0>
0

>  <SCORE.INTRA.SOLV>
0.480432

>  <SCORE.INTRA.SOLV.lig_0>
-117.703

>  <SCORE.INTRA.VDW>
-0.573256

>  <SCORE.INTRA.VDW.0>
-1.59997

>  <SCORE.INTRA.norm>
-0.00678467

>  <SCORE.RESTR>
1.91242

>  <SCORE.RESTR.CAVITY>
1.91242

>  <SCORE.RESTR.norm>
0.0434641

>  <SCORE.SYSTEM>
0

>  <SCORE.SYSTEM.CONST>
0

>  <SCORE.SYSTEM.DIHEDRAL>
0

>  <SCORE.SYSTEM.SOLV>
0

>  <SCORE.SYSTEM.norm>
0

>  <SCORE.heavy>
44

>  <SCORE.norm>
-0.0210679

>  <RMSD>
1.640

$$$$
ligand
 OpenBabel11021811513D
libRbt.so/2013.1/901 2013/11/27
 44 50  0  0  0  0  0  0  0  0999 V2000
   -4.3802   34.9287  -13.1657 P   0  0  2  0  0  0  0  0  0  0  0  0
   -8.5660   36.5170  -16.1926 P   0  0  1  0  0  0  0  0  0  0  0  0
   -3.5247   35.8231  -12.2720 O   0  5  0  0  0  0  0  0  0  0  0  0
   -8.3910   35.7940  -17.5058 O   0  5  0  0  0  0  0  0  0  0  0  0
   -3.5048   33.7602  -13.5503 O   0  0  0  0  0  0  0  0  0  0  0  0
   -9.9945   37.1070  -16.1778 O   0  0  0  0  0  0  0  0  0  0  0  0
   -4.9094   37.2356  -14.0818 C   0  0  0  0  0  0  0  0  0  0  0  0
   -8.1723   35.9571  -13.7026 C   0  0  0  0  0  0  0  0  0  0  0  0
   -4.7930   35.8356  -14.3697 O   0  0  0  0  0  0  0  0  0  0  0  0
   -8.1700   35.4035  -15.0488 O   0  0  0  0  0  0  0  0  0  0  0  0
   -5.2691   38.0043  -15.3487 C   0  0  1  0  0  0  0  0  0  0  0  0
   -7.9151   34.7462  -12.7284 C   0  0  1  0  0  0  0  0  0  0  0  0
   -4.1721   38.2596  -15.9919 O   0  0  0  0  0  0  0  0  0  0  0  0
   -8.7647   33.8629  -13.0632 O   0  0  0  0  0  0  0  0  0  0  0  0
   -6.1517   37.2195  -16.2919 C   0  0  1  0  0  0  0  0  0  0  0  0
   -6.5723   34.0583  -13.0457 C   0  0  1  0  0  0  0  0  0  0  0  0
   -7.4212   37.6660  -16.0986 O   0  0  0  0  0  0  0  0  0  0  0  0
   -5.6188   34.4273  -12.1817 O   0  0  0  0  0  0  0  0  0  0  0  0
   -5.6371   37.6391  -17.7129 C   0  0  1  0  0  0  0  0  0  0  0  0
   -6.8221   32.5341  -12.9852 C   0  0  1  0  0  0  0  0  0  0  0  0
   -6.5563   38.6431  -18.3132 O   0  0  0  0  0  0  0  0  0  0  0  0
   -6.3027   31.9680  -11.6988 O   0  0  0  0  0  0  0  0  0  0  0  0
   -4.4523   38.1336  -17.5473 C   0  0  2  0  0  0  0  0  0  0  0  0
   -8.1038   32.4056  -13.0272 C   0  0  2  0  0  0  0  0  0  0  0  0
   -1.8323   33.5217  -18.3765 N   0  0  0  0  0  0  0  0  0  0  0  0
   -2.8776   33.6990  -17.5203 C   0  0  0  0  0  0  0  0  0  0  0  0
   -3.4821   34.9224  -17.3812 N   0  0  0  0  0  0  0  0  0  0  0  0
   -3.0197   35.9786  -18.1167 C   0  0  0  0  0  0  0  0  0  0  0  0
   -1.9878   35.8214  -18.9575 C   0  0  0  0  0  0  0  0  0  0  0  0
   -1.3854   34.5726  -19.0999 C   0  0  0  0  0  0  0  0  0  0  0  0
   -0.2985   34.2755  -19.9457 N   0  0  0  0  0  0  0  0  0  0  0  0
   -1.7501   37.0119  -19.5478 N   0  0  0  0  0  0  0  0  0  0  0  0
   -2.6475   37.9114  -19.0530 C   0  0  0  0  0  0  0  0  0  0  0  0
   -3.4419   37.2728  -18.1839 N   0  0  0  0  0  0  0  0  0  0  0  0
  -10.2544   28.0892  -14.9928 N   0  0  0  0  0  0  0  0  0  0  0  0
   -9.9863   28.3425  -13.6850 C   0  0  0  0  0  0  0  0  0  0  0  0
   -9.4089   29.5297  -13.3323 N   0  0  0  0  0  0  0  0  0  0  0  0
   -9.1092   30.4552  -14.2832 C   0  0  0  0  0  0  0  0  0  0  0  0
   -9.3767   30.2125  -15.5824 C   0  0  0  0  0  0  0  0  0  0  0  0
   -9.9612   28.9991  -15.9332 C   0  0  0  0  0  0  0  0  0  0  0  0
  -10.3131   28.5250  -17.2472 N   0  0  0  0  0  0  0  0  0  0  0  0
   -8.9731   31.2960  -16.2882 N   0  0  0  0  0  0  0  0  0  0  0  0
   -8.4609   32.2089  -15.4142 C   0  0  0  0  0  0  0  0  0  0  0  0
   -8.5523   31.6809  -14.1769 N   0  0  0  0  0  0  0  0  0  0  0  0
  1  3  1  1  0  0  0
  1  5  2  0  0  0  0
  1  9  1  0  0  0  0
  1 18  1  0  0  0  0
  2  4  1  6  0  0  0
  2  6  2  0  0  0  0
  2 10  1  0  0  0  0
  2 17  1  0  0  0  0
  7  9  1  0  0  0  0
  8 10  1  0  0  0  0
 11  7  1  1  0  0  0
 11 13  1  0  0  0  0
 11 15  1  0  0  0  0
 12  8  1  6  0  0  0
 12 14  1  0  0  0  0
 12 16  1  0  0  0  0
 13 23  1  0  0  0  0
 14 24  1  0  0  0  0
 15 17  1  6  0  0  0
 15 19  1  0  0  0  0
 16 18  1  1  0  0  0
 16 20  1  0  0  0  0
 19 21  1  1  0  0  0
 19 23  1  0  0  0  0
 20 22  1  1  0  0  0
 20 24  1  0  0  0  0
 23 34  1  1  0  0  0
 24 44  1  6  0  0  0
 25 26  2  0  0  0  0
 25 30  1  0  0  0  0
 26 27  1  0  0  0  0
 27 28  2  0  0  0  0
 28 29  1  0  0  0  0
 28 34  1  0  0  0  0
 29 30  2  0  0  0  0
 29 32  1  0  0  0  0
 30 31  1  0  0  0  0
 32 33  2  0  0  0  0
 33 34  1  0  0  0  0
 35 36  2  0  0  0  0
 35 40  1  0  0  0  0
 36 37  1  0  0  0  0
 37 38  2  0  0  0  0
 38 39  1  0  0  0  0
 38 44  1  0  0  0  0
 39 40  2  0  0  0  0
 39 42  1  0  0  0  0
 40 41  1  0  0  0  0
 42 43  2  0  0  0  0
 43 44  1  0  0  0  0
M  CHG  2   3  -1   4  -1
M  END
>  <CHROM.1>
62.43326259,-128.67000708,-6.19800036,34.52323512,-15.55234121,0.62725529
0.65712782,0.19124707

>  <Name>
ligand

>  <RI>
0

>  <Rbt.Current_Directory>
/home/itssahil/PROJECTS/Mol_Feturizer/New_Systems/rnas/4QLM

>  <Rbt.Executable>
rbdock ($Id: //depot/dev/client3/rdock/2013.1/src/exe/rbdock.cxx#4 $)

>  <Rbt.Library>
libRbt.so (2013.1, Build901 2013/11/27)

>  <Rbt.Parameter_File>
/export/apps/rDock/src/rDock_2013.1_src/data/scripts/dock_solv.prm

>  <Rbt.Receptor>
prm/pocket_docking_3.prm

>  <SCORE>
-18.0867

>  <SCORE.INTER>
-17.1643

>  <SCORE.INTER.CONST>
1

>  <SCORE.INTER.POLAR>
0

>  <SCORE.INTER.ROT>
2

>  <SCORE.INTER.SOLV>
34.5258

>  <SCORE.INTER.VDW>
-27.8848

>  <SCORE.INTER.norm>
-0.390097

>  <SCORE.INTRA>
-0.922417

>  <SCORE.INTRA.DIHEDRAL>
0.0526146

>  <SCORE.INTRA.DIHEDRAL.0>
2.32994

>  <SCORE.INTRA.POLAR>
0

>  <SCORE.INTRA.POLAR.0>
0

>  <SCORE.INTRA.REPUL>
0

>  <SCORE.INTRA.REPUL.0>
0

>  <SCORE.INTRA.SOLV>
0.0533534

>  <SCORE.INTRA.SOLV.lig_0>
-117.703

>  <SCORE.INTRA.VDW>
-0.975401

>  <SCORE.INTRA.VDW.0>
-1.59997

>  <SCORE.INTRA.norm>
-0.020964

>  <SCORE.RESTR>
0

>  <SCORE.RESTR.CAVITY>
0

>  <SCORE.RESTR.norm>
0

>  <SCORE.SYSTEM>
0

>  <SCORE.SYSTEM.CONST>
0

>  <SCORE.SYSTEM.DIHEDRAL>
0

>  <SCORE.SYSTEM.SOLV>
0

>  <SCORE.SYSTEM.norm>
0

>  <SCORE.heavy>
44

>  <SCORE.norm>
-0.411061

>  <RMSD>
1.641

$$$$
ligand
 OpenBabel11021811513D
libRbt.so/2013.1/901 2013/11/27
 44 50  0  0  0  0  0  0  0  0999 V2000
   -4.3828   34.9359  -13.1763 P   0  0  2  0  0  0  0  0  0  0  0  0
   -8.5751   36.5290  -16.1917 P   0  0  1  0  0  0  0  0  0  0  0  0
   -3.5247   35.8291  -12.2841 O   0  5  0  0  0  0  0  0  0  0  0  0
   -8.4038   35.8070  -17.5060 O   0  5  0  0  0  0  0  0  0  0  0  0
   -3.5090   33.7673  -13.5641 O   0  0  0  0  0  0  0  0  0  0  0  0
  -10.0033   37.1198  -16.1729 O   0  0  0  0  0  0  0  0  0  0  0  0
   -4.9130   37.2438  -14.0893 C   0  0  0  0  0  0  0  0  0  0  0  0
   -8.1757   35.9669  -13.7031 C   0  0  0  0  0  0  0  0  0  0  0  0
   -4.7980   35.8440  -14.3786 O   0  0  0  0  0  0  0  0  0  0  0  0
   -8.1770   35.4144  -15.0498 O   0  0  0  0  0  0  0  0  0  0  0  0
   -5.2754   38.0138  -15.3547 C   0  0  1  0  0  0  0  0  0  0  0  0
   -7.9168   34.7550  -12.7306 C   0  0  1  0  0  0  0  0  0  0  0  0
   -4.1798   38.2690  -16.0004 O   0  0  0  0  0  0  0  0  0  0  0  0
   -8.7676   33.8724  -13.0640 O   0  0  0  0  0  0  0  0  0  0  0  0
   -6.1607   37.2302  -16.2964 C   0  0  1  0  0  0  0  0  0  0  0  0
   -6.5751   34.0667  -13.0517 C   0  0  1  0  0  0  0  0  0  0  0  0
   -7.4294   37.6772  -16.0996 O   0  0  0  0  0  0  0  0  0  0  0  0
   -5.6193   34.4344  -12.1898 O   0  0  0  0  0  0  0  0  0  0  0  0
   -5.6494   37.6507  -17.7183 C   0  0  1  0  0  0  0  0  0  0  0  0
   -6.8256   32.5425  -12.9919 C   0  0  1  0  0  0  0  0  0  0  0  0
   -6.5695   38.6557  -18.3156 O   0  0  0  0  0  0  0  0  0  0  0  0
   -6.3034   31.9751  -11.7071 O   0  0  0  0  0  0  0  0  0  0  0  0
   -4.4639   38.1444  -17.5552 C   0  0  2  0  0  0  0  0  0  0  0  0
   -8.1075   32.4148  -13.0308 C   0  0  2  0  0  0  0  0  0  0  0  0
   -1.8391   33.5353  -18.3845 N   0  0  0  0  0  0  0  0  0  0  0  0
   -2.8796   33.7133  -17.5226 C   0  0  0  0  0  0  0  0  0  0  0  0
   -3.4858   34.9359  -17.3840 N   0  0  0  0  0  0  0  0  0  0  0  0
   -3.0301   35.9905  -18.1259 C   0  0  0  0  0  0  0  0  0  0  0  0
   -2.0031   35.8326  -18.9724 C   0  0  0  0  0  0  0  0  0  0  0  0
   -1.3988   34.5846  -19.1142 C   0  0  0  0  0  0  0  0  0  0  0  0
   -0.3164   34.2869  -19.9656 N   0  0  0  0  0  0  0  0  0  0  0  0
   -1.7715   37.0216  -19.5682 N   0  0  0  0  0  0  0  0  0  0  0  0
   -2.6678   37.9209  -19.0710 C   0  0  0  0  0  0  0  0  0  0  0  0
   -3.4555   37.2836  -18.1950 N   0  0  0  0  0  0  0  0  0  0  0  0
  -10.2417   28.0906  -14.9973 N   0  0  0  0  0  0  0  0  0  0  0  0
   -9.9658   28.3409  -13.6905 C   0  0  0  0  0  0  0  0  0  0  0  0
   -9.3943   29.5308  -13.3374 N   0  0  0  0  0  0  0  0  0  0  0  0
   -9.1082   30.4620  -14.2870 C   0  0  0  0  0  0  0  0  0  0  0  0
   -9.3833   30.2223  -15.5851 C   0  0  0  0  0  0  0  0  0  0  0  0
   -9.9618   29.0061  -15.9363 C   0  0  0  0  0  0  0  0  0  0  0  0
  -10.3199   28.5345  -17.2495 N   0  0  0  0  0  0  0  0  0  0  0  0
   -8.9927   31.3113  -16.2897 N   0  0  0  0  0  0  0  0  0  0  0  0
   -8.4805   32.2246  -15.4158 C   0  0  0  0  0  0  0  0  0  0  0  0
   -8.5592   31.6912  -14.1799 N   0  0  0  0  0  0  0  0  0  0  0  0
  1  3  1  1  0  0  0
  1  5  2  0  0  0  0
  1  9  1  0  0  0  0
  1 18  1  0  0  0  0
  2  4  1  6  0  0  0
  2  6  2  0  0  0  0
  2 10  1  0  0  0  0
  2 17  1  0  0  0  0
  7  9  1  0  0  0  0
  8 10  1  0  0  0  0
 11  7  1  1  0  0  0
 11 13  1  0  0  0  0
 11 15  1  0  0  0  0
 12  8  1  6  0  0  0
 12 14  1  0  0  0  0
 12 16  1  0  0  0  0
 13 23  1  0  0  0  0
 14 24  1  0  0  0  0
 15 17  1  6  0  0  0
 15 19  1  0  0  0  0
 16 18  1  1  0  0  0
 16 20  1  0  0  0  0
 19 21  1  1  0  0  0
 19 23  1  0  0  0  0
 20 22  1  1  0  0  0
 20 24  1  0  0  0  0
 23 34  1  1  0  0  0
 24 44  1  6  0  0  0
 25 26  2  0  0  0  0
 25 30  1  0  0  0  0
 26 27  1  0  0  0  0
 27 28  2  0  0  0  0
 28 29  1  0  0  0  0
 28 34  1  0  0  0  0
 29 30  2  0  0  0  0
 29 32  1  0  0  0  0
 30 31  1  0  0  0  0
 32 33  2  0  0  0  0
 33 34  1  0  0  0  0
 35 36  2  0  0  0  0
 35 40  1  0  0  0  0
 36 37  1  0  0  0  0
 37 38  2  0  0  0  0
 38 39  1  0  0  0  0
 38 44  1  0  0  0  0
 39 40  2  0  0  0  0
 39 42  1  0  0  0  0
 40 41  1  0  0  0  0
 42 43  2  0  0  0  0
 43 44  1  0  0  0  0
M  CHG  2   3  -1   4  -1
M  END
>  <CHROM.1>
62.07777228,-129.21743970,-6.20423447,34.53282834,-15.55842012,0.63060204
0.65677594,0.18691986

>  <Name>
ligand

>  <RI>
0

>  <Rbt.Current_Directory>
/home/itssahil/PROJECTS/Mol_Feturizer/New_Systems/rnas/4QLM

>  <Rbt.Executable>
rbdock ($Id: //depot/dev/client3/rdock/2013.1/src/exe/rbdock.cxx#4 $)

>  <Rbt.Library>
libRbt.so (2013.1, Build901 2013/11/27)

>  <Rbt.Parameter_File>
/export/apps/rDock/src/rDock_2013.1_src/data/scripts/dock_solv.prm

>  <Rbt.Receptor>
prm/pocket_docking_3.prm

>  <SCORE>
-18.0783

>  <SCORE.INTER>
-17.149

>  <SCORE.INTER.CONST>
1

>  <SCORE.INTER.POLAR>
0

>  <SCORE.INTER.ROT>
2

>  <SCORE.INTER.SOLV>
34.5375

>  <SCORE.INTER.VDW>
-27.8785

>  <SCORE.INTER.norm>
-0.389749

>  <SCORE.INTRA>
-0.929319

>  <SCORE.INTRA.DIHEDRAL>
0.0547981

>  <SCORE.INTRA.DIHEDRAL.0>
2.32994

>  <SCORE.INTRA.POLAR>
0

>  <SCORE.INTRA.POLAR.0>
0

>  <SCORE.INTRA.REPUL>
0

>  <SCORE.INTRA.REPUL.0>
0

>  <SCORE.INTRA.SOLV>
0.0598344

>  <SCORE.INTRA.SOLV.lig_0>
-117.703

>  <SCORE.INTRA.VDW>
-0.986635

>  <SCORE.INTRA.VDW.0>
-1.59997

>  <SCORE.INTRA.norm>
-0.0211209

>  <SCORE.RESTR>
0

>  <SCORE.RESTR.CAVITY>
0

>  <SCORE.RESTR.norm>
0

>  <SCORE.SYSTEM>
0

>  <SCORE.SYSTEM.CONST>
0

>  <SCORE.SYSTEM.DIHEDRAL>
0

>  <SCORE.SYSTEM.SOLV>
0

>  <SCORE.SYSTEM.norm>
0

>  <SCORE.heavy>
44

>  <SCORE.norm>
-0.41087

>  <RMSD>
1.643

$$$$
ligand
 OpenBabel11021811513D
libRbt.so/2013.1/901 2013/11/27
 44 50  0  0  0  0  0  0  0  0999 V2000
   -4.3789   34.9410  -13.1760 P   0  0  2  0  0  0  0  0  0  0  0  0
   -8.5713   36.5334  -16.1915 P   0  0  1  0  0  0  0  0  0  0  0  0
   -3.5202   35.8345  -12.2845 O   0  5  0  0  0  0  0  0  0  0  0  0
   -8.4005   35.8104  -17.5054 O   0  5  0  0  0  0  0  0  0  0  0  0
   -3.5055   33.7719  -13.5632 O   0  0  0  0  0  0  0  0  0  0  0  0
   -9.9993   37.1246  -16.1728 O   0  0  0  0  0  0  0  0  0  0  0  0
   -4.9085   37.2485  -14.0904 C   0  0  0  0  0  0  0  0  0  0  0  0
   -8.1715   35.9728  -13.7027 C   0  0  0  0  0  0  0  0  0  0  0  0
   -4.7940   35.8485  -14.3788 O   0  0  0  0  0  0  0  0  0  0  0  0
   -8.1733   35.4194  -15.0489 O   0  0  0  0  0  0  0  0  0  0  0  0
   -5.2710   38.0177  -15.3563 C   0  0  1  0  0  0  0  0  0  0  0  0
   -7.9128   34.7615  -12.7294 C   0  0  1  0  0  0  0  0  0  0  0  0
   -4.1754   38.2722  -16.0023 O   0  0  0  0  0  0  0  0  0  0  0  0
   -8.7639   33.8789  -13.0620 O   0  0  0  0  0  0  0  0  0  0  0  0
   -6.1567   37.2338  -16.2972 C   0  0  1  0  0  0  0  0  0  0  0  0
   -6.5714   34.0725  -13.0504 C   0  0  1  0  0  0  0  0  0  0  0  0
   -7.4253   37.6813  -16.1005 O   0  0  0  0  0  0  0  0  0  0  0  0
   -5.6152   34.4405  -12.1889 O   0  0  0  0  0  0  0  0  0  0  0  0
   -5.6455   37.6532  -17.7195 C   0  0  1  0  0  0  0  0  0  0  0  0
   -6.8223   32.5485  -12.9894 C   0  0  1  0  0  0  0  0  0  0  0  0
   -6.5655   38.6581  -18.3172 O   0  0  0  0  0  0  0  0  0  0  0  0
   -6.3000   31.9818  -11.7045 O   0  0  0  0  0  0  0  0  0  0  0  0
   -4.4599   38.1467  -17.5569 C   0  0  2  0  0  0  0  0  0  0  0  0
   -8.1042   32.4211  -13.0281 C   0  0  2  0  0  0  0  0  0  0  0  0
   -1.8369   33.5361  -18.3840 N   0  0  0  0  0  0  0  0  0  0  0  0
   -2.8772   33.7150  -17.5221 C   0  0  0  0  0  0  0  0  0  0  0  0
   -3.4830   34.9379  -17.3841 N   0  0  0  0  0  0  0  0  0  0  0  0
   -3.0270   35.9919  -18.1266 C   0  0  0  0  0  0  0  0  0  0  0  0
   -2.0001   35.8332  -18.9732 C   0  0  0  0  0  0  0  0  0  0  0  0
   -1.3963   34.5849  -19.1144 C   0  0  0  0  0  0  0  0  0  0  0  0
   -0.3142   34.2862  -19.9657 N   0  0  0  0  0  0  0  0  0  0  0  0
   -1.7682   37.0217  -19.5697 N   0  0  0  0  0  0  0  0  0  0  0  0
   -2.6640   37.9216  -19.0729 C   0  0  0  0  0  0  0  0  0  0  0  0
   -3.4519   37.2851  -18.1964 N   0  0  0  0  0  0  0  0  0  0  0  0
  -10.2562   28.1034  -14.9893 N   0  0  0  0  0  0  0  0  0  0  0  0
   -9.9829   28.3557  -13.6824 C   0  0  0  0  0  0  0  0  0  0  0  0
   -9.4059   29.5435  -13.3308 N   0  0  0  0  0  0  0  0  0  0  0  0
   -9.1118   30.4704  -14.2820 C   0  0  0  0  0  0  0  0  0  0  0  0
   -9.3843   30.2288  -15.5802 C   0  0  0  0  0  0  0  0  0  0  0  0
   -9.9684   29.0148  -15.9300 C   0  0  0  0  0  0  0  0  0  0  0  0
  -10.3251   28.5417  -17.2430 N   0  0  0  0  0  0  0  0  0  0  0  0
   -8.9855   31.3137  -16.2866 N   0  0  0  0  0  0  0  0  0  0  0  0
   -8.4711   32.2265  -15.4136 C   0  0  0  0  0  0  0  0  0  0  0  0
   -8.5564   31.6969  -14.1766 N   0  0  0  0  0  0  0  0  0  0  0  0
  1  3  1  1  0  0  0
  1  5  2  0  0  0  0
  1  9  1  0  0  0  0
  1 18  1  0  0  0  0
  2  4  1  6  0  0  0
  2  6  2  0  0  0  0
  2 10  1  0  0  0  0
  2 17  1  0  0  0  0
  7  9  1  0  0  0  0
  8 10  1  0  0  0  0
 11  7  1  1  0  0  0
 11 13  1  0  0  0  0
 11 15  1  0  0  0  0
 12  8  1  6  0  0  0
 12 14  1  0  0  0  0
 12 16  1  0  0  0  0
 13 23  1  0  0  0  0
 14 24  1  0  0  0  0
 15 17  1  6  0  0  0
 15 19  1  0  0  0  0
 16 18  1  1  0  0  0
 16 20  1  0  0  0  0
 19 21  1  1  0  0  0
 19 23  1  0  0  0  0
 20 22  1  1  0  0  0
 20 24  1  0  0  0  0
 23 34  1  1  0  0  0
 24 44  1  6  0  0  0
 25 26  2  0  0  0  0
 25 30  1  0  0  0  0
 26 27  1  0  0  0  0
 27 28  2  0  0  0  0
 28 29  1  0  0  0  0
 28 34  1  0  0  0  0
 29 30  2  0  0  0  0
 29 32  1  0  0  0  0
 30 31  1  0  0  0  0
 32 33  2  0  0  0  0
 33 34  1  0  0  0  0
 35 36  2  0  0  0  0
 35 40  1  0  0  0  0
 36 37  1  0  0  0  0
 37 38  2  0  0  0  0
 38 39  1  0  0  0  0
 38 44  1  0  0  0  0
 39 40  2  0  0  0  0
 39 42  1  0  0  0  0
 40 41  1  0  0  0  0
 42 43  2  0  0  0  0
 43 44  1  0  0  0  0
M  CHG  2   3  -1   4  -1
M  END
>  <CHROM.1>
62.08743661,-128.84652172,-6.20214788,34.53746061,-15.55732359,0.62838493
0.65724276,0.18825308

>  <Name>
ligand

>  <RI>
0

>  <Rbt.Current_Directory>
/home/itssahil/PROJECTS/Mol_Feturizer/New_Systems/rnas/4QLM

>  <Rbt.Executable>
rbdock ($Id: //depot/dev/client3/rdock/2013.1/src/exe/rbdock.cxx#4 $)

>  <Rbt.Library>
libRbt.so (2013.1, Build901 2013/11/27)

>  <Rbt.Parameter_File>
/export/apps/rDock/src/rDock_2013.1_src/data/scripts/dock_solv.prm

>  <Rbt.Receptor>
prm/pocket_docking_3.prm

>  <SCORE>
-18.0845

>  <SCORE.INTER>
-17.1593

>  <SCORE.INTER.CONST>
1

>  <SCORE.INTER.POLAR>
0

>  <SCORE.INTER.ROT>
2

>  <SCORE.INTER.SOLV>
34.5197

>  <SCORE.INTER.VDW>
-27.8794

>  <SCORE.INTER.norm>
-0.389984

>  <SCORE.INTRA>
-0.925209

>  <SCORE.INTRA.DIHEDRAL>
0.0545592

>  <SCORE.INTRA.DIHEDRAL.0>
2.32994

>  <SCORE.INTRA.POLAR>
0

>  <SCORE.INTRA.POLAR.0>
0

>  <SCORE.INTRA.REPUL>
0

>  <SCORE.INTRA.REPUL.0>
0

>  <SCORE.INTRA.SOLV>
0.0596432

>  <SCORE.INTRA.SOLV.lig_0>
-117.703

>  <SCORE.INTRA.VDW>
-0.98231

>  <SCORE.INTRA.VDW.0>
-1.59997

>  <SCORE.INTRA.norm>
-0.0210275

>  <SCORE.RESTR>
0

>  <SCORE.RESTR.CAVITY>
0

>  <SCORE.RESTR.norm>
0

>  <SCORE.SYSTEM>
0

>  <SCORE.SYSTEM.CONST>
0

>  <SCORE.SYSTEM.DIHEDRAL>
0

>  <SCORE.SYSTEM.SOLV>
0

>  <SCORE.SYSTEM.norm>
0

>  <SCORE.heavy>
44

>  <SCORE.norm>
-0.411012

>  <RMSD>
1.646

$$$$
ligand
 OpenBabel11021811513D
libRbt.so/2013.1/901 2013/11/27
 44 50  0  0  0  0  0  0  0  0999 V2000
   -9.9069   35.1303  -16.2054 P   0  0  2  0  0  0  0  0  0  0  0  0
   -5.8992   34.4282  -12.6487 P   0  0  1  0  0  0  0  0  0  0  0  0
  -11.3276   35.5863  -15.8825 O   0  5  0  0  0  0  0  0  0  0  0  0
   -5.2314   33.1407  -13.0663 O   0  5  0  0  0  0  0  0  0  0  0  0
  -10.0043   34.3256  -17.4792 O   0  0  0  0  0  0  0  0  0  0  0  0
   -4.9655   35.1230  -11.6315 O   0  0  0  0  0  0  0  0  0  0  0  0
  -10.0403   34.6846  -13.7105 C   0  0  0  0  0  0  0  0  0  0  0  0
   -6.9830   36.4323  -13.8640 C   0  0  0  0  0  0  0  0  0  0  0  0
   -9.4566   34.2977  -14.9618 O   0  0  0  0  0  0  0  0  0  0  0  0
   -6.2284   35.2034  -14.0613 O   0  0  0  0  0  0  0  0  0  0  0  0
   -9.5529   33.7643  -12.5965 C   0  0  1  0  0  0  0  0  0  0  0  0
   -7.0913   37.1143  -15.2799 C   0  0  1  0  0  0  0  0  0  0  0  0
  -10.3062   32.7084  -12.5859 O   0  0  0  0  0  0  0  0  0  0  0  0
   -5.9013   37.1532  -15.7230 O   0  0  0  0  0  0  0  0  0  0  0  0
   -8.1347   33.2827  -12.7989 C   0  0  1  0  0  0  0  0  0  0  0  0
   -7.7950   36.1840  -16.2881 C   0  0  1  0  0  0  0  0  0  0  0  0
   -7.3448   34.0559  -12.0074 O   0  0  0  0  0  0  0  0  0  0  0  0
   -9.0724   36.5398  -16.4712 O   0  0  0  0  0  0  0  0  0  0  0  0
   -8.1661   31.8088  -12.2632 C   0  0  1  0  0  0  0  0  0  0  0  0
   -6.9969   36.2662  -17.6093 C   0  0  1  0  0  0  0  0  0  0  0  0
   -7.5763   31.7484  -10.8987 O   0  0  0  0  0  0  0  0  0  0  0  0
   -7.7056   37.1427  -18.5966 O   0  0  0  0  0  0  0  0  0  0  0  0
   -9.4085   31.4456  -12.2495 C   0  0  2  0  0  0  0  0  0  0  0  0
   -5.8715   36.8038  -17.2846 C   0  0  2  0  0  0  0  0  0  0  0  0
   -9.2621   29.2158  -17.1308 N   0  0  0  0  0  0  0  0  0  0  0  0
   -8.7784   30.4474  -16.8049 C   0  0  0  0  0  0  0  0  0  0  0  0
   -8.8635   30.9274  -15.5228 N   0  0  0  0  0  0  0  0  0  0  0  0
   -9.4481   30.1508  -14.5609 C   0  0  0  0  0  0  0  0  0  0  0  0
   -9.9349   28.9403  -14.8677 C   0  0  0  0  0  0  0  0  0  0  0  0
   -9.8359   28.4562  -16.1709 C   0  0  0  0  0  0  0  0  0  0  0  0
  -10.3052   27.2067  -16.6220 N   0  0  0  0  0  0  0  0  0  0  0  0
  -10.4438   28.4010  -13.7397 N   0  0  0  0  0  0  0  0  0  0  0  0
  -10.2708   29.3010  -12.7301 C   0  0  0  0  0  0  0  0  0  0  0  0
   -9.6419   30.3727  -13.2301 N   0  0  0  0  0  0  0  0  0  0  0  0
   -1.4727   35.8882  -19.9177 N   0  0  0  0  0  0  0  0  0  0  0  0
   -2.2946   36.9617  -20.0535 C   0  0  0  0  0  0  0  0  0  0  0  0
   -3.4224   37.0493  -19.2868 N   0  0  0  0  0  0  0  0  0  0  0  0
   -3.7182   36.0712  -18.3889 C   0  0  0  0  0  0  0  0  0  0  0  0
   -2.9048   35.0053  -18.2455 C   0  0  0  0  0  0  0  0  0  0  0  0
   -1.7603   34.9221  -19.0332 C   0  0  0  0  0  0  0  0  0  0  0  0
   -0.7703   33.8761  -19.0609 N   0  0  0  0  0  0  0  0  0  0  0  0
   -3.4472   34.2069  -17.2951 N   0  0  0  0  0  0  0  0  0  0  0  0
   -4.5966   34.7913  -16.8509 C   0  0  0  0  0  0  0  0  0  0  0  0
   -4.7537   35.9448  -17.5312 N   0  0  0  0  0  0  0  0  0  0  0  0
  1  3  1  1  0  0  0
  1  5  2  0  0  0  0
  1  9  1  0  0  0  0
  1 18  1  0  0  0  0
  2  4  1  6  0  0  0
  2  6  2  0  0  0  0
  2 10  1  0  0  0  0
  2 17  1  0  0  0  0
  7  9  1  0  0  0  0
  8 10  1  0  0  0  0
 11  7  1  6  0  0  0
 11 13  1  0  0  0  0
 11 15  1  0  0  0  0
 12  8  1  1  0  0  0
 12 14  1  0  0  0  0
 12 16  1  0  0  0  0
 13 23  1  0  0  0  0
 14 24  1  0  0  0  0
 15 17  1  1  0  0  0
 15 19  1  0  0  0  0
 16 18  1  6  0  0  0
 16 20  1  0  0  0  0
 19 21  1  1  0  0  0
 19 23  1  0  0  0  0
 20 22  1  6  0  0  0
 20 24  1  0  0  0  0
 23 34  1  6  0  0  0
 24 44  1  1  0  0  0
 25 26  2  0  0  0  0
 25 30  1  0  0  0  0
 26 27  1  0  0  0  0
 27 28  2  0  0  0  0
 28 29  1  0  0  0  0
 28 34  1  0  0  0  0
 29 30  2  0  0  0  0
 29 32  1  0  0  0  0
 30 31  1  0  0  0  0
 32 33  2  0  0  0  0
 33 34  1  0  0  0  0
 35 36  2  0  0  0  0
 35 40  1  0  0  0  0
 36 37  1  0  0  0  0
 37 38  2  0  0  0  0
 38 39  1  0  0  0  0
 38 44  1  0  0  0  0
 39 40  2  0  0  0  0
 39 42  1  0  0  0  0
 40 41  1  0  0  0  0
 42 43  2  0  0  0  0
 43 44  1  0  0  0  0
M  CHG  2   3  -1   4  -1
M  END
>  <CHROM.1>
65.56731518,-124.62128553,-7.28371736,33.81545278,-15.40320087,2.91529541
-0.83526207,-2.54873353

>  <Name>
ligand

>  <RI>
0

>  <Rbt.Current_Directory>
/home/itssahil/PROJECTS/Mol_Feturizer/New_Systems/rnas/4QLM

>  <Rbt.Executable>
rbdock ($Id: //depot/dev/client3/rdock/2013.1/src/exe/rbdock.cxx#4 $)

>  <Rbt.Library>
libRbt.so (2013.1, Build901 2013/11/27)

>  <Rbt.Parameter_File>
/export/apps/rDock/src/rDock_2013.1_src/data/scripts/dock_solv.prm

>  <Rbt.Receptor>
prm/pocket_docking_4.prm

>  <SCORE>
-7.09066

>  <SCORE.INTER>
-6.47008

>  <SCORE.INTER.CONST>
1

>  <SCORE.INTER.POLAR>
0

>  <SCORE.INTER.ROT>
2

>  <SCORE.INTER.SOLV>
34.0592

>  <SCORE.INTER.VDW>
-20.5998

>  <SCORE.INTER.norm>
-0.147047

>  <SCORE.INTRA>
-0.844822

>  <SCORE.INTRA.DIHEDRAL>
0.0340566

>  <SCORE.INTRA.DIHEDRAL.0>
2.32994

>  <SCORE.INTRA.POLAR>
0

>  <SCORE.INTRA.POLAR.0>
0

>  <SCORE.INTRA.REPUL>
0

>  <SCORE.INTRA.REPUL.0>
0

>  <SCORE.INTRA.SOLV>
0.000759933

>  <SCORE.INTRA.SOLV.lig_0>
-117.703

>  <SCORE.INTRA.VDW>
-0.862231

>  <SCORE.INTRA.VDW.0>
-1.59997

>  <SCORE.INTRA.norm>
-0.0192005

>  <SCORE.RESTR>
0.224242

>  <SCORE.RESTR.CAVITY>
0.224242

>  <SCORE.RESTR.norm>
0.0050964

>  <SCORE.SYSTEM>
0

>  <SCORE.SYSTEM.CONST>
0

>  <SCORE.SYSTEM.DIHEDRAL>
0

>  <SCORE.SYSTEM.SOLV>
0

>  <SCORE.SYSTEM.norm>
0

>  <SCORE.heavy>
44

>  <SCORE.norm>
-0.161151

>  <RMSD>
1.647

$$$$
ligand
 OpenBabel11021811513D
libRbt.so/2013.1/901 2013/11/27
 44 50  0  0  0  0  0  0  0  0999 V2000
   -6.6504   34.9964  -12.5799 P   0  0  2  0  0  0  0  0  0  0  0  0
  -10.2645   35.2865  -16.5874 P   0  0  1  0  0  0  0  0  0  0  0  0
   -6.0733   36.1757  -11.8010 O   0  5  0  0  0  0  0  0  0  0  0  0
   -9.7668   34.3145  -17.6292 O   0  5  0  0  0  0  0  0  0  0  0  0
   -5.6171   33.8982  -12.5043 O   0  0  0  0  0  0  0  0  0  0  0  0
  -11.7127   35.6693  -16.9684 O   0  0  0  0  0  0  0  0  0  0  0  0
   -7.1837   36.9443  -14.1171 C   0  0  0  0  0  0  0  0  0  0  0  0
  -10.3322   35.3631  -14.0071 C   0  0  0  0  0  0  0  0  0  0  0  0
   -6.8902   35.5437  -14.0241 O   0  0  0  0  0  0  0  0  0  0  0  0
  -10.0110   34.5241  -15.1523 O   0  0  0  0  0  0  0  0  0  0  0  0
   -7.3470   37.3509  -15.5777 C   0  0  1  0  0  0  0  0  0  0  0  0
  -10.1715   34.4498  -12.7337 C   0  0  1  0  0  0  0  0  0  0  0  0
   -6.1695   37.5972  -16.0628 O   0  0  0  0  0  0  0  0  0  0  0  0
  -10.8561   33.4087  -12.9817 O   0  0  0  0  0  0  0  0  0  0  0  0
   -7.9501   36.2626  -16.4357 C   0  0  1  0  0  0  0  0  0  0  0  0
   -8.7376   33.8926  -12.6317 C   0  0  1  0  0  0  0  0  0  0  0  0
   -9.2665   36.5685  -16.5833 O   0  0  0  0  0  0  0  0  0  0  0  0
   -8.0130   34.5712  -11.7337 O   0  0  0  0  0  0  0  0  0  0  0  0
   -7.1990   36.4137  -17.8043 C   0  0  1  0  0  0  0  0  0  0  0  0
   -8.8606   32.4025  -12.2397 C   0  0  1  0  0  0  0  0  0  0  0  0
   -8.0627   37.1242  -18.7854 O   0  0  0  0  0  0  0  0  0  0  0  0
   -8.5631   32.2169  -10.7829 O   0  0  0  0  0  0  0  0  0  0  0  0
   -6.1193   37.0858  -17.5627 C   0  0  2  0  0  0  0  0  0  0  0  0
  -10.0915   32.0987  -12.4711 C   0  0  2  0  0  0  0  0  0  0  0  0
   -1.4740   35.7614  -19.9053 N   0  0  0  0  0  0  0  0  0  0  0  0
   -2.2099   36.8766  -20.1738 C   0  0  0  0  0  0  0  0  0  0  0  0
   -3.3878   37.1255  -19.5165 N   0  0  0  0  0  0  0  0  0  0  0  0
   -3.8257   36.2322  -18.5782 C   0  0  0  0  0  0  0  0  0  0  0  0
   -3.1166   35.1273  -18.3084 C   0  0  0  0  0  0  0  0  0  0  0  0
   -1.9159   34.8867  -18.9741 C   0  0  0  0  0  0  0  0  0  0  0  0
   -1.0796   33.7690  -18.7838 N   0  0  0  0  0  0  0  0  0  0  0  0
   -3.7729   34.4379  -17.3512 N   0  0  0  0  0  0  0  0  0  0  0  0
   -4.9047   35.1306  -17.0376 C   0  0  0  0  0  0  0  0  0  0  0  0
   -4.9305   36.2452  -17.7800 N   0  0  0  0  0  0  0  0  0  0  0  0
   -8.7001   30.2020  -17.1173 N   0  0  0  0  0  0  0  0  0  0  0  0
   -8.2453   31.3417  -16.5336 C   0  0  0  0  0  0  0  0  0  0  0  0
   -8.7193   31.7060  -15.3048 N   0  0  0  0  0  0  0  0  0  0  0  0
   -9.6366   30.9302  -14.6666 C   0  0  0  0  0  0  0  0  0  0  0  0
  -10.0890   29.7956  -15.2378 C   0  0  0  0  0  0  0  0  0  0  0  0
   -9.6038   29.4341  -16.4913 C   0  0  0  0  0  0  0  0  0  0  0  0
   -9.9574   28.2874  -17.2882 N   0  0  0  0  0  0  0  0  0  0  0  0
  -10.9830   29.2411  -14.3844 N   0  0  0  0  0  0  0  0  0  0  0  0
  -11.0734   30.0392  -13.2822 C   0  0  0  0  0  0  0  0  0  0  0  0
  -10.2349   31.0792  -13.4651 N   0  0  0  0  0  0  0  0  0  0  0  0
  1  3  1  1  0  0  0
  1  5  2  0  0  0  0
  1  9  1  0  0  0  0
  1 18  1  0  0  0  0
  2  4  1  6  0  0  0
  2  6  2  0  0  0  0
  2 10  1  0  0  0  0
  2 17  1  0  0  0  0
  7  9  1  0  0  0  0
  8 10  1  0  0  0  0
 11  7  1  1  0  0  0
 11 13  1  0  0  0  0
 11 15  1  0  0  0  0
 12  8  1  6  0  0  0
 12 14  1  0  0  0  0
 12 16  1  0  0  0  0
 13 23  1  0  0  0  0
 14 24  1  0  0  0  0
 15 17  1  6  0  0  0
 15 19  1  0  0  0  0
 16 18  1  1  0  0  0
 16 20  1  0  0  0  0
 19 21  1  6  0  0  0
 19 23  1  0  0  0  0
 20 22  1  1  0  0  0
 20 24  1  0  0  0  0
 23 34  1  1  0  0  0
 24 44  1  6  0  0  0
 25 26  2  0  0  0  0
 25 30  1  0  0  0  0
 26 27  1  0  0  0  0
 27 28  2  0  0  0  0
 28 29  1  0  0  0  0
 28 34  1  0  0  0  0
 29 30  2  0  0  0  0
 29 32  1  0  0  0  0
 30 31  1  0  0  0  0
 32 33  2  0  0  0  0
 33 34  1  0  0  0  0
 35 36  2  0  0  0  0
 35 40  1  0  0  0  0
 36 37  1  0  0  0  0
 37 38  2  0  0  0  0
 38 39  1  0  0  0  0
 38 44  1  0  0  0  0
 39 40  2  0  0  0  0
 39 42  1  0  0  0  0
 40 41  1  0  0  0  0
 42 43  2  0  0  0  0
 43 44  1  0  0  0  0
M  CHG  2   3  -1   4  -1
M  END
>  <CHROM.1>
-121.08597784,74.98846910,-7.60143591,34.24726484,-15.55581592,3.12775207
-0.78903540,-2.41336650

>  <Name>
ligand

>  <RI>
0

>  <Rbt.Current_Directory>
/home/itssahil/PROJECTS/Mol_Feturizer/New_Systems/rnas/4QLM

>  <Rbt.Executable>
rbdock ($Id: //depot/dev/client3/rdock/2013.1/src/exe/rbdock.cxx#4 $)

>  <Rbt.Library>
libRbt.so (2013.1, Build901 2013/11/27)

>  <Rbt.Parameter_File>
/export/apps/rDock/src/rDock_2013.1_src/data/scripts/dock_solv.prm

>  <Rbt.Receptor>
prm/pocket_docking_3.prm

>  <SCORE>
-3.17583

>  <SCORE.INTER>
-3.26954

>  <SCORE.INTER.CONST>
1

>  <SCORE.INTER.POLAR>
0

>  <SCORE.INTER.ROT>
2

>  <SCORE.INTER.SOLV>
35.6379

>  <SCORE.INTER.VDW>
-18.9923

>  <SCORE.INTER.norm>
-0.0743078

>  <SCORE.INTRA>
-0.116181

>  <SCORE.INTRA.DIHEDRAL>
0.0808555

>  <SCORE.INTRA.DIHEDRAL.0>
2.32994

>  <SCORE.INTRA.POLAR>
0

>  <SCORE.INTRA.POLAR.0>
0

>  <SCORE.INTRA.REPUL>
0

>  <SCORE.INTRA.REPUL.0>
0

>  <SCORE.INTRA.SOLV>
0.354686

>  <SCORE.INTRA.SOLV.lig_0>
-117.703

>  <SCORE.INTRA.VDW>
-0.333952

>  <SCORE.INTRA.VDW.0>
-1.59997

>  <SCORE.INTRA.norm>
-0.00264048

>  <SCORE.RESTR>
0.209892

>  <SCORE.RESTR.CAVITY>
0.209892

>  <SCORE.RESTR.norm>
0.00477028

>  <SCORE.SYSTEM>
0

>  <SCORE.SYSTEM.CONST>
0

>  <SCORE.SYSTEM.DIHEDRAL>
0

>  <SCORE.SYSTEM.SOLV>
0

>  <SCORE.SYSTEM.norm>
0

>  <SCORE.heavy>
44

>  <SCORE.norm>
-0.072178

>  <RMSD>
1.655

$$$$
ligand
 OpenBabel11021811513D
libRbt.so/2013.1/901 2013/11/27
 44 50  0  0  0  0  0  0  0  0999 V2000
   -9.9118   35.0765  -16.2161 P   0  0  2  0  0  0  0  0  0  0  0  0
   -5.9175   34.3926  -12.6407 P   0  0  1  0  0  0  0  0  0  0  0  0
  -11.3373   35.5216  -15.8992 O   0  5  0  0  0  0  0  0  0  0  0  0
   -5.2386   33.1110  -13.0585 O   0  5  0  0  0  0  0  0  0  0  0  0
   -9.9971   34.2747  -17.4925 O   0  0  0  0  0  0  0  0  0  0  0  0
   -4.9940   35.0911  -11.6169 O   0  0  0  0  0  0  0  0  0  0  0  0
  -10.0549   34.6230  -13.7231 C   0  0  0  0  0  0  0  0  0  0  0  0
   -7.0092   36.3925  -13.8562 C   0  0  0  0  0  0  0  0  0  0  0  0
   -9.4620   34.2436  -14.9725 O   0  0  0  0  0  0  0  0  0  0  0  0
   -6.2449   35.1694  -14.0529 O   0  0  0  0  0  0  0  0  0  0  0  0
   -9.5667   33.7029  -12.6092 C   0  0  1  0  0  0  0  0  0  0  0  0
   -7.1150   37.0775  -15.2707 C   0  0  1  0  0  0  0  0  0  0  0  0
  -10.3126   32.6418  -12.6053 O   0  0  0  0  0  0  0  0  0  0  0  0
   -5.9230   37.1260  -15.7076 O   0  0  0  0  0  0  0  0  0  0  0  0
   -8.1441   33.2319  -12.8056 C   0  0  1  0  0  0  0  0  0  0  0  0
   -7.8070   36.1452  -16.2850 C   0  0  1  0  0  0  0  0  0  0  0  0
   -7.3637   34.0084  -12.0079 O   0  0  0  0  0  0  0  0  0  0  0  0
   -9.0859   36.4925  -16.4737 O   0  0  0  0  0  0  0  0  0  0  0  0
   -8.1679   31.7564  -12.2741 C   0  0  1  0  0  0  0  0  0  0  0  0
   -7.0028   36.2367  -17.6019 C   0  0  1  0  0  0  0  0  0  0  0  0
   -7.5847   31.6963  -10.9068 O   0  0  0  0  0  0  0  0  0  0  0  0
   -7.7125   37.1109  -18.5904 O   0  0  0  0  0  0  0  0  0  0  0  0
   -9.4078   31.3844  -12.2677 C   0  0  2  0  0  0  0  0  0  0  0  0
   -5.8828   36.7812  -17.2700 C   0  0  2  0  0  0  0  0  0  0  0  0
   -9.2421   29.1779  -17.1591 N   0  0  0  0  0  0  0  0  0  0  0  0
   -8.7747   30.4147  -16.8289 C   0  0  0  0  0  0  0  0  0  0  0  0
   -8.8634   30.8880  -15.5445 N   0  0  0  0  0  0  0  0  0  0  0  0
   -9.4349   30.0992  -14.5847 C   0  0  0  0  0  0  0  0  0  0  0  0
   -9.9056   28.8834  -14.8956 C   0  0  0  0  0  0  0  0  0  0  0  0
   -9.8030   28.4063  -16.2012 C   0  0  0  0  0  0  0  0  0  0  0  0
  -10.2560   27.1524  -16.6566 N   0  0  0  0  0  0  0  0  0  0  0  0
  -10.4044   28.3322  -13.7688 N   0  0  0  0  0  0  0  0  0  0  0  0
  -10.2415   29.2301  -12.7557 C   0  0  0  0  0  0  0  0  0  0  0  0
   -9.6286   30.3126  -13.2524 N   0  0  0  0  0  0  0  0  0  0  0  0
   -1.4829   35.8864  -19.9083 N   0  0  0  0  0  0  0  0  0  0  0  0
   -2.3151   36.9512  -20.0499 C   0  0  0  0  0  0  0  0  0  0  0  0
   -3.4415   37.0342  -19.2807 N   0  0  0  0  0  0  0  0  0  0  0  0
   -3.7258   36.0602  -18.3746 C   0  0  0  0  0  0  0  0  0  0  0  0
   -2.9022   35.0031  -18.2254 C   0  0  0  0  0  0  0  0  0  0  0  0
   -1.7591   34.9245  -19.0157 C   0  0  0  0  0  0  0  0  0  0  0  0
   -0.7595   33.8875  -19.0383 N   0  0  0  0  0  0  0  0  0  0  0  0
   -3.4346   34.2068  -17.2675 N   0  0  0  0  0  0  0  0  0  0  0  0
   -4.5881   34.7839  -16.8246 C   0  0  0  0  0  0  0  0  0  0  0  0
   -4.7577   35.9308  -17.5131 N   0  0  0  0  0  0  0  0  0  0  0  0
  1  3  1  1  0  0  0
  1  5  2  0  0  0  0
  1  9  1  0  0  0  0
  1 18  1  0  0  0  0
  2  4  1  6  0  0  0
  2  6  2  0  0  0  0
  2 10  1  0  0  0  0
  2 17  1  0  0  0  0
  7  9  1  0  0  0  0
  8 10  1  0  0  0  0
 11  7  1  6  0  0  0
 11 13  1  0  0  0  0
 11 15  1  0  0  0  0
 12  8  1  1  0  0  0
 12 14  1  0  0  0  0
 12 16  1  0  0  0  0
 13 23  1  0  0  0  0
 14 24  1  0  0  0  0
 15 17  1  1  0  0  0
 15 19  1  0  0  0  0
 16 18  1  6  0  0  0
 16 20  1  0  0  0  0
 19 21  1  1  0  0  0
 19 23  1  0  0  0  0
 20 22  1  6  0  0  0
 20 24  1  0  0  0  0
 23 34  1  6  0  0  0
 24 44  1  1  0  0  0
 25 26  2  0  0  0  0
 25 30  1  0  0  0  0
 26 27  1  0  0  0  0
 27 28  2  0  0  0  0
 28 29  1  0  0  0  0
 28 34  1  0  0  0  0
 29 30  2  0  0  0  0
 29 32  1  0  0  0  0
 30 31  1  0  0  0  0
 32 33  2  0  0  0  0
 33 34  1  0  0  0  0
 35 36  2  0  0  0  0
 35 40  1  0  0  0  0
 36 37  1  0  0  0  0
 37 38  2  0  0  0  0
 38 39  1  0  0  0  0
 38 44  1  0  0  0  0
 39 40  2  0  0  0  0
 39 42  1  0  0  0  0
 40 41  1  0  0  0  0
 42 43  2  0  0  0  0
 43 44  1  0  0  0  0
M  CHG  2   3  -1   4  -1
M  END
>  <CHROM.1>
64.98104185,-125.37710669,-7.28647490,33.77706488,-15.40623919,2.91327867
-0.83786551,-2.54274578

>  <Name>
ligand

>  <RI>
0

>  <Rbt.Current_Directory>
/home/itssahil/PROJECTS/Mol_Feturizer/New_Systems/rnas/4QLM

>  <Rbt.Executable>
rbdock ($Id: //depot/dev/client3/rdock/2013.1/src/exe/rbdock.cxx#4 $)

>  <Rbt.Library>
libRbt.so (2013.1, Build901 2013/11/27)

>  <Rbt.Parameter_File>
/export/apps/rDock/src/rDock_2013.1_src/data/scripts/dock_solv.prm

>  <Rbt.Receptor>
prm/pocket_docking_3.prm

>  <SCORE>
-7.52306

>  <SCORE.INTER>
-6.69384

>  <SCORE.INTER.CONST>
1

>  <SCORE.INTER.POLAR>
0

>  <SCORE.INTER.ROT>
2

>  <SCORE.INTER.SOLV>
34.1568

>  <SCORE.INTER.VDW>
-20.7815

>  <SCORE.INTER.norm>
-0.152133

>  <SCORE.INTRA>
-0.860872

>  <SCORE.INTRA.DIHEDRAL>
0.0374734

>  <SCORE.INTRA.DIHEDRAL.0>
2.32994

>  <SCORE.INTRA.POLAR>
0

>  <SCORE.INTRA.POLAR.0>
0

>  <SCORE.INTRA.REPUL>
0

>  <SCORE.INTRA.REPUL.0>
0

>  <SCORE.INTRA.SOLV>
0.0058883

>  <SCORE.INTRA.SOLV.lig_0>
-117.703

>  <SCORE.INTRA.VDW>
-0.882553

>  <SCORE.INTRA.VDW.0>
-1.59997

>  <SCORE.INTRA.norm>
-0.0195653

>  <SCORE.RESTR>
0.0316542

>  <SCORE.RESTR.CAVITY>
0.0316542

>  <SCORE.RESTR.norm>
0.000719414

>  <SCORE.SYSTEM>
0

>  <SCORE.SYSTEM.CONST>
0

>  <SCORE.SYSTEM.DIHEDRAL>
0

>  <SCORE.SYSTEM.SOLV>
0

>  <SCORE.SYSTEM.norm>
0

>  <SCORE.heavy>
44

>  <SCORE.norm>
-0.170979

>  <RMSD>
1.657

$$$$
ligand
 OpenBabel11021811513D
libRbt.so/2013.1/901 2013/11/27
 44 50  0  0  0  0  0  0  0  0999 V2000
   -9.9302   35.0609  -16.2180 P   0  0  2  0  0  0  0  0  0  0  0  0
   -5.9282   34.3935  -12.6482 P   0  0  1  0  0  0  0  0  0  0  0  0
  -11.3553   35.5067  -15.9000 O   0  5  0  0  0  0  0  0  0  0  0  0
   -5.2495   33.1105  -13.0621 O   0  5  0  0  0  0  0  0  0  0  0  0
  -10.0178   34.2538  -17.4910 O   0  0  0  0  0  0  0  0  0  0  0  0
   -5.0028   35.0965  -11.6291 O   0  0  0  0  0  0  0  0  0  0  0  0
  -10.0679   34.6175  -13.7229 C   0  0  0  0  0  0  0  0  0  0  0  0
   -7.0233   36.3878  -13.8695 C   0  0  0  0  0  0  0  0  0  0  0  0
   -9.4775   34.2333  -14.9719 O   0  0  0  0  0  0  0  0  0  0  0  0
   -6.2589   35.1643  -14.0628 O   0  0  0  0  0  0  0  0  0  0  0  0
   -9.5770   33.7023  -12.6062 C   0  0  1  0  0  0  0  0  0  0  0  0
   -7.1324   37.0671  -15.2866 C   0  0  1  0  0  0  0  0  0  0  0  0
  -10.3223   32.6408  -12.5965 O   0  0  0  0  0  0  0  0  0  0  0  0
   -5.9413   37.1143  -15.7262 O   0  0  0  0  0  0  0  0  0  0  0  0
   -8.1545   33.2310  -12.8037 C   0  0  1  0  0  0  0  0  0  0  0  0
   -7.8260   36.1302  -16.2957 C   0  0  1  0  0  0  0  0  0  0  0  0
   -7.3729   34.0112  -12.0108 O   0  0  0  0  0  0  0  0  0  0  0  0
   -9.1055   36.4762  -16.4831 O   0  0  0  0  0  0  0  0  0  0  0  0
   -8.1766   31.7577  -12.2661 C   0  0  1  0  0  0  0  0  0  0  0  0
   -7.0246   36.2167  -17.6146 C   0  0  1  0  0  0  0  0  0  0  0  0
   -7.5905   31.7035  -10.8997 O   0  0  0  0  0  0  0  0  0  0  0  0
   -7.7368   37.0866  -18.6052 O   0  0  0  0  0  0  0  0  0  0  0  0
   -9.4163   31.3852  -12.2556 C   0  0  2  0  0  0  0  0  0  0  0  0
   -5.9042   36.7631  -17.2872 C   0  0  2  0  0  0  0  0  0  0  0  0
   -9.2662   29.1614  -17.1396 N   0  0  0  0  0  0  0  0  0  0  0  0
   -8.8004   30.4005  -16.8160 C   0  0  0  0  0  0  0  0  0  0  0  0
   -8.8848   30.8782  -15.5329 N   0  0  0  0  0  0  0  0  0  0  0  0
   -9.4502   30.0915  -14.5677 C   0  0  0  0  0  0  0  0  0  0  0  0
   -9.9192   28.8734  -14.8722 C   0  0  0  0  0  0  0  0  0  0  0  0
   -9.8210   28.3919  -16.1765 C   0  0  0  0  0  0  0  0  0  0  0  0
  -10.2728   27.1351  -16.6254 N   0  0  0  0  0  0  0  0  0  0  0  0
  -10.4117   28.3251  -13.7413 N   0  0  0  0  0  0  0  0  0  0  0  0
  -10.2466   29.2271  -12.7321 C   0  0  0  0  0  0  0  0  0  0  0  0
   -9.6386   30.3093  -13.2355 N   0  0  0  0  0  0  0  0  0  0  0  0
   -1.4771   35.8896  -19.8870 N   0  0  0  0  0  0  0  0  0  0  0  0
   -2.3041   36.9591  -20.0233 C   0  0  0  0  0  0  0  0  0  0  0  0
   -3.4390   37.0354  -19.2661 N   0  0  0  0  0  0  0  0  0  0  0  0
   -3.7370   36.0499  -18.3769 C   0  0  0  0  0  0  0  0  0  0  0  0
   -2.9187   34.9880  -18.2330 C   0  0  0  0  0  0  0  0  0  0  0  0
   -1.7669   34.9163  -19.0111 C   0  0  0  0  0  0  0  0  0  0  0  0
   -0.7706   33.8762  -19.0366 N   0  0  0  0  0  0  0  0  0  0  0  0
   -3.4648   34.1804  -17.2925 N   0  0  0  0  0  0  0  0  0  0  0  0
   -4.6214   34.7553  -16.8548 C   0  0  0  0  0  0  0  0  0  0  0  0
   -4.7792   35.9122  -17.5292 N   0  0  0  0  0  0  0  0  0  0  0  0
  1  3  1  1  0  0  0
  1  5  2  0  0  0  0
  1  9  1  0  0  0  0
  1 18  1  0  0  0  0
  2  4  1  6  0  0  0
  2  6  2  0  0  0  0
  2 10  1  0  0  0  0
  2 17  1  0  0  0  0
  7  9  1  0  0  0  0
  8 10  1  0  0  0  0
 11  7  1  6  0  0  0
 11 13  1  0  0  0  0
 11 15  1  0  0  0  0
 12  8  1  1  0  0  0
 12 14  1  0  0  0  0
 12 16  1  0  0  0  0
 13 23  1  0  0  0  0
 14 24  1  0  0  0  0
 15 17  1  1  0  0  0
 15 19  1  0  0  0  0
 16 18  1  6  0  0  0
 16 20  1  0  0  0  0
 19 21  1  1  0  0  0
 19 23  1  0  0  0  0
 20 22  1  6  0  0  0
 20 24  1  0  0  0  0
 23 34  1  6  0  0  0
 24 44  1  1  0  0  0
 25 26  2  0  0  0  0
 25 30  1  0  0  0  0
 26 27  1  0  0  0  0
 27 28  2  0  0  0  0
 28 29  1  0  0  0  0
 28 34  1  0  0  0  0
 29 30  2  0  0  0  0
 29 32  1  0  0  0  0
 30 31  1  0  0  0  0
 32 33  2  0  0  0  0
 33 34  1  0  0  0  0
 35 36  2  0  0  0  0
 35 40  1  0  0  0  0
 36 37  1  0  0  0  0
 37 38  2  0  0  0  0
 38 39  1  0  0  0  0
 38 44  1  0  0  0  0
 39 40  2  0  0  0  0
 39 42  1  0  0  0  0
 40 41  1  0  0  0  0
 42 43  2  0  0  0  0
 43 44  1  0  0  0  0
M  CHG  2   3  -1   4  -1
M  END
>  <CHROM.1>
64.80509686,-124.06698353,-7.30058353,33.76843341,-15.40498709,2.90888649
-0.83686040,-2.54995045

>  <Name>
ligand

>  <RI>
0

>  <Rbt.Current_Directory>
/home/itssahil/PROJECTS/Mol_Feturizer/New_Systems/rnas/4QLM

>  <Rbt.Executable>
rbdock ($Id: //depot/dev/client3/rdock/2013.1/src/exe/rbdock.cxx#4 $)

>  <Rbt.Library>
libRbt.so (2013.1, Build901 2013/11/27)

>  <Rbt.Parameter_File>
/export/apps/rDock/src/rDock_2013.1_src/data/scripts/dock_solv.prm

>  <Rbt.Receptor>
prm/pocket_docking_3.prm

>  <SCORE>
-7.51376

>  <SCORE.INTER>
-6.68817

>  <SCORE.INTER.CONST>
1

>  <SCORE.INTER.POLAR>
0

>  <SCORE.INTER.ROT>
2

>  <SCORE.INTER.SOLV>
34.2834

>  <SCORE.INTER.VDW>
-20.8199

>  <SCORE.INTER.norm>
-0.152004

>  <SCORE.INTRA>
-0.841445

>  <SCORE.INTRA.DIHEDRAL>
0.0376602

>  <SCORE.INTRA.DIHEDRAL.0>
2.32994

>  <SCORE.INTRA.POLAR>
0

>  <SCORE.INTRA.POLAR.0>
0

>  <SCORE.INTRA.REPUL>
0

>  <SCORE.INTRA.REPUL.0>
0

>  <SCORE.INTRA.SOLV>
0.00835813

>  <SCORE.INTRA.SOLV.lig_0>
-117.703

>  <SCORE.INTRA.VDW>
-0.864454

>  <SCORE.INTRA.VDW.0>
-1.59997

>  <SCORE.INTRA.norm>
-0.0191238

>  <SCORE.RESTR>
0.0158501

>  <SCORE.RESTR.CAVITY>
0.0158501

>  <SCORE.RESTR.norm>
0.000360229

>  <SCORE.SYSTEM>
0

>  <SCORE.SYSTEM.CONST>
0

>  <SCORE.SYSTEM.DIHEDRAL>
0

>  <SCORE.SYSTEM.SOLV>
0

>  <SCORE.SYSTEM.norm>
0

>  <SCORE.heavy>
44

>  <SCORE.norm>
-0.170767

>  <RMSD>
1.662

$$$$
ligand
 OpenBabel11021811513D
libRbt.so/2013.1/901 2013/11/27
 44 50  0  0  0  0  0  0  0  0999 V2000
   -9.9437   35.0786  -16.2152 P   0  0  2  0  0  0  0  0  0  0  0  0
   -5.9391   34.4174  -12.6471 P   0  0  1  0  0  0  0  0  0  0  0  0
  -11.3686   35.5246  -15.8968 O   0  5  0  0  0  0  0  0  0  0  0  0
   -5.2604   33.1339  -13.0596 O   0  5  0  0  0  0  0  0  0  0  0  0
  -10.0320   34.2696  -17.4869 O   0  0  0  0  0  0  0  0  0  0  0  0
   -5.0132   35.1222  -11.6298 O   0  0  0  0  0  0  0  0  0  0  0  0
  -10.0796   34.6389  -13.7193 C   0  0  0  0  0  0  0  0  0  0  0  0
   -7.0355   36.4097  -13.8707 C   0  0  0  0  0  0  0  0  0  0  0  0
   -9.4899   34.2530  -14.9682 O   0  0  0  0  0  0  0  0  0  0  0  0
   -6.2709   35.1861  -14.0627 O   0  0  0  0  0  0  0  0  0  0  0  0
   -9.5877   33.7255  -12.6016 C   0  0  1  0  0  0  0  0  0  0  0  0
   -7.1456   37.0868  -15.2888 C   0  0  1  0  0  0  0  0  0  0  0  0
  -10.3328   32.6639  -12.5897 O   0  0  0  0  0  0  0  0  0  0  0  0
   -5.9549   37.1336  -15.7292 O   0  0  0  0  0  0  0  0  0  0  0  0
   -8.1653   33.2543  -12.7993 C   0  0  1  0  0  0  0  0  0  0  0  0
   -7.8398   36.1483  -16.2959 C   0  0  1  0  0  0  0  0  0  0  0  0
   -7.3832   34.0358  -12.0082 O   0  0  0  0  0  0  0  0  0  0  0  0
   -9.1195   36.4937  -16.4830 O   0  0  0  0  0  0  0  0  0  0  0  0
   -8.1867   31.7818  -12.2595 C   0  0  1  0  0  0  0  0  0  0  0  0
   -7.0393   36.2330  -17.6155 C   0  0  1  0  0  0  0  0  0  0  0  0
   -7.5996   31.7297  -10.8935 O   0  0  0  0  0  0  0  0  0  0  0  0
   -7.7524   37.1012  -18.6069 O   0  0  0  0  0  0  0  0  0  0  0  0
   -9.4263   31.4090  -12.2476 C   0  0  2  0  0  0  0  0  0  0  0  0
   -5.9188   36.7801  -17.2898 C   0  0  2  0  0  0  0  0  0  0  0  0
   -9.2730   29.1754  -17.1270 N   0  0  0  0  0  0  0  0  0  0  0  0
   -8.8056   30.4144  -16.8052 C   0  0  0  0  0  0  0  0  0  0  0  0
   -8.8909   30.8948  -15.5232 N   0  0  0  0  0  0  0  0  0  0  0  0
   -9.4590   30.1109  -14.5573 C   0  0  0  0  0  0  0  0  0  0  0  0
   -9.9297   28.8930  -14.8601 C   0  0  0  0  0  0  0  0  0  0  0  0
   -9.8305   28.4087  -16.1633 C   0  0  0  0  0  0  0  0  0  0  0  0
  -10.2839   27.1519  -16.6104 N   0  0  0  0  0  0  0  0  0  0  0  0
  -10.4248   28.3478  -13.7288 N   0  0  0  0  0  0  0  0  0  0  0  0
  -10.2596   29.2514  -12.7211 C   0  0  0  0  0  0  0  0  0  0  0  0
   -9.6491   30.3316  -13.2257 N   0  0  0  0  0  0  0  0  0  0  0  0
   -1.5137   35.8846  -19.9192 N   0  0  0  0  0  0  0  0  0  0  0  0
   -2.3448   36.9501  -20.0617 C   0  0  0  0  0  0  0  0  0  0  0  0
   -3.4729   37.0332  -19.2949 N   0  0  0  0  0  0  0  0  0  0  0  0
   -3.7599   36.0585  -18.3904 C   0  0  0  0  0  0  0  0  0  0  0  0
   -2.9374   35.0006  -18.2404 C   0  0  0  0  0  0  0  0  0  0  0  0
   -1.7927   34.9220  -19.0282 C   0  0  0  0  0  0  0  0  0  0  0  0
   -0.7938   33.8842  -19.0496 N   0  0  0  0  0  0  0  0  0  0  0  0
   -3.4725   34.2039  -17.2845 N   0  0  0  0  0  0  0  0  0  0  0  0
   -4.6266   34.7814  -16.8435 C   0  0  0  0  0  0  0  0  0  0  0  0
   -4.7938   35.9291  -17.5313 N   0  0  0  0  0  0  0  0  0  0  0  0
  1  3  1  1  0  0  0
  1  5  2  0  0  0  0
  1  9  1  0  0  0  0
  1 18  1  0  0  0  0
  2  4  1  6  0  0  0
  2  6  2  0  0  0  0
  2 10  1  0  0  0  0
  2 17  1  0  0  0  0
  7  9  1  0  0  0  0
  8 10  1  0  0  0  0
 11  7  1  6  0  0  0
 11 13  1  0  0  0  0
 11 15  1  0  0  0  0
 12  8  1  1  0  0  0
 12 14  1  0  0  0  0
 12 16  1  0  0  0  0
 13 23  1  0  0  0  0
 14 24  1  0  0  0  0
 15 17  1  1  0  0  0
 15 19  1  0  0  0  0
 16 18  1  6  0  0  0
 16 20  1  0  0  0  0
 19 21  1  1  0  0  0
 19 23  1  0  0  0  0
 20 22  1  6  0  0  0
 20 24  1  0  0  0  0
 23 34  1  6  0  0  0
 24 44  1  1  0  0  0
 25 26  2  0  0  0  0
 25 30  1  0  0  0  0
 26 27  1  0  0  0  0
 27 28  2  0  0  0  0
 28 29  1  0  0  0  0
 28 34  1  0  0  0  0
 29 30  2  0  0  0  0
 29 32  1  0  0  0  0
 30 31  1  0  0  0  0
 32 33  2  0  0  0  0
 33 34  1  0  0  0  0
 35 36  2  0  0  0  0
 35 40  1  0  0  0  0
 36 37  1  0  0  0  0
 37 38  2  0  0  0  0
 38 39  1  0  0  0  0
 38 44  1  0  0  0  0
 39 40  2  0  0  0  0
 39 42  1  0  0  0  0
 40 41  1  0  0  0  0
 42 43  2  0  0  0  0
 43 44  1  0  0  0  0
M  CHG  2   3  -1   4  -1
M  END
>  <CHROM.1>
64.97123054,-124.89748466,-7.31438708,33.78634135,-15.40413134,2.91212641
-0.83935665,-2.54952326

>  <Name>
ligand

>  <RI>
0

>  <Rbt.Current_Directory>
/home/itssahil/PROJECTS/Mol_Feturizer/New_Systems/rnas/4QLM

>  <Rbt.Executable>
rbdock ($Id: //depot/dev/client3/rdock/2013.1/src/exe/rbdock.cxx#4 $)

>  <Rbt.Library>
libRbt.so (2013.1, Build901 2013/11/27)

>  <Rbt.Parameter_File>
/export/apps/rDock/src/rDock_2013.1_src/data/scripts/dock_solv.prm

>  <Rbt.Receptor>
prm/pocket_docking_4.prm

>  <SCORE>
-7.14745

>  <SCORE.INTER>
-6.53949

>  <SCORE.INTER.CONST>
1

>  <SCORE.INTER.POLAR>
0

>  <SCORE.INTER.ROT>
2

>  <SCORE.INTER.SOLV>
34.2139

>  <SCORE.INTER.VDW>
-20.6976

>  <SCORE.INTER.norm>
-0.148625

>  <SCORE.INTRA>
-0.853732

>  <SCORE.INTRA.DIHEDRAL>
0.0372615

>  <SCORE.INTRA.DIHEDRAL.0>
2.32994

>  <SCORE.INTRA.POLAR>
0

>  <SCORE.INTRA.POLAR.0>
0

>  <SCORE.INTRA.REPUL>
0

>  <SCORE.INTRA.REPUL.0>
0

>  <SCORE.INTRA.SOLV>
0.00596475

>  <SCORE.INTRA.SOLV.lig_0>
-117.703

>  <SCORE.INTRA.VDW>
-0.875345

>  <SCORE.INTRA.VDW.0>
-1.59997

>  <SCORE.INTRA.norm>
-0.019403

>  <SCORE.RESTR>
0.245764

>  <SCORE.RESTR.CAVITY>
0.245764

>  <SCORE.RESTR.norm>
0.00558555

>  <SCORE.SYSTEM>
0

>  <SCORE.SYSTEM.CONST>
0

>  <SCORE.SYSTEM.DIHEDRAL>
0

>  <SCORE.SYSTEM.SOLV>
0

>  <SCORE.SYSTEM.norm>
0

>  <SCORE.heavy>
44

>  <SCORE.norm>
-0.162442

>  <RMSD>
1.663

$$$$
ligand
 OpenBabel11021811513D
libRbt.so/2013.1/901 2013/11/27
 44 50  0  0  0  0  0  0  0  0999 V2000
   -9.9378   35.0562  -16.2021 P   0  0  2  0  0  0  0  0  0  0  0  0
   -5.9181   34.3807  -12.6537 P   0  0  1  0  0  0  0  0  0  0  0  0
  -11.3612   35.5013  -15.8760 O   0  5  0  0  0  0  0  0  0  0  0  0
   -5.2417   33.0985  -13.0738 O   0  5  0  0  0  0  0  0  0  0  0  0
  -10.0317   34.2519  -17.4764 O   0  0  0  0  0  0  0  0  0  0  0  0
   -4.9877   35.0814  -11.6377 O   0  0  0  0  0  0  0  0  0  0  0  0
  -10.0631   34.6073  -13.7073 C   0  0  0  0  0  0  0  0  0  0  0  0
   -7.0192   36.3778  -13.8652 C   0  0  0  0  0  0  0  0  0  0  0  0
   -9.4789   34.2258  -14.9601 O   0  0  0  0  0  0  0  0  0  0  0  0
   -6.2558   35.1546  -14.0650 O   0  0  0  0  0  0  0  0  0  0  0  0
   -9.5667   33.6896  -12.5952 C   0  0  1  0  0  0  0  0  0  0  0  0
   -7.1352   37.0601  -15.2803 C   0  0  1  0  0  0  0  0  0  0  0  0
  -10.3121   32.6281  -12.5840 O   0  0  0  0  0  0  0  0  0  0  0  0
   -5.9464   37.1082  -15.7256 O   0  0  0  0  0  0  0  0  0  0  0  0
   -8.1453   33.2187  -12.8007 C   0  0  1  0  0  0  0  0  0  0  0  0
   -7.8340   36.1255  -16.2879 C   0  0  1  0  0  0  0  0  0  0  0  0
   -7.3597   33.9971  -12.0100 O   0  0  0  0  0  0  0  0  0  0  0  0
   -9.1143   36.4720  -16.4682 O   0  0  0  0  0  0  0  0  0  0  0  0
   -8.1649   31.7442  -12.2663 C   0  0  1  0  0  0  0  0  0  0  0  0
   -7.0391   36.2149  -17.6106 C   0  0  1  0  0  0  0  0  0  0  0  0
   -7.5719   31.6869  -10.9030 O   0  0  0  0  0  0  0  0  0  0  0  0
   -7.7561   37.0869  -18.5957 O   0  0  0  0  0  0  0  0  0  0  0  0
   -9.4045   31.3718  -12.2504 C   0  0  2  0  0  0  0  0  0  0  0  0
   -5.9170   36.7604  -17.2876 C   0  0  2  0  0  0  0  0  0  0  0  0
   -9.2620   29.1519  -17.1364 N   0  0  0  0  0  0  0  0  0  0  0  0
   -8.7899   30.3882  -16.8112 C   0  0  0  0  0  0  0  0  0  0  0  0
   -8.8728   30.8651  -15.5278 N   0  0  0  0  0  0  0  0  0  0  0  0
   -9.4433   30.0805  -14.5638 C   0  0  0  0  0  0  0  0  0  0  0  0
   -9.9186   28.8652  -14.8699 C   0  0  0  0  0  0  0  0  0  0  0  0
   -9.8218   28.3844  -16.1746 C   0  0  0  0  0  0  0  0  0  0  0  0
  -10.2801   27.1306  -16.6252 N   0  0  0  0  0  0  0  0  0  0  0  0
  -10.4151   28.3185  -13.7400 N   0  0  0  0  0  0  0  0  0  0  0  0
  -10.2460   29.2186  -12.7298 C   0  0  0  0  0  0  0  0  0  0  0  0
   -9.6317   30.2980  -13.2315 N   0  0  0  0  0  0  0  0  0  0  0  0
   -1.5082   35.8876  -19.9185 N   0  0  0  0  0  0  0  0  0  0  0  0
   -2.3368   36.9565  -20.0496 C   0  0  0  0  0  0  0  0  0  0  0  0
   -3.4663   37.0327  -19.2843 N   0  0  0  0  0  0  0  0  0  0  0  0
   -3.7573   36.0478  -18.3923 C   0  0  0  0  0  0  0  0  0  0  0  0
   -2.9374   34.9863  -18.2535 C   0  0  0  0  0  0  0  0  0  0  0  0
   -1.7911   34.9148  -19.0398 C   0  0  0  0  0  0  0  0  0  0  0  0
   -0.7944   33.8753  -19.0717 N   0  0  0  0  0  0  0  0  0  0  0  0
   -3.4762   34.1791  -17.3085 N   0  0  0  0  0  0  0  0  0  0  0  0
   -4.6300   34.7538  -16.8630 C   0  0  0  0  0  0  0  0  0  0  0  0
   -4.7933   35.9100  -17.5371 N   0  0  0  0  0  0  0  0  0  0  0  0
  1  3  1  1  0  0  0
  1  5  2  0  0  0  0
  1  9  1  0  0  0  0
  1 18  1  0  0  0  0
  2  4  1  6  0  0  0
  2  6  2  0  0  0  0
  2 10  1  0  0  0  0
  2 17  1  0  0  0  0
  7  9  1  0  0  0  0
  8 10  1  0  0  0  0
 11  7  1  6  0  0  0
 11 13  1  0  0  0  0
 11 15  1  0  0  0  0
 12  8  1  1  0  0  0
 12 14  1  0  0  0  0
 12 16  1  0  0  0  0
 13 23  1  0  0  0  0
 14 24  1  0  0  0  0
 15 17  1  1  0  0  0
 15 19  1  0  0  0  0
 16 18  1  6  0  0  0
 16 20  1  0  0  0  0
 19 21  1  1  0  0  0
 19 23  1  0  0  0  0
 20 22  1  6  0  0  0
 20 24  1  0  0  0  0
 23 34  1  6  0  0  0
 24 44  1  1  0  0  0
 25 26  2  0  0  0  0
 25 30  1  0  0  0  0
 26 27  1  0  0  0  0
 27 28  2  0  0  0  0
 28 29  1  0  0  0  0
 28 34  1  0  0  0  0
 29 30  2  0  0  0  0
 29 32  1  0  0  0  0
 30 31  1  0  0  0  0
 32 33  2  0  0  0  0
 33 34  1  0  0  0  0
 35 36  2  0  0  0  0
 35 40  1  0  0  0  0
 36 37  1  0  0  0  0
 37 38  2  0  0  0  0
 38 39  1  0  0  0  0
 38 44  1  0  0  0  0
 39 40  2  0  0  0  0
 39 42  1  0  0  0  0
 40 41  1  0  0  0  0
 42 43  2  0  0  0  0
 43 44  1  0  0  0  0
M  CHG  2   3  -1   4  -1
M  END
>  <CHROM.1>
65.26444822,-124.28001190,-7.30351977,33.76095006,-15.40538784,2.90912936
-0.84066418,-2.55061517

>  <Name>
ligand

>  <RI>
0

>  <Rbt.Current_Directory>
/home/itssahil/PROJECTS/Mol_Feturizer/New_Systems/rnas/4QLM

>  <Rbt.Executable>
rbdock ($Id: //depot/dev/client3/rdock/2013.1/src/exe/rbdock.cxx#4 $)

>  <Rbt.Library>
libRbt.so (2013.1, Build901 2013/11/27)

>  <Rbt.Parameter_File>
/export/apps/rDock/src/rDock_2013.1_src/data/scripts/dock_solv.prm

>  <Rbt.Receptor>
prm/pocket_docking_3.prm

>  <SCORE>
-7.47085

>  <SCORE.INTER>
-6.64377

>  <SCORE.INTER.CONST>
1

>  <SCORE.INTER.POLAR>
0

>  <SCORE.INTER.ROT>
2

>  <SCORE.INTER.SOLV>
34.3764

>  <SCORE.INTER.VDW>
-20.8213

>  <SCORE.INTER.norm>
-0.150995

>  <SCORE.INTRA>
-0.8418

>  <SCORE.INTRA.DIHEDRAL>
0.0354148

>  <SCORE.INTRA.DIHEDRAL.0>
2.32994

>  <SCORE.INTRA.POLAR>
0

>  <SCORE.INTRA.POLAR.0>
0

>  <SCORE.INTRA.REPUL>
0

>  <SCORE.INTRA.REPUL.0>
0

>  <SCORE.INTRA.SOLV>
0.00340852

>  <SCORE.INTRA.SOLV.lig_0>
-117.703

>  <SCORE.INTRA.VDW>
-0.861212

>  <SCORE.INTRA.VDW.0>
-1.59997

>  <SCORE.INTRA.norm>
-0.0191318

>  <SCORE.RESTR>
0.0147143

>  <SCORE.RESTR.CAVITY>
0.0147143

>  <SCORE.RESTR.norm>
0.000334415

>  <SCORE.SYSTEM>
0

>  <SCORE.SYSTEM.CONST>
0

>  <SCORE.SYSTEM.DIHEDRAL>
0

>  <SCORE.SYSTEM.SOLV>
0

>  <SCORE.SYSTEM.norm>
0

>  <SCORE.heavy>
44

>  <SCORE.norm>
-0.169792

>  <RMSD>
1.666

$$$$
ligand
 OpenBabel11021811513D
libRbt.so/2013.1/901 2013/11/27
 44 50  0  0  0  0  0  0  0  0999 V2000
   -9.9685   35.0587  -16.2414 P   0  0  2  0  0  0  0  0  0  0  0  0
   -5.9879   34.4180  -12.6428 P   0  0  1  0  0  0  0  0  0  0  0  0
  -11.3966   35.5025  -15.9347 O   0  5  0  0  0  0  0  0  0  0  0  0
   -5.3036   33.1347  -13.0462 O   0  5  0  0  0  0  0  0  0  0  0  0
  -10.0459   34.2454  -17.5111 O   0  0  0  0  0  0  0  0  0  0  0  0
   -5.0709   35.1282  -11.6212 O   0  0  0  0  0  0  0  0  0  0  0  0
  -10.1212   34.6268  -13.7451 C   0  0  0  0  0  0  0  0  0  0  0  0
   -7.0800   36.4039  -13.8806 C   0  0  0  0  0  0  0  0  0  0  0  0
   -9.5218   34.2381  -14.9885 O   0  0  0  0  0  0  0  0  0  0  0  0
   -6.3114   35.1813  -14.0632 O   0  0  0  0  0  0  0  0  0  0  0  0
   -9.6353   33.7181  -12.6210 C   0  0  1  0  0  0  0  0  0  0  0  0
   -7.1815   37.0761  -15.3017 C   0  0  1  0  0  0  0  0  0  0  0  0
  -10.3781   32.6549  -12.6110 O   0  0  0  0  0  0  0  0  0  0  0  0
   -5.9878   37.1241  -15.7337 O   0  0  0  0  0  0  0  0  0  0  0  0
   -8.2105   33.2494  -12.8070 C   0  0  1  0  0  0  0  0  0  0  0  0
   -7.8664   36.1327  -16.3107 C   0  0  1  0  0  0  0  0  0  0  0  0
   -7.4358   34.0352  -12.0129 O   0  0  0  0  0  0  0  0  0  0  0  0
   -9.1455   36.4747  -16.5080 O   0  0  0  0  0  0  0  0  0  0  0  0
   -8.2325   31.7786  -12.2626 C   0  0  1  0  0  0  0  0  0  0  0  0
   -7.0567   36.2149  -17.6248 C   0  0  1  0  0  0  0  0  0  0  0  0
   -7.6550   31.7323  -10.8923 O   0  0  0  0  0  0  0  0  0  0  0  0
   -7.7646   37.0783  -18.6241 O   0  0  0  0  0  0  0  0  0  0  0  0
   -9.4713   31.4032  -12.2583 C   0  0  2  0  0  0  0  0  0  0  0  0
   -5.9397   36.7656  -17.2928 C   0  0  2  0  0  0  0  0  0  0  0  0
   -9.2525   29.1436  -17.1233 N   0  0  0  0  0  0  0  0  0  0  0  0
   -8.7829   30.3815  -16.8001 C   0  0  0  0  0  0  0  0  0  0  0  0
   -8.8861   30.8689  -15.5221 N   0  0  0  0  0  0  0  0  0  0  0  0
   -9.4745   30.0934  -14.5616 C   0  0  0  0  0  0  0  0  0  0  0  0
   -9.9476   28.8768  -14.8658 C   0  0  0  0  0  0  0  0  0  0  0  0
   -9.8302   28.3852  -16.1648 C   0  0  0  0  0  0  0  0  0  0  0  0
  -10.2838   27.1289  -16.6129 N   0  0  0  0  0  0  0  0  0  0  0  0
  -10.4642   28.3403  -13.7400 N   0  0  0  0  0  0  0  0  0  0  0  0
  -10.3099   29.2482  -12.7344 C   0  0  0  0  0  0  0  0  0  0  0  0
   -9.6847   30.3220  -13.2344 N   0  0  0  0  0  0  0  0  0  0  0  0
   -1.5124   35.8731  -19.8855 N   0  0  0  0  0  0  0  0  0  0  0  0
   -2.3445   36.9366  -20.0369 C   0  0  0  0  0  0  0  0  0  0  0  0
   -3.4787   37.0191  -19.2792 N   0  0  0  0  0  0  0  0  0  0  0  0
   -3.7708   36.0459  -18.3748 C   0  0  0  0  0  0  0  0  0  0  0  0
   -2.9474   34.9900  -18.2159 C   0  0  0  0  0  0  0  0  0  0  0  0
   -1.7964   34.9119  -18.9945 C   0  0  0  0  0  0  0  0  0  0  0  0
   -0.7953   33.8761  -19.0057 N   0  0  0  0  0  0  0  0  0  0  0  0
   -3.4884   34.1943  -17.2624 N   0  0  0  0  0  0  0  0  0  0  0  0
   -4.6471   34.7706  -16.8319 C   0  0  0  0  0  0  0  0  0  0  0  0
   -4.8112   35.9163  -17.5235 N   0  0  0  0  0  0  0  0  0  0  0  0
  1  3  1  1  0  0  0
  1  5  2  0  0  0  0
  1  9  1  0  0  0  0
  1 18  1  0  0  0  0
  2  4  1  6  0  0  0
  2  6  2  0  0  0  0
  2 10  1  0  0  0  0
  2 17  1  0  0  0  0
  7  9  1  0  0  0  0
  8 10  1  0  0  0  0
 11  7  1  6  0  0  0
 11 13  1  0  0  0  0
 11 15  1  0  0  0  0
 12  8  1  1  0  0  0
 12 14  1  0  0  0  0
 12 16  1  0  0  0  0
 13 23  1  0  0  0  0
 14 24  1  0  0  0  0
 15 17  1  1  0  0  0
 15 19  1  0  0  0  0
 16 18  1  6  0  0  0
 16 20  1  0  0  0  0
 19 21  1  1  0  0  0
 19 23  1  0  0  0  0
 20 22  1  6  0  0  0
 20 24  1  0  0  0  0
 23 34  1  6  0  0  0
 24 44  1  1  0  0  0
 25 26  2  0  0  0  0
 25 30  1  0  0  0  0
 26 27  1  0  0  0  0
 27 28  2  0  0  0  0
 28 29  1  0  0  0  0
 28 34  1  0  0  0  0
 29 30  2  0  0  0  0
 29 32  1  0  0  0  0
 30 31  1  0  0  0  0
 32 33  2  0  0  0  0
 33 34  1  0  0  0  0
 35 36  2  0  0  0  0
 35 40  1  0  0  0  0
 36 37  1  0  0  0  0
 37 38  2  0  0  0  0
 38 39  1  0  0  0  0
 38 44  1  0  0  0  0
 39 40  2  0  0  0  0
 39 42  1  0  0  0  0
 40 41  1  0  0  0  0
 42 43  2  0  0  0  0
 43 44  1  0  0  0  0
M  CHG  2   3  -1   4  -1
M  END
>  <CHROM.1>
65.68007548,-124.82557933,-7.34028039,33.77435905,-15.40688841,2.89517083
-0.83313359,-2.57035674

>  <Name>
ligand

>  <RI>
0

>  <Rbt.Current_Directory>
/home/itssahil/PROJECTS/Mol_Feturizer/New_Systems/rnas/4QLM

>  <Rbt.Executable>
rbdock ($Id: //depot/dev/client3/rdock/2013.1/src/exe/rbdock.cxx#4 $)

>  <Rbt.Library>
libRbt.so (2013.1, Build901 2013/11/27)

>  <Rbt.Parameter_File>
/export/apps/rDock/src/rDock_2013.1_src/data/scripts/dock_solv.prm

>  <Rbt.Receptor>
prm/pocket_docking_5.prm

>  <SCORE>
-7.15591

>  <SCORE.INTER>
-6.48331

>  <SCORE.INTER.CONST>
1

>  <SCORE.INTER.POLAR>
0

>  <SCORE.INTER.ROT>
2

>  <SCORE.INTER.SOLV>
34.3354

>  <SCORE.INTER.VDW>
-20.7007

>  <SCORE.INTER.norm>
-0.147348

>  <SCORE.INTRA>
-0.847103

>  <SCORE.INTRA.DIHEDRAL>
0.0335957

>  <SCORE.INTRA.DIHEDRAL.0>
2.32994

>  <SCORE.INTRA.POLAR>
0

>  <SCORE.INTRA.POLAR.0>
0

>  <SCORE.INTRA.REPUL>
0

>  <SCORE.INTRA.REPUL.0>
0

>  <SCORE.INTRA.SOLV>
-0.000230304

>  <SCORE.INTRA.SOLV.lig_0>
-117.703

>  <SCORE.INTRA.VDW>
-0.863785

>  <SCORE.INTRA.VDW.0>
-1.59997

>  <SCORE.INTRA.norm>
-0.0192523

>  <SCORE.RESTR>
0.1745

>  <SCORE.RESTR.CAVITY>
0.1745

>  <SCORE.RESTR.norm>
0.00396591

>  <SCORE.SYSTEM>
0

>  <SCORE.SYSTEM.CONST>
0

>  <SCORE.SYSTEM.DIHEDRAL>
0

>  <SCORE.SYSTEM.SOLV>
0

>  <SCORE.SYSTEM.norm>
0

>  <SCORE.heavy>
44

>  <SCORE.norm>
-0.162634

>  <RMSD>
1.669

$$$$
ligand
 OpenBabel11021811513D
libRbt.so/2013.1/901 2013/11/27
 44 50  0  0  0  0  0  0  0  0999 V2000
   -9.9573   35.0745  -16.2160 P   0  0  2  0  0  0  0  0  0  0  0  0
   -5.9829   34.4285  -12.6115 P   0  0  1  0  0  0  0  0  0  0  0  0
  -11.3868   35.5148  -15.9107 O   0  5  0  0  0  0  0  0  0  0  0  0
   -5.2955   33.1477  -13.0178 O   0  5  0  0  0  0  0  0  0  0  0  0
  -10.0307   34.2653  -17.4886 O   0  0  0  0  0  0  0  0  0  0  0  0
   -5.0692   35.1368  -11.5856 O   0  0  0  0  0  0  0  0  0  0  0  0
  -10.1143   34.6339  -13.7215 C   0  0  0  0  0  0  0  0  0  0  0  0
   -7.0759   36.4166  -13.8449 C   0  0  0  0  0  0  0  0  0  0  0  0
   -9.5117   34.2505  -14.9650 O   0  0  0  0  0  0  0  0  0  0  0  0
   -6.3048   35.1960  -14.0300 O   0  0  0  0  0  0  0  0  0  0  0  0
   -9.6291   33.7223  -12.5995 C   0  0  1  0  0  0  0  0  0  0  0  0
   -7.1757   37.0934  -15.2639 C   0  0  1  0  0  0  0  0  0  0  0  0
  -10.3701   32.6578  -12.5945 O   0  0  0  0  0  0  0  0  0  0  0  0
   -5.9812   37.1450  -15.6934 O   0  0  0  0  0  0  0  0  0  0  0  0
   -8.2031   33.2567  -12.7842 C   0  0  1  0  0  0  0  0  0  0  0  0
   -7.8569   36.1523  -16.2774 C   0  0  1  0  0  0  0  0  0  0  0  0
   -7.4314   34.0411  -11.9859 O   0  0  0  0  0  0  0  0  0  0  0  0
   -9.1362   36.4928  -16.4762 O   0  0  0  0  0  0  0  0  0  0  0  0
   -8.2237   31.7840  -12.2448 C   0  0  1  0  0  0  0  0  0  0  0  0
   -7.0447   36.2403  -17.5896 C   0  0  1  0  0  0  0  0  0  0  0  0
   -7.6489   31.7341  -10.8734 O   0  0  0  0  0  0  0  0  0  0  0  0
   -7.7521   37.1059  -18.5874 O   0  0  0  0  0  0  0  0  0  0  0  0
   -9.4619   31.4064  -12.2442 C   0  0  2  0  0  0  0  0  0  0  0  0
   -5.9294   36.7918  -17.2535 C   0  0  2  0  0  0  0  0  0  0  0  0
   -9.2940   29.1893  -17.1307 N   0  0  0  0  0  0  0  0  0  0  0  0
   -8.8455   30.4348  -16.8073 C   0  0  0  0  0  0  0  0  0  0  0  0
   -8.9329   30.9101  -15.5236 N   0  0  0  0  0  0  0  0  0  0  0  0
   -9.4838   30.1143  -14.5574 C   0  0  0  0  0  0  0  0  0  0  0  0
   -9.9359   28.8898  -14.8616 C   0  0  0  0  0  0  0  0  0  0  0  0
   -9.8347   28.4109  -16.1666 C   0  0  0  0  0  0  0  0  0  0  0  0
  -10.2695   27.1481  -16.6154 N   0  0  0  0  0  0  0  0  0  0  0  0
  -10.4170   28.3334  -13.7297 N   0  0  0  0  0  0  0  0  0  0  0  0
  -10.2620   29.2368  -12.7202 C   0  0  0  0  0  0  0  0  0  0  0  0
   -9.6714   30.3282  -13.2244 N   0  0  0  0  0  0  0  0  0  0  0  0
   -1.5727   35.8402  -19.9432 N   0  0  0  0  0  0  0  0  0  0  0  0
   -2.4208   36.8884  -20.1112 C   0  0  0  0  0  0  0  0  0  0  0  0
   -3.5325   36.9900  -19.3230 N   0  0  0  0  0  0  0  0  0  0  0  0
   -3.7862   36.0510  -18.3720 C   0  0  0  0  0  0  0  0  0  0  0  0
   -2.9466   35.0105  -18.1966 C   0  0  0  0  0  0  0  0  0  0  0  0
   -1.8189   34.9127  -19.0065 C   0  0  0  0  0  0  0  0  0  0  0  0
   -0.8071   33.8874  -19.0071 N   0  0  0  0  0  0  0  0  0  0  0  0
   -3.4497   34.2484  -17.1961 N   0  0  0  0  0  0  0  0  0  0  0  0
   -4.6011   34.8298  -16.7535 C   0  0  0  0  0  0  0  0  0  0  0  0
   -4.7989   35.9452  -17.4848 N   0  0  0  0  0  0  0  0  0  0  0  0
  1  3  1  1  0  0  0
  1  5  2  0  0  0  0
  1  9  1  0  0  0  0
  1 18  1  0  0  0  0
  2  4  1  6  0  0  0
  2  6  2  0  0  0  0
  2 10  1  0  0  0  0
  2 17  1  0  0  0  0
  7  9  1  0  0  0  0
  8 10  1  0  0  0  0
 11  7  1  6  0  0  0
 11 13  1  0  0  0  0
 11 15  1  0  0  0  0
 12  8  1  1  0  0  0
 12 14  1  0  0  0  0
 12 16  1  0  0  0  0
 13 23  1  0  0  0  0
 14 24  1  0  0  0  0
 15 17  1  1  0  0  0
 15 19  1  0  0  0  0
 16 18  1  6  0  0  0
 16 20  1  0  0  0  0
 19 21  1  1  0  0  0
 19 23  1  0  0  0  0
 20 22  1  6  0  0  0
 20 24  1  0  0  0  0
 23 34  1  6  0  0  0
 24 44  1  1  0  0  0
 25 26  2  0  0  0  0
 25 30  1  0  0  0  0
 26 27  1  0  0  0  0
 27 28  2  0  0  0  0
 28 29  1  0  0  0  0
 28 34  1  0  0  0  0
 29 30  2  0  0  0  0
 29 32  1  0  0  0  0
 30 31  1  0  0  0  0
 32 33  2  0  0  0  0
 33 34  1  0  0  0  0
 35 36  2  0  0  0  0
 35 40  1  0  0  0  0
 36 37  1  0  0  0  0
 37 38  2  0  0  0  0
 38 39  1  0  0  0  0
 38 44  1  0  0  0  0
 39 40  2  0  0  0  0
 39 42  1  0  0  0  0
 40 41  1  0  0  0  0
 42 43  2  0  0  0  0
 43 44  1  0  0  0  0
M  CHG  2   3  -1   4  -1
M  END
>  <CHROM.1>
63.90510434,-127.96834267,-7.33891679,33.78771241,-15.38929106,2.92863719
-0.84312971,-2.52760208

>  <Name>
ligand

>  <RI>
0

>  <Rbt.Current_Directory>
/home/itssahil/PROJECTS/Mol_Feturizer/New_Systems/rnas/4QLM

>  <Rbt.Executable>
rbdock ($Id: //depot/dev/client3/rdock/2013.1/src/exe/rbdock.cxx#4 $)

>  <Rbt.Library>
libRbt.so (2013.1, Build901 2013/11/27)

>  <Rbt.Parameter_File>
/export/apps/rDock/src/rDock_2013.1_src/data/scripts/dock_solv.prm

>  <Rbt.Receptor>
prm/pocket_docking_2.prm

>  <SCORE>
-6.066

>  <SCORE.INTER>
-6.37571

>  <SCORE.INTER.CONST>
1

>  <SCORE.INTER.POLAR>
0

>  <SCORE.INTER.ROT>
2

>  <SCORE.INTER.SOLV>
34.2368

>  <SCORE.INTER.VDW>
-20.5961

>  <SCORE.INTER.norm>
-0.144903

>  <SCORE.INTRA>
-0.879946

>  <SCORE.INTRA.DIHEDRAL>
0.0444485

>  <SCORE.INTRA.DIHEDRAL.0>
2.32994

>  <SCORE.INTRA.POLAR>
0

>  <SCORE.INTRA.POLAR.0>
0

>  <SCORE.INTRA.REPUL>
0

>  <SCORE.INTRA.REPUL.0>
0

>  <SCORE.INTRA.SOLV>
0.0258129

>  <SCORE.INTRA.SOLV.lig_0>
-117.703

>  <SCORE.INTRA.VDW>
-0.915077

>  <SCORE.INTRA.VDW.0>
-1.59997

>  <SCORE.INTRA.norm>
-0.0199988

>  <SCORE.RESTR>
1.18966

>  <SCORE.RESTR.CAVITY>
1.18966

>  <SCORE.RESTR.norm>
0.0270378

>  <SCORE.SYSTEM>
0

>  <SCORE.SYSTEM.CONST>
0

>  <SCORE.SYSTEM.DIHEDRAL>
0

>  <SCORE.SYSTEM.SOLV>
0

>  <SCORE.SYSTEM.norm>
0

>  <SCORE.heavy>
44

>  <SCORE.norm>
-0.137864

>  <RMSD>
1.670

$$$$
ligand
 OpenBabel11021811513D
libRbt.so/2013.1/901 2013/11/27
 44 50  0  0  0  0  0  0  0  0999 V2000
  -10.0346   35.0794  -16.2242 P   0  0  2  0  0  0  0  0  0  0  0  0
   -6.0205   34.4905  -12.6541 P   0  0  1  0  0  0  0  0  0  0  0  0
  -11.4664   35.5034  -15.9071 O   0  5  0  0  0  0  0  0  0  0  0  0
   -5.3215   33.2169  -13.0635 O   0  5  0  0  0  0  0  0  0  0  0  0
  -10.1098   34.2660  -17.4940 O   0  0  0  0  0  0  0  0  0  0  0  0
   -5.1060   35.2123  -11.6384 O   0  0  0  0  0  0  0  0  0  0  0  0
  -10.1638   34.6436  -13.7273 C   0  0  0  0  0  0  0  0  0  0  0  0
   -7.1482   36.4621  -13.8826 C   0  0  0  0  0  0  0  0  0  0  0  0
   -9.5679   34.2641  -14.9752 O   0  0  0  0  0  0  0  0  0  0  0  0
   -6.3643   35.2503  -14.0716 O   0  0  0  0  0  0  0  0  0  0  0  0
   -9.6576   33.7408  -12.6074 C   0  0  1  0  0  0  0  0  0  0  0  0
   -7.2689   37.1340  -15.3023 C   0  0  1  0  0  0  0  0  0  0  0  0
  -10.3858   32.6675  -12.5930 O   0  0  0  0  0  0  0  0  0  0  0  0
   -6.0790   37.1987  -15.7427 O   0  0  0  0  0  0  0  0  0  0  0  0
   -8.2279   33.2917  -12.8038 C   0  0  1  0  0  0  0  0  0  0  0  0
   -7.9479   36.1821  -16.3073 C   0  0  1  0  0  0  0  0  0  0  0  0
   -7.4585   34.0875  -12.0144 O   0  0  0  0  0  0  0  0  0  0  0  0
   -9.2329   36.5068  -16.4953 O   0  0  0  0  0  0  0  0  0  0  0  0
   -8.2260   31.8203  -12.2605 C   0  0  1  0  0  0  0  0  0  0  0  0
   -7.1487   36.2764  -17.6270 C   0  0  1  0  0  0  0  0  0  0  0  0
   -7.6383   31.7809  -10.8943 O   0  0  0  0  0  0  0  0  0  0  0  0
   -7.8753   37.1308  -18.6206 O   0  0  0  0  0  0  0  0  0  0  0  0
   -9.4595   31.4280  -12.2478 C   0  0  2  0  0  0  0  0  0  0  0  0
   -6.0370   36.8420  -17.3024 C   0  0  2  0  0  0  0  0  0  0  0  0
   -9.2506   29.1779  -17.1176 N   0  0  0  0  0  0  0  0  0  0  0  0
   -8.7976   30.4226  -16.7972 C   0  0  0  0  0  0  0  0  0  0  0  0
   -8.8965   30.9068  -15.5176 N   0  0  0  0  0  0  0  0  0  0  0  0
   -9.4636   30.1210  -14.5527 C   0  0  0  0  0  0  0  0  0  0  0  0
   -9.9203   28.8975  -14.8541 C   0  0  0  0  0  0  0  0  0  0  0  0
   -9.8073   28.4094  -16.1548 C   0  0  0  0  0  0  0  0  0  0  0  0
  -10.2453   27.1466  -16.6003 N   0  0  0  0  0  0  0  0  0  0  0  0
  -10.4178   28.3516  -13.7242 N   0  0  0  0  0  0  0  0  0  0  0  0
  -10.2684   29.2606  -12.7189 C   0  0  0  0  0  0  0  0  0  0  0  0
   -9.6650   30.3448  -13.2233 N   0  0  0  0  0  0  0  0  0  0  0  0
   -1.5687   36.0576  -19.8596 N   0  0  0  0  0  0  0  0  0  0  0  0
   -2.4074   37.1184  -19.9922 C   0  0  0  0  0  0  0  0  0  0  0  0
   -3.5521   37.1707  -19.2477 N   0  0  0  0  0  0  0  0  0  0  0  0
   -3.8482   36.1701  -18.3750 C   0  0  0  0  0  0  0  0  0  0  0  0
   -3.0184   35.1166  -18.2349 C   0  0  0  0  0  0  0  0  0  0  0  0
   -1.8566   35.0694  -18.9999 C   0  0  0  0  0  0  0  0  0  0  0  0
   -0.8470   34.0423  -19.0267 N   0  0  0  0  0  0  0  0  0  0  0  0
   -3.5654   34.2901  -17.3114 N   0  0  0  0  0  0  0  0  0  0  0  0
   -4.7343   34.8449  -16.8804 C   0  0  0  0  0  0  0  0  0  0  0  0
   -4.8986   36.0084  -17.5418 N   0  0  0  0  0  0  0  0  0  0  0  0
  1  3  1  1  0  0  0
  1  5  2  0  0  0  0
  1  9  1  0  0  0  0
  1 18  1  0  0  0  0
  2  4  1  6  0  0  0
  2  6  2  0  0  0  0
  2 10  1  0  0  0  0
  2 17  1  0  0  0  0
  7  9  1  0  0  0  0
  8 10  1  0  0  0  0
 11  7  1  6  0  0  0
 11 13  1  0  0  0  0
 11 15  1  0  0  0  0
 12  8  1  1  0  0  0
 12 14  1  0  0  0  0
 12 16  1  0  0  0  0
 13 23  1  0  0  0  0
 14 24  1  0  0  0  0
 15 17  1  1  0  0  0
 15 19  1  0  0  0  0
 16 18  1  6  0  0  0
 16 20  1  0  0  0  0
 19 21  1  1  0  0  0
 19 23  1  0  0  0  0
 20 22  1  6  0  0  0
 20 24  1  0  0  0  0
 23 34  1  6  0  0  0
 24 44  1  1  0  0  0
 25 26  2  0  0  0  0
 25 30  1  0  0  0  0
 26 27  1  0  0  0  0
 27 28  2  0  0  0  0
 28 29  1  0  0  0  0
 28 34  1  0  0  0  0
 29 30  2  0  0  0  0
 29 32  1  0  0  0  0
 30 31  1  0  0  0  0
 32 33  2  0  0  0  0
 33 34  1  0  0  0  0
 35 36  2  0  0  0  0
 35 40  1  0  0  0  0
 36 37  1  0  0  0  0
 37 38  2  0  0  0  0
 38 39  1  0  0  0  0
 38 44  1  0  0  0  0
 39 40  2  0  0  0  0
 39 42  1  0  0  0  0
 40 41  1  0  0  0  0
 42 43  2  0  0  0  0
 43 44  1  0  0  0  0
M  CHG  2   3  -1   4  -1
M  END
>  <CHROM.1>
65.49979850,-122.84629757,-7.38008500,33.83411781,-15.40415207,2.87399617
-0.84144176,-2.58576128

>  <Name>
ligand

>  <RI>
0

>  <Rbt.Current_Directory>
/home/itssahil/PROJECTS/Mol_Feturizer/New_Systems/rnas/4QLM

>  <Rbt.Executable>
rbdock ($Id: //depot/dev/client3/rdock/2013.1/src/exe/rbdock.cxx#4 $)

>  <Rbt.Library>
libRbt.so (2013.1, Build901 2013/11/27)

>  <Rbt.Parameter_File>
/export/apps/rDock/src/rDock_2013.1_src/data/scripts/dock_solv.prm

>  <Rbt.Receptor>
prm/pocket_docking_4.prm

>  <SCORE>
-6.85187

>  <SCORE.INTER>
-6.23362

>  <SCORE.INTER.CONST>
1

>  <SCORE.INTER.POLAR>
0

>  <SCORE.INTER.ROT>
2

>  <SCORE.INTER.SOLV>
33.2075

>  <SCORE.INTER.VDW>
-20.1582

>  <SCORE.INTER.norm>
-0.141673

>  <SCORE.INTRA>
-0.81595

>  <SCORE.INTRA.DIHEDRAL>
0.0334121

>  <SCORE.INTRA.DIHEDRAL.0>
2.32994

>  <SCORE.INTRA.POLAR>
0

>  <SCORE.INTRA.POLAR.0>
0

>  <SCORE.INTRA.REPUL>
0

>  <SCORE.INTRA.REPUL.0>
0

>  <SCORE.INTRA.SOLV>
0.00133935

>  <SCORE.INTRA.SOLV.lig_0>
-117.703

>  <SCORE.INTRA.VDW>
-0.833325

>  <SCORE.INTRA.VDW.0>
-1.59997

>  <SCORE.INTRA.norm>
-0.0185443

>  <SCORE.RESTR>
0.197696

>  <SCORE.RESTR.CAVITY>
0.197696

>  <SCORE.RESTR.norm>
0.00449308

>  <SCORE.SYSTEM>
0

>  <SCORE.SYSTEM.CONST>
0

>  <SCORE.SYSTEM.DIHEDRAL>
0

>  <SCORE.SYSTEM.SOLV>
0

>  <SCORE.SYSTEM.norm>
0

>  <SCORE.heavy>
44

>  <SCORE.norm>
-0.155724

>  <RMSD>
1.691

$$$$
ligand
 OpenBabel11021811513D
libRbt.so/2013.1/901 2013/11/27
 44 50  0  0  0  0  0  0  0  0999 V2000
  -10.0388   35.0664  -16.2042 P   0  0  2  0  0  0  0  0  0  0  0  0
   -6.0382   34.4247  -12.6281 P   0  0  1  0  0  0  0  0  0  0  0  0
  -11.4687   35.4972  -15.8877 O   0  5  0  0  0  0  0  0  0  0  0  0
   -5.3463   33.1498  -13.0452 O   0  5  0  0  0  0  0  0  0  0  0  0
  -10.1157   34.2632  -17.4803 O   0  0  0  0  0  0  0  0  0  0  0  0
   -5.1219   35.1329  -11.6045 O   0  0  0  0  0  0  0  0  0  0  0  0
  -10.1775   34.6126  -13.7111 C   0  0  0  0  0  0  0  0  0  0  0  0
   -7.1499   36.4128  -13.8446 C   0  0  0  0  0  0  0  0  0  0  0  0
   -9.5807   34.2387  -14.9602 O   0  0  0  0  0  0  0  0  0  0  0  0
   -6.3733   35.1975  -14.0407 O   0  0  0  0  0  0  0  0  0  0  0  0
   -9.6802   33.6981  -12.5967 C   0  0  1  0  0  0  0  0  0  0  0  0
   -7.2625   37.0961  -15.2595 C   0  0  1  0  0  0  0  0  0  0  0  0
  -10.4153   32.6294  -12.5924 O   0  0  0  0  0  0  0  0  0  0  0  0
   -6.0710   37.1565  -15.6962 O   0  0  0  0  0  0  0  0  0  0  0  0
   -8.2528   33.2413  -12.7927 C   0  0  1  0  0  0  0  0  0  0  0  0
   -7.9448   36.1563  -16.2734 C   0  0  1  0  0  0  0  0  0  0  0  0
   -7.4805   34.0261  -11.9953 O   0  0  0  0  0  0  0  0  0  0  0  0
   -9.2272   36.4906  -16.4624 O   0  0  0  0  0  0  0  0  0  0  0  0
   -8.2618   31.7659  -12.2606 C   0  0  1  0  0  0  0  0  0  0  0  0
   -7.1414   36.2554  -17.5902 C   0  0  1  0  0  0  0  0  0  0  0  0
   -7.6782   31.7123  -10.8931 O   0  0  0  0  0  0  0  0  0  0  0  0
   -7.8599   37.1219  -18.5792 O   0  0  0  0  0  0  0  0  0  0  0  0
   -9.4979   31.3814  -12.2541 C   0  0  2  0  0  0  0  0  0  0  0  0
   -6.0271   36.8113  -17.2584 C   0  0  2  0  0  0  0  0  0  0  0  0
   -9.2933   29.1682  -17.1409 N   0  0  0  0  0  0  0  0  0  0  0  0
   -8.8340   30.4078  -16.8101 C   0  0  0  0  0  0  0  0  0  0  0  0
   -8.9324   30.8826  -15.5270 N   0  0  0  0  0  0  0  0  0  0  0  0
   -9.5053   30.0924  -14.5691 C   0  0  0  0  0  0  0  0  0  0  0  0
   -9.9682   28.8738  -14.8808 C   0  0  0  0  0  0  0  0  0  0  0  0
   -9.8557   28.3952  -16.1850 C   0  0  0  0  0  0  0  0  0  0  0  0
  -10.2999   27.1383  -16.6411 N   0  0  0  0  0  0  0  0  0  0  0  0
  -10.4705   28.3219  -13.7560 N   0  0  0  0  0  0  0  0  0  0  0  0
  -10.3178   29.2222  -12.7434 C   0  0  0  0  0  0  0  0  0  0  0  0
   -9.7076   30.3070  -13.2384 N   0  0  0  0  0  0  0  0  0  0  0  0
   -1.5881   35.9884  -19.8544 N   0  0  0  0  0  0  0  0  0  0  0  0
   -2.4255   37.0500  -19.9891 C   0  0  0  0  0  0  0  0  0  0  0  0
   -3.5621   37.1131  -19.2333 N   0  0  0  0  0  0  0  0  0  0  0  0
   -3.8515   36.1225  -18.3470 C   0  0  0  0  0  0  0  0  0  0  0  0
   -3.0229   35.0683  -18.2047 C   0  0  0  0  0  0  0  0  0  0  0  0
   -1.8693   35.0101  -18.9814 C   0  0  0  0  0  0  0  0  0  0  0  0
   -0.8627   33.9800  -19.0081 N   0  0  0  0  0  0  0  0  0  0  0  0
   -3.5622   34.2530  -17.2669 N   0  0  0  0  0  0  0  0  0  0  0  0
   -4.7250   34.8153  -16.8294 C   0  0  0  0  0  0  0  0  0  0  0  0
   -4.8934   35.9723  -17.5011 N   0  0  0  0  0  0  0  0  0  0  0  0
  1  3  1  1  0  0  0
  1  5  2  0  0  0  0
  1  9  1  0  0  0  0
  1 18  1  0  0  0  0
  2  4  1  6  0  0  0
  2  6  2  0  0  0  0
  2 10  1  0  0  0  0
  2 17  1  0  0  0  0
  7  9  1  0  0  0  0
  8 10  1  0  0  0  0
 11  7  1  6  0  0  0
 11 13  1  0  0  0  0
 11 15  1  0  0  0  0
 12  8  1  1  0  0  0
 12 14  1  0  0  0  0
 12 16  1  0  0  0  0
 13 23  1  0  0  0  0
 14 24  1  0  0  0  0
 15 17  1  1  0  0  0
 15 19  1  0  0  0  0
 16 18  1  6  0  0  0
 16 20  1  0  0  0  0
 19 21  1  1  0  0  0
 19 23  1  0  0  0  0
 20 22  1  6  0  0  0
 20 24  1  0  0  0  0
 23 34  1  6  0  0  0
 24 44  1  1  0  0  0
 25 26  2  0  0  0  0
 25 30  1  0  0  0  0
 26 27  1  0  0  0  0
 27 28  2  0  0  0  0
 28 29  1  0  0  0  0
 28 34  1  0  0  0  0
 29 30  2  0  0  0  0
 29 32  1  0  0  0  0
 30 31  1  0  0  0  0
 32 33  2  0  0  0  0
 33 34  1  0  0  0  0
 35 36  2  0  0  0  0
 35 40  1  0  0  0  0
 36 37  1  0  0  0  0
 37 38  2  0  0  0  0
 38 39  1  0  0  0  0
 38 44  1  0  0  0  0
 39 40  2  0  0  0  0
 39 42  1  0  0  0  0
 40 41  1  0  0  0  0
 42 43  2  0  0  0  0
 43 44  1  0  0  0  0
M  CHG  2   3  -1   4  -1
M  END
>  <CHROM.1>
65.41661187,-124.14687722,-7.39711340,33.79576328,-15.39009261,2.88855385
-0.83941433,-2.56563889

>  <Name>
ligand

>  <RI>
0

>  <Rbt.Current_Directory>
/home/itssahil/PROJECTS/Mol_Feturizer/New_Systems/rnas/4QLM

>  <Rbt.Executable>
rbdock ($Id: //depot/dev/client3/rdock/2013.1/src/exe/rbdock.cxx#4 $)

>  <Rbt.Library>
libRbt.so (2013.1, Build901 2013/11/27)

>  <Rbt.Parameter_File>
/export/apps/rDock/src/rDock_2013.1_src/data/scripts/dock_solv.prm

>  <Rbt.Receptor>
prm/pocket_docking_5.prm

>  <SCORE>
-7.10732

>  <SCORE.INTER>
-6.45084

>  <SCORE.INTER.CONST>
1

>  <SCORE.INTER.POLAR>
0

>  <SCORE.INTER.ROT>
2

>  <SCORE.INTER.SOLV>
33.8857

>  <SCORE.INTER.VDW>
-20.5291

>  <SCORE.INTER.norm>
-0.14661

>  <SCORE.INTRA>
-0.838477

>  <SCORE.INTRA.DIHEDRAL>
0.0345628

>  <SCORE.INTRA.DIHEDRAL.0>
2.32994

>  <SCORE.INTRA.POLAR>
0

>  <SCORE.INTRA.POLAR.0>
0

>  <SCORE.INTRA.REPUL>
0

>  <SCORE.INTRA.REPUL.0>
0

>  <SCORE.INTRA.SOLV>
0.00207686

>  <SCORE.INTRA.SOLV.lig_0>
-117.703

>  <SCORE.INTRA.VDW>
-0.856797

>  <SCORE.INTRA.VDW.0>
-1.59997

>  <SCORE.INTRA.norm>
-0.0190563

>  <SCORE.RESTR>
0.181992

>  <SCORE.RESTR.CAVITY>
0.181992

>  <SCORE.RESTR.norm>
0.00413618

>  <SCORE.SYSTEM>
0

>  <SCORE.SYSTEM.CONST>
0

>  <SCORE.SYSTEM.DIHEDRAL>
0

>  <SCORE.SYSTEM.SOLV>
0

>  <SCORE.SYSTEM.norm>
0

>  <SCORE.heavy>
44

>  <SCORE.norm>
-0.16153

>  <RMSD>
1.696

$$$$
ligand
 OpenBabel11021811513D
libRbt.so/2013.1/901 2013/11/27
 44 50  0  0  0  0  0  0  0  0999 V2000
  -10.0010   34.9788  -16.2165 P   0  0  2  0  0  0  0  0  0  0  0  0
   -6.0393   34.3498  -12.5950 P   0  0  1  0  0  0  0  0  0  0  0  0
  -11.4373   35.3994  -15.9156 O   0  5  0  0  0  0  0  0  0  0  0  0
   -5.3343   33.0808  -13.0082 O   0  5  0  0  0  0  0  0  0  0  0  0
  -10.0576   34.1795  -17.4961 O   0  0  0  0  0  0  0  0  0  0  0  0
   -5.1398   35.0602  -11.5581 O   0  0  0  0  0  0  0  0  0  0  0  0
  -10.1665   34.5153  -13.7267 C   0  0  0  0  0  0  0  0  0  0  0  0
   -7.1491   36.3351  -13.8178 C   0  0  0  0  0  0  0  0  0  0  0  0
   -9.5525   34.1496  -14.9699 O   0  0  0  0  0  0  0  0  0  0  0  0
   -6.3624   35.1254  -14.0088 O   0  0  0  0  0  0  0  0  0  0  0  0
   -9.6767   33.6000  -12.6096 C   0  0  1  0  0  0  0  0  0  0  0  0
   -7.2491   37.0226  -15.2316 C   0  0  1  0  0  0  0  0  0  0  0  0
  -10.4050   32.5267  -12.6178 O   0  0  0  0  0  0  0  0  0  0  0  0
   -6.0529   37.0921  -15.6539 O   0  0  0  0  0  0  0  0  0  0  0  0
   -8.2442   33.1530  -12.7901 C   0  0  1  0  0  0  0  0  0  0  0  0
   -7.9133   36.0821  -16.2569 C   0  0  1  0  0  0  0  0  0  0  0  0
   -7.4864   33.9399  -11.9809 O   0  0  0  0  0  0  0  0  0  0  0  0
   -9.1954   36.4089  -16.4600 O   0  0  0  0  0  0  0  0  0  0  0  0
   -8.2502   31.6757  -12.2632 C   0  0  1  0  0  0  0  0  0  0  0  0
   -7.0949   36.1909  -17.5636 C   0  0  1  0  0  0  0  0  0  0  0  0
   -7.6825   31.6211  -10.8891 O   0  0  0  0  0  0  0  0  0  0  0  0
   -7.8071   37.0563  -18.5582 O   0  0  0  0  0  0  0  0  0  0  0  0
   -9.4837   31.2834  -12.2728 C   0  0  2  0  0  0  0  0  0  0  0  0
   -5.9882   36.7527  -17.2167 C   0  0  2  0  0  0  0  0  0  0  0  0
   -9.3194   29.1306  -17.1881 N   0  0  0  0  0  0  0  0  0  0  0  0
   -8.9037   30.3851  -16.8557 C   0  0  0  0  0  0  0  0  0  0  0  0
   -8.9870   30.8422  -15.5651 N   0  0  0  0  0  0  0  0  0  0  0  0
   -9.5000   30.0188  -14.6012 C   0  0  0  0  0  0  0  0  0  0  0  0
   -9.9196   28.7850  -14.9142 C   0  0  0  0  0  0  0  0  0  0  0  0
   -9.8227   28.3249  -16.2263 C   0  0  0  0  0  0  0  0  0  0  0  0
  -10.2259   27.0550  -16.6844 N   0  0  0  0  0  0  0  0  0  0  0  0
  -10.3676   28.2009  -13.7826 N   0  0  0  0  0  0  0  0  0  0  0  0
  -10.2254   29.0965  -12.7644 C   0  0  0  0  0  0  0  0  0  0  0  0
   -9.6749   30.2111  -13.2632 N   0  0  0  0  0  0  0  0  0  0  0  0
   -1.6301   35.8511  -19.9212 N   0  0  0  0  0  0  0  0  0  0  0  0
   -2.4944   36.8858  -20.0908 C   0  0  0  0  0  0  0  0  0  0  0  0
   -3.6038   36.9752  -19.2981 N   0  0  0  0  0  0  0  0  0  0  0  0
   -3.8394   36.0376  -18.3410 C   0  0  0  0  0  0  0  0  0  0  0  0
   -2.9838   35.0106  -18.1640 C   0  0  0  0  0  0  0  0  0  0  0  0
   -1.8583   34.9251  -18.9784 C   0  0  0  0  0  0  0  0  0  0  0  0
   -0.8315   33.9148  -18.9783 N   0  0  0  0  0  0  0  0  0  0  0  0
   -3.4710   34.2465  -17.1571 N   0  0  0  0  0  0  0  0  0  0  0  0
   -4.6289   34.8133  -16.7123 C   0  0  0  0  0  0  0  0  0  0  0  0
   -4.8464   35.9217  -17.4486 N   0  0  0  0  0  0  0  0  0  0  0  0
  1  3  1  1  0  0  0
  1  5  2  0  0  0  0
  1  9  1  0  0  0  0
  1 18  1  0  0  0  0
  2  4  1  6  0  0  0
  2  6  2  0  0  0  0
  2 10  1  0  0  0  0
  2 17  1  0  0  0  0
  7  9  1  0  0  0  0
  8 10  1  0  0  0  0
 11  7  1  6  0  0  0
 11 13  1  0  0  0  0
 11 15  1  0  0  0  0
 12  8  1  1  0  0  0
 12 14  1  0  0  0  0
 12 16  1  0  0  0  0
 13 23  1  0  0  0  0
 14 24  1  0  0  0  0
 15 17  1  1  0  0  0
 15 19  1  0  0  0  0
 16 18  1  6  0  0  0
 16 20  1  0  0  0  0
 19 21  1  1  0  0  0
 19 23  1  0  0  0  0
 20 22  1  6  0  0  0
 20 24  1  0  0  0  0
 23 34  1  6  0  0  0
 24 44  1  1  0  0  0
 25 26  2  0  0  0  0
 25 30  1  0  0  0  0
 26 27  1  0  0  0  0
 27 28  2  0  0  0  0
 28 29  1  0  0  0  0
 28 34  1  0  0  0  0
 29 30  2  0  0  0  0
 29 32  1  0  0  0  0
 30 31  1  0  0  0  0
 32 33  2  0  0  0  0
 33 34  1  0  0  0  0
 35 36  2  0  0  0  0
 35 40  1  0  0  0  0
 36 37  1  0  0  0  0
 37 38  2  0  0  0  0
 38 39  1  0  0  0  0
 38 44  1  0  0  0  0
 39 40  2  0  0  0  0
 39 42  1  0  0  0  0
 40 41  1  0  0  0  0
 42 43  2  0  0  0  0
 43 44  1  0  0  0  0
M  CHG  2   3  -1   4  -1
M  END
>  <CHROM.1>
62.35953125,-128.96085113,-7.37778288,33.71580647,-15.38883522,2.93146746
-0.85008968,-2.50611737

>  <Name>
ligand

>  <RI>
0

>  <Rbt.Current_Directory>
/home/itssahil/PROJECTS/Mol_Feturizer/New_Systems/rnas/4QLM

>  <Rbt.Executable>
rbdock ($Id: //depot/dev/client3/rdock/2013.1/src/exe/rbdock.cxx#4 $)

>  <Rbt.Library>
libRbt.so (2013.1, Build901 2013/11/27)

>  <Rbt.Parameter_File>
/export/apps/rDock/src/rDock_2013.1_src/data/scripts/dock_solv.prm

>  <Rbt.Receptor>
prm/pocket_docking_2.prm

>  <SCORE>
-6.02943

>  <SCORE.INTER>
-6.29432

>  <SCORE.INTER.CONST>
1

>  <SCORE.INTER.POLAR>
0

>  <SCORE.INTER.ROT>
2

>  <SCORE.INTER.SOLV>
34.5769

>  <SCORE.INTER.VDW>
-20.6552

>  <SCORE.INTER.norm>
-0.143053

>  <SCORE.INTRA>
-0.925859

>  <SCORE.INTRA.DIHEDRAL>
0.0531569

>  <SCORE.INTRA.DIHEDRAL.0>
2.32994

>  <SCORE.INTRA.POLAR>
0

>  <SCORE.INTRA.POLAR.0>
0

>  <SCORE.INTRA.REPUL>
0

>  <SCORE.INTRA.REPUL.0>
0

>  <SCORE.INTRA.SOLV>
0.0547114

>  <SCORE.INTRA.SOLV.lig_0>
-117.703

>  <SCORE.INTRA.VDW>
-0.979793

>  <SCORE.INTRA.VDW.0>
-1.59997

>  <SCORE.INTRA.norm>
-0.0210422

>  <SCORE.RESTR>
1.19074

>  <SCORE.RESTR.CAVITY>
1.19074

>  <SCORE.RESTR.norm>
0.0270623

>  <SCORE.SYSTEM>
0

>  <SCORE.SYSTEM.CONST>
0

>  <SCORE.SYSTEM.DIHEDRAL>
0

>  <SCORE.SYSTEM.SOLV>
0

>  <SCORE.SYSTEM.norm>
0

>  <SCORE.heavy>
44

>  <SCORE.norm>
-0.137033

>  <RMSD>
1.703

$$$$
ligand
 OpenBabel11021811513D
libRbt.so/2013.1/901 2013/11/27
 44 50  0  0  0  0  0  0  0  0999 V2000
  -10.2224   35.1915  -16.5080 P   0  0  2  0  0  0  0  0  0  0  0  0
   -6.5980   34.7284  -12.5262 P   0  0  1  0  0  0  0  0  0  0  0  0
  -11.6843   35.6023  -16.3513 O   0  5  0  0  0  0  0  0  0  0  0  0
   -5.8455   33.4566  -12.8330 O   0  5  0  0  0  0  0  0  0  0  0  0
  -10.1548   34.3520  -17.7611 O   0  0  0  0  0  0  0  0  0  0  0  0
   -5.8033   35.4827  -11.4360 O   0  0  0  0  0  0  0  0  0  0  0  0
  -10.6075   34.8039  -14.0295 C   0  0  0  0  0  0  0  0  0  0  0  0
   -7.6132   36.6597  -13.9074 C   0  0  0  0  0  0  0  0  0  0  0  0
   -9.8799   34.4077  -15.1999 O   0  0  0  0  0  0  0  0  0  0  0  0
   -6.8000   35.4551  -13.9877 O   0  0  0  0  0  0  0  0  0  0  0  0
  -10.2112   33.9305  -12.8439 C   0  0  1  0  0  0  0  0  0  0  0  0
   -7.5921   37.3014  -15.3459 C   0  0  1  0  0  0  0  0  0  0  0  0
  -10.9246   32.8480  -12.8829 O   0  0  0  0  0  0  0  0  0  0  0  0
   -6.3634   37.3734  -15.6608 O   0  0  0  0  0  0  0  0  0  0  0  0
   -8.7638   33.4971  -12.8802 C   0  0  1  0  0  0  0  0  0  0  0  0
   -8.1512   36.3205  -16.3959 C   0  0  1  0  0  0  0  0  0  0  0  0
   -8.0904   34.3188  -12.0319 O   0  0  0  0  0  0  0  0  0  0  0  0
   -9.4130   36.6239  -16.7241 O   0  0  0  0  0  0  0  0  0  0  0  0
   -8.8020   32.0370  -12.3085 C   0  0  1  0  0  0  0  0  0  0  0  0
   -7.2192   36.3993  -17.6265 C   0  0  1  0  0  0  0  0  0  0  0  0
   -8.3604   32.0328  -10.8878 O   0  0  0  0  0  0  0  0  0  0  0  0
   -7.8474   37.2238  -18.7086 O   0  0  0  0  0  0  0  0  0  0  0  0
  -10.0255   31.6283  -12.4165 C   0  0  2  0  0  0  0  0  0  0  0  0
   -6.1542   36.9863  -17.1997 C   0  0  2  0  0  0  0  0  0  0  0  0
   -9.1942   29.2494  -17.1569 N   0  0  0  0  0  0  0  0  0  0  0  0
   -8.7669   30.4953  -16.8072 C   0  0  0  0  0  0  0  0  0  0  0  0
   -9.0309   31.0141  -15.5651 N   0  0  0  0  0  0  0  0  0  0  0  0
   -9.7384   30.2619  -14.6685 C   0  0  0  0  0  0  0  0  0  0  0  0
  -10.1715   29.0378  -15.0004 C   0  0  0  0  0  0  0  0  0  0  0  0
   -9.8908   28.5144  -16.2614 C   0  0  0  0  0  0  0  0  0  0  0  0
  -10.2864   27.2469  -16.7324 N   0  0  0  0  0  0  0  0  0  0  0  0
  -10.8283   28.5288  -13.9366 N   0  0  0  0  0  0  0  0  0  0  0  0
  -10.8013   29.4613  -12.9422 C   0  0  0  0  0  0  0  0  0  0  0  0
  -10.1153   30.5232  -13.3849 N   0  0  0  0  0  0  0  0  0  0  0  0
   -1.7310   35.8447  -19.7001 N   0  0  0  0  0  0  0  0  0  0  0  0
   -2.6190   36.8218  -20.0211 C   0  0  0  0  0  0  0  0  0  0  0  0
   -3.7431   36.9879  -19.2621 N   0  0  0  0  0  0  0  0  0  0  0  0
   -3.9696   36.1842  -18.1882 C   0  0  0  0  0  0  0  0  0  0  0  0
   -3.0906   35.2155  -17.8610 C   0  0  0  0  0  0  0  0  0  0  0  0
   -1.9503   35.0507  -18.6419 C   0  0  0  0  0  0  0  0  0  0  0  0
   -0.8976   34.0791  -18.4901 N   0  0  0  0  0  0  0  0  0  0  0  0
   -3.5739   34.5833  -16.7648 N   0  0  0  0  0  0  0  0  0  0  0  0
   -4.7532   35.1731  -16.4166 C   0  0  0  0  0  0  0  0  0  0  0  0
   -4.9876   36.1636  -17.3009 N   0  0  0  0  0  0  0  0  0  0  0  0
  1  3  1  1  0  0  0
  1  5  2  0  0  0  0
  1  9  1  0  0  0  0
  1 18  1  0  0  0  0
  2  4  1  6  0  0  0
  2  6  2  0  0  0  0
  2 10  1  0  0  0  0
  2 17  1  0  0  0  0
  7  9  1  0  0  0  0
  8 10  1  0  0  0  0
 11  7  1  6  0  0  0
 11 13  1  0  0  0  0
 11 15  1  0  0  0  0
 12  8  1  1  0  0  0
 12 14  1  0  0  0  0
 12 16  1  0  0  0  0
 13 23  1  0  0  0  0
 14 24  1  0  0  0  0
 15 17  1  1  0  0  0
 15 19  1  0  0  0  0
 16 18  1  6  0  0  0
 16 20  1  0  0  0  0
 19 21  1  1  0  0  0
 19 23  1  0  0  0  0
 20 22  1  6  0  0  0
 20 24  1  0  0  0  0
 23 34  1  6  0  0  0
 24 44  1  1  0  0  0
 25 26  2  0  0  0  0
 25 30  1  0  0  0  0
 26 27  1  0  0  0  0
 27 28  2  0  0  0  0
 28 29  1  0  0  0  0
 28 34  1  0  0  0  0
 29 30  2  0  0  0  0
 29 32  1  0  0  0  0
 30 31  1  0  0  0  0
 32 33  2  0  0  0  0
 33 34  1  0  0  0  0
 35 36  2  0  0  0  0
 35 40  1  0  0  0  0
 36 37  1  0  0  0  0
 37 38  2  0  0  0  0
 38 39  1  0  0  0  0
 38 44  1  0  0  0  0
 39 40  2  0  0  0  0
 39 42  1  0  0  0  0
 40 41  1  0  0  0  0
 42 43  2  0  0  0  0
 43 44  1  0  0  0  0
M  CHG  2   3  -1   4  -1
M  END
>  <CHROM.1>
67.98998377,-136.48021503,-7.67111137,33.96863454,-15.42065241,2.82763248
-0.78676944,-2.64625619

>  <Name>
ligand

>  <RI>
0

>  <Rbt.Current_Directory>
/home/itssahil/PROJECTS/Mol_Feturizer/New_Systems/rnas/4QLM

>  <Rbt.Executable>
rbdock ($Id: //depot/dev/client3/rdock/2013.1/src/exe/rbdock.cxx#4 $)

>  <Rbt.Library>
libRbt.so (2013.1, Build901 2013/11/27)

>  <Rbt.Parameter_File>
/export/apps/rDock/src/rDock_2013.1_src/data/scripts/dock_solv.prm

>  <Rbt.Receptor>
prm/pocket_docking_2.prm

>  <SCORE>
-10.4318

>  <SCORE.INTER>
-10.5727

>  <SCORE.INTER.CONST>
1

>  <SCORE.INTER.POLAR>
0

>  <SCORE.INTER.ROT>
2

>  <SCORE.INTER.SOLV>
33.1579

>  <SCORE.INTER.VDW>
-23.0344

>  <SCORE.INTER.norm>
-0.240288

>  <SCORE.INTRA>
-0.912894

>  <SCORE.INTRA.DIHEDRAL>
0.0276869

>  <SCORE.INTRA.DIHEDRAL.0>
2.32994

>  <SCORE.INTRA.POLAR>
0

>  <SCORE.INTRA.POLAR.0>
0

>  <SCORE.INTRA.REPUL>
0

>  <SCORE.INTRA.REPUL.0>
0

>  <SCORE.INTRA.SOLV>
-0.00408405

>  <SCORE.INTRA.SOLV.lig_0>
-117.703

>  <SCORE.INTRA.VDW>
-0.924696

>  <SCORE.INTRA.VDW.0>
-1.59997

>  <SCORE.INTRA.norm>
-0.0207476

>  <SCORE.RESTR>
1.05378

>  <SCORE.RESTR.CAVITY>
1.05378

>  <SCORE.RESTR.norm>
0.0239496

>  <SCORE.SYSTEM>
0

>  <SCORE.SYSTEM.CONST>
0

>  <SCORE.SYSTEM.DIHEDRAL>
0

>  <SCORE.SYSTEM.SOLV>
0

>  <SCORE.SYSTEM.norm>
0

>  <SCORE.heavy>
44

>  <SCORE.norm>
-0.237086

>  <RMSD>
1.777

$$$$
ligand
 OpenBabel11021811513D
libRbt.so/2013.1/901 2013/11/27
 44 50  0  0  0  0  0  0  0  0999 V2000
  -10.1834   34.9193  -16.6530 P   0  0  2  0  0  0  0  0  0  0  0  0
   -6.6352   34.7075  -12.5822 P   0  0  1  0  0  0  0  0  0  0  0  0
  -11.6608   35.2871  -16.5413 O   0  5  0  0  0  0  0  0  0  0  0  0
   -5.8359   33.4514  -12.8298 O   0  5  0  0  0  0  0  0  0  0  0  0
  -10.0613   34.0413  -17.8752 O   0  0  0  0  0  0  0  0  0  0  0  0
   -5.8894   35.5232  -11.5018 O   0  0  0  0  0  0  0  0  0  0  0  0
  -10.6108   34.6020  -14.1715 C   0  0  0  0  0  0  0  0  0  0  0  0
   -7.6807   36.5576  -14.0494 C   0  0  0  0  0  0  0  0  0  0  0  0
   -9.8451   34.1910  -15.3122 O   0  0  0  0  0  0  0  0  0  0  0  0
   -6.8279   35.3782  -14.0715 O   0  0  0  0  0  0  0  0  0  0  0  0
  -10.2132   33.7819  -12.9488 C   0  0  1  0  0  0  0  0  0  0  0  0
   -7.6483   37.1514  -15.5081 C   0  0  1  0  0  0  0  0  0  0  0  0
  -10.8907   32.6760  -12.9661 O   0  0  0  0  0  0  0  0  0  0  0  0
   -6.4158   37.2530  -15.7993 O   0  0  0  0  0  0  0  0  0  0  0  0
   -8.7522   33.3950  -12.9399 C   0  0  1  0  0  0  0  0  0  0  0  0
   -8.1523   36.1185  -16.5357 C   0  0  1  0  0  0  0  0  0  0  0  0
   -8.1244   34.2660  -12.1059 O   0  0  0  0  0  0  0  0  0  0  0  0
   -9.4156   36.3694  -16.9005 O   0  0  0  0  0  0  0  0  0  0  0  0
   -8.7565   31.9543  -12.3198 C   0  0  1  0  0  0  0  0  0  0  0  0
   -7.1962   36.1866  -17.7483 C   0  0  1  0  0  0  0  0  0  0  0  0
   -8.3466   32.0118  -10.8908 O   0  0  0  0  0  0  0  0  0  0  0  0
   -7.8263   36.9537  -18.8708 O   0  0  0  0  0  0  0  0  0  0  0  0
   -9.9637   31.5025  -12.4397 C   0  0  2  0  0  0  0  0  0  0  0  0
   -6.1602   36.8220  -17.3193 C   0  0  2  0  0  0  0  0  0  0  0  0
  -10.0479   29.1996  -17.2885 N   0  0  0  0  0  0  0  0  0  0  0  0
   -9.9797   30.5389  -17.0459 C   0  0  0  0  0  0  0  0  0  0  0  0
   -9.9622   31.0286  -15.7647 N   0  0  0  0  0  0  0  0  0  0  0  0
  -10.0173   30.1504  -14.7178 C   0  0  0  0  0  0  0  0  0  0  0  0
  -10.0920   28.8309  -14.9406 C   0  0  0  0  0  0  0  0  0  0  0  0
  -10.0996   28.3411  -16.2455 C   0  0  0  0  0  0  0  0  0  0  0  0
  -10.1743   26.9833  -16.6139 N   0  0  0  0  0  0  0  0  0  0  0  0
  -10.1284   28.2104  -13.7424 N   0  0  0  0  0  0  0  0  0  0  0  0
  -10.0826   29.1683  -12.7731 C   0  0  0  0  0  0  0  0  0  0  0  0
   -9.9966   30.3634  -13.3717 N   0  0  0  0  0  0  0  0  0  0  0  0
   -1.6483   35.7431  -19.6855 N   0  0  0  0  0  0  0  0  0  0  0  0
   -2.5597   36.6795  -20.0581 C   0  0  0  0  0  0  0  0  0  0  0  0
   -3.7051   36.8339  -19.3291 N   0  0  0  0  0  0  0  0  0  0  0  0
   -3.9297   36.0593  -18.2336 C   0  0  0  0  0  0  0  0  0  0  0  0
   -3.0277   35.1313  -17.8553 C   0  0  0  0  0  0  0  0  0  0  0  0
   -1.8656   34.9779  -18.6059 C   0  0  0  0  0  0  0  0  0  0  0  0
   -0.7862   34.0468  -18.3990 N   0  0  0  0  0  0  0  0  0  0  0  0
   -3.5149   34.5203  -16.7488 N   0  0  0  0  0  0  0  0  0  0  0  0
   -4.7199   35.0825  -16.4458 C   0  0  0  0  0  0  0  0  0  0  0  0
   -4.9660   36.0349  -17.3679 N   0  0  0  0  0  0  0  0  0  0  0  0
  1  3  1  1  0  0  0
  1  5  2  0  0  0  0
  1  9  1  0  0  0  0
  1 18  1  0  0  0  0
  2  4  1  6  0  0  0
  2  6  2  0  0  0  0
  2 10  1  0  0  0  0
  2 17  1  0  0  0  0
  7  9  1  0  0  0  0
  8 10  1  0  0  0  0
 11  7  1  6  0  0  0
 11 13  1  0  0  0  0
 11 15  1  0  0  0  0
 12  8  1  1  0  0  0
 12 14  1  0  0  0  0
 12 16  1  0  0  0  0
 13 23  1  0  0  0  0
 14 24  1  0  0  0  0
 15 17  1  1  0  0  0
 15 19  1  0  0  0  0
 16 18  1  6  0  0  0
 16 20  1  0  0  0  0
 19 21  1  1  0  0  0
 19 23  1  0  0  0  0
 20 22  1  6  0  0  0
 20 24  1  0  0  0  0
 23 34  1  6  0  0  0
 24 44  1  1  0  0  0
 25 26  2  0  0  0  0
 25 30  1  0  0  0  0
 26 27  1  0  0  0  0
 27 28  2  0  0  0  0
 28 29  1  0  0  0  0
 28 34  1  0  0  0  0
 29 30  2  0  0  0  0
 29 32  1  0  0  0  0
 30 31  1  0  0  0  0
 32 33  2  0  0  0  0
 33 34  1  0  0  0  0
 35 36  2  0  0  0  0
 35 40  1  0  0  0  0
 36 37  1  0  0  0  0
 37 38  2  0  0  0  0
 38 39  1  0  0  0  0
 38 44  1  0  0  0  0
 39 40  2  0  0  0  0
 39 42  1  0  0  0  0
 40 41  1  0  0  0  0
 42 43  2  0  0  0  0
 43 44  1  0  0  0  0
M  CHG  2   3  -1   4  -1
M  END
>  <CHROM.1>
39.36325574,-136.47372608,-7.69364547,33.82956042,-15.48359063,-3.02978465
0.82515747,0.79368835

>  <Name>
ligand

>  <RI>
0

>  <Rbt.Current_Directory>
/home/itssahil/PROJECTS/Mol_Feturizer/New_Systems/rnas/4QLM

>  <Rbt.Executable>
rbdock ($Id: //depot/dev/client3/rdock/2013.1/src/exe/rbdock.cxx#4 $)

>  <Rbt.Library>
libRbt.so (2013.1, Build901 2013/11/27)

>  <Rbt.Parameter_File>
/export/apps/rDock/src/rDock_2013.1_src/data/scripts/dock_solv.prm

>  <Rbt.Receptor>
prm/pocket_docking_2.prm

>  <SCORE>
11.0718

>  <SCORE.INTER>
11.1686

>  <SCORE.INTER.CONST>
1

>  <SCORE.INTER.POLAR>
0

>  <SCORE.INTER.ROT>
2

>  <SCORE.INTER.SOLV>
33.9728

>  <SCORE.INTER.VDW>
-8.81184

>  <SCORE.INTER.norm>
0.253833

>  <SCORE.INTRA>
-0.984712

>  <SCORE.INTRA.DIHEDRAL>
0.16605

>  <SCORE.INTRA.DIHEDRAL.0>
2.32994

>  <SCORE.INTRA.POLAR>
0

>  <SCORE.INTRA.POLAR.0>
0

>  <SCORE.INTRA.REPUL>
0

>  <SCORE.INTRA.REPUL.0>
0

>  <SCORE.INTRA.SOLV>
0.362317

>  <SCORE.INTRA.SOLV.lig_0>
-117.703

>  <SCORE.INTRA.VDW>
-1.2489

>  <SCORE.INTRA.VDW.0>
-1.59997

>  <SCORE.INTRA.norm>
-0.0223798

>  <SCORE.RESTR>
0.887903

>  <SCORE.RESTR.CAVITY>
0.887903

>  <SCORE.RESTR.norm>
0.0201796

>  <SCORE.SYSTEM>
0

>  <SCORE.SYSTEM.CONST>
0

>  <SCORE.SYSTEM.DIHEDRAL>
0

>  <SCORE.SYSTEM.SOLV>
0

>  <SCORE.SYSTEM.norm>
0

>  <SCORE.heavy>
44

>  <SCORE.norm>
0.251633

>  <RMSD>
1.796

$$$$
ligand
 OpenBabel11021811513D
libRbt.so/2013.1/901 2013/11/27
 44 50  0  0  0  0  0  0  0  0999 V2000
   -4.3825   35.2171  -12.7688 P   0  0  2  0  0  0  0  0  0  0  0  0
   -8.6095   36.6268  -15.8267 P   0  0  1  0  0  0  0  0  0  0  0  0
   -3.5031   36.1645  -11.9566 O   0  5  0  0  0  0  0  0  0  0  0  0
   -8.4649   35.8104  -17.0879 O   0  5  0  0  0  0  0  0  0  0  0  0
   -3.5243   34.0157  -13.0845 O   0  0  0  0  0  0  0  0  0  0  0  0
  -10.0324   37.2303  -15.8287 O   0  0  0  0  0  0  0  0  0  0  0  0
   -4.9087   37.4580  -13.8378 C   0  0  0  0  0  0  0  0  0  0  0  0
   -8.1750   36.2419  -13.3105 C   0  0  0  0  0  0  0  0  0  0  0  0
   -4.8096   36.0400  -14.0270 O   0  0  0  0  0  0  0  0  0  0  0  0
   -8.2021   35.5938  -14.6135 O   0  0  0  0  0  0  0  0  0  0  0  0
   -5.2852   38.1379  -15.1498 C   0  0  1  0  0  0  0  0  0  0  0  0
   -7.9102   35.1009  -12.2570 C   0  0  1  0  0  0  0  0  0  0  0  0
   -4.1980   38.3360  -15.8289 O   0  0  0  0  0  0  0  0  0  0  0  0
   -8.7733   34.2044  -12.5127 O   0  0  0  0  0  0  0  0  0  0  0  0
   -6.1915   37.2966  -16.0187 C   0  0  1  0  0  0  0  0  0  0  0  0
   -6.5794   34.3791  -12.5482 C   0  0  1  0  0  0  0  0  0  0  0  0
   -7.4534   37.7682  -15.8353 O   0  0  0  0  0  0  0  0  0  0  0  0
   -5.6070   34.7993  -11.7297 O   0  0  0  0  0  0  0  0  0  0  0  0
   -5.6996   37.6089  -17.4750 C   0  0  1  0  0  0  0  0  0  0  0  0
   -6.8410   32.8656  -12.3746 C   0  0  1  0  0  0  0  0  0  0  0  0
   -6.6211   38.5766  -18.1291 O   0  0  0  0  0  0  0  0  0  0  0  0
   -6.3029   32.3875  -11.0604 O   0  0  0  0  0  0  0  0  0  0  0  0
   -4.5078   38.1023  -17.3661 C   0  0  2  0  0  0  0  0  0  0  0  0
   -8.1243   32.7470  -12.3845 C   0  0  2  0  0  0  0  0  0  0  0  0
   -0.8920   36.5757  -21.0290 N   0  0  0  0  0  0  0  0  0  0  0  0
   -1.5689   37.7585  -21.0254 C   0  0  0  0  0  0  0  0  0  0  0  0
   -2.4751   38.0551  -20.0394 N   0  0  0  0  0  0  0  0  0  0  0  0
   -2.6995   37.1409  -19.0474 C   0  0  0  0  0  0  0  0  0  0  0  0
   -2.0468   35.9703  -19.0415 C   0  0  0  0  0  0  0  0  0  0  0  0
   -1.1205   35.6807  -20.0419 C   0  0  0  0  0  0  0  0  0  0  0  0
   -0.3712   34.4926  -20.1500 N   0  0  0  0  0  0  0  0  0  0  0  0
   -2.4549   35.2746  -17.9591 N   0  0  0  0  0  0  0  0  0  0  0  0
   -3.3772   36.0308  -17.2983 C   0  0  0  0  0  0  0  0  0  0  0  0
   -3.5167   37.1885  -17.9575 N   0  0  0  0  0  0  0  0  0  0  0  0
  -12.1523   31.0426  -15.2112 N   0  0  0  0  0  0  0  0  0  0  0  0
  -12.2037   31.8818  -14.1437 C   0  0  0  0  0  0  0  0  0  0  0  0
  -11.0482   32.2290  -13.5022 N   0  0  0  0  0  0  0  0  0  0  0  0
   -9.8529   31.7427  -13.9324 C   0  0  0  0  0  0  0  0  0  0  0  0
   -9.7938   30.9132  -14.9938 C   0  0  0  0  0  0  0  0  0  0  0  0
  -10.9760   30.5615  -15.6389 C   0  0  0  0  0  0  0  0  0  0  0  0
  -11.1492   29.6845  -16.7685 N   0  0  0  0  0  0  0  0  0  0  0  0
   -8.4915   30.5937  -15.1863 N   0  0  0  0  0  0  0  0  0  0  0  0
   -7.7495   31.2366  -14.2397 C   0  0  0  0  0  0  0  0  0  0  0  0
   -8.6001   31.9466  -13.4713 N   0  0  0  0  0  0  0  0  0  0  0  0
  1  3  1  1  0  0  0
  1  5  2  0  0  0  0
  1  9  1  0  0  0  0
  1 18  1  0  0  0  0
  2  4  1  6  0  0  0
  2  6  2  0  0  0  0
  2 10  1  0  0  0  0
  2 17  1  0  0  0  0
  7  9  1  0  0  0  0
  8 10  1  0  0  0  0
 11  7  1  1  0  0  0
 11 13  1  0  0  0  0
 11 15  1  0  0  0  0
 12  8  1  6  0  0  0
 12 14  1  0  0  0  0
 12 16  1  0  0  0  0
 13 23  1  0  0  0  0
 14 24  1  0  0  0  0
 15 17  1  6  0  0  0
 15 19  1  0  0  0  0
 16 18  1  1  0  0  0
 16 20  1  0  0  0  0
 19 21  1  1  0  0  0
 19 23  1  0  0  0  0
 20 22  1  1  0  0  0
 20 24  1  0  0  0  0
 23 34  1  1  0  0  0
 24 44  1  6  0  0  0
 25 26  2  0  0  0  0
 25 30  1  0  0  0  0
 26 27  1  0  0  0  0
 27 28  2  0  0  0  0
 28 29  1  0  0  0  0
 28 34  1  0  0  0  0
 29 30  2  0  0  0  0
 29 32  1  0  0  0  0
 30 31  1  0  0  0  0
 32 33  2  0  0  0  0
 33 34  1  0  0  0  0
 35 36  2  0  0  0  0
 35 40  1  0  0  0  0
 36 37  1  0  0  0  0
 37 38  2  0  0  0  0
 38 39  1  0  0  0  0
 38 44  1  0  0  0  0
 39 40  2  0  0  0  0
 39 42  1  0  0  0  0
 40 41  1  0  0  0  0
 42 43  2  0  0  0  0
 43 44  1  0  0  0  0
M  CHG  2   3  -1   4  -1
M  END
>  <CHROM.1>
-130.20274764,-49.18331403,-6.32100116,35.07890738,-15.39766351,-0.55195432
0.56683600,1.62984782

>  <Name>
ligand

>  <RI>
0

>  <Rbt.Current_Directory>
/home/itssahil/PROJECTS/Mol_Feturizer/New_Systems/rnas/4QLM

>  <Rbt.Executable>
rbdock ($Id: //depot/dev/client3/rdock/2013.1/src/exe/rbdock.cxx#4 $)

>  <Rbt.Library>
libRbt.so (2013.1, Build901 2013/11/27)

>  <Rbt.Parameter_File>
/export/apps/rDock/src/rDock_2013.1_src/data/scripts/dock_solv.prm

>  <Rbt.Receptor>
prm/pocket_docking_3.prm

>  <SCORE>
-9.81687

>  <SCORE.INTER>
-11.9914

>  <SCORE.INTER.CONST>
1

>  <SCORE.INTER.POLAR>
0

>  <SCORE.INTER.ROT>
2

>  <SCORE.INTER.SOLV>
31.3608

>  <SCORE.INTER.VDW>
-23.3812

>  <SCORE.INTER.norm>
-0.272533

>  <SCORE.INTRA>
2.0822

>  <SCORE.INTRA.DIHEDRAL>
0.0305807

>  <SCORE.INTRA.DIHEDRAL.0>
2.32994

>  <SCORE.INTRA.POLAR>
0

>  <SCORE.INTRA.POLAR.0>
0

>  <SCORE.INTRA.REPUL>
0

>  <SCORE.INTRA.REPUL.0>
0

>  <SCORE.INTRA.SOLV>
0.0688741

>  <SCORE.INTRA.SOLV.lig_0>
-117.703

>  <SCORE.INTRA.VDW>
2.03248

>  <SCORE.INTRA.VDW.0>
-1.59997

>  <SCORE.INTRA.norm>
0.0473228

>  <SCORE.RESTR>
0.0923713

>  <SCORE.RESTR.CAVITY>
0.0923713

>  <SCORE.RESTR.norm>
0.00209935

>  <SCORE.SYSTEM>
0

>  <SCORE.SYSTEM.CONST>
0

>  <SCORE.SYSTEM.DIHEDRAL>
0

>  <SCORE.SYSTEM.SOLV>
0

>  <SCORE.SYSTEM.norm>
0

>  <SCORE.heavy>
44

>  <SCORE.norm>
-0.223111

>  <RMSD>
1.796

$$$$
ligand
 OpenBabel11021811513D
libRbt.so/2013.1/901 2013/11/27
 44 50  0  0  0  0  0  0  0  0999 V2000
   -4.3590   35.2657  -12.7552 P   0  0  2  0  0  0  0  0  0  0  0  0
   -8.5802   36.6632  -15.8267 P   0  0  1  0  0  0  0  0  0  0  0  0
   -3.4845   36.2157  -11.9407 O   0  5  0  0  0  0  0  0  0  0  0  0
   -8.4296   35.8466  -17.0871 O   0  5  0  0  0  0  0  0  0  0  0  0
   -3.4967   34.0664  -13.0677 O   0  0  0  0  0  0  0  0  0  0  0  0
  -10.0046   37.2631  -15.8334 O   0  0  0  0  0  0  0  0  0  0  0  0
   -4.8877   37.5047  -13.8268 C   0  0  0  0  0  0  0  0  0  0  0  0
   -8.1524   36.2805  -13.3089 C   0  0  0  0  0  0  0  0  0  0  0  0
   -4.7843   36.0869  -14.0151 O   0  0  0  0  0  0  0  0  0  0  0  0
   -8.1738   35.6318  -14.6118 O   0  0  0  0  0  0  0  0  0  0  0  0
   -5.2618   38.1832  -15.1403 C   0  0  1  0  0  0  0  0  0  0  0  0
   -7.8879   35.1407  -12.2542 C   0  0  1  0  0  0  0  0  0  0  0  0
   -4.1730   38.3837  -15.8161 O   0  0  0  0  0  0  0  0  0  0  0  0
   -8.7479   34.2419  -12.5121 O   0  0  0  0  0  0  0  0  0  0  0  0
   -6.1633   37.3392  -16.0116 C   0  0  1  0  0  0  0  0  0  0  0  0
   -6.5543   34.4222  -12.5409 C   0  0  1  0  0  0  0  0  0  0  0  0
   -7.4270   37.8076  -15.8323 O   0  0  0  0  0  0  0  0  0  0  0  0
   -5.5856   34.8452  -11.7197 O   0  0  0  0  0  0  0  0  0  0  0  0
   -5.6677   37.6521  -17.4664 C   0  0  1  0  0  0  0  0  0  0  0  0
   -6.8126   32.9081  -12.3674 C   0  0  1  0  0  0  0  0  0  0  0  0
   -6.5897   38.6171  -18.1238 O   0  0  0  0  0  0  0  0  0  0  0  0
   -6.2773   32.4319  -11.0514 O   0  0  0  0  0  0  0  0  0  0  0  0
   -4.4775   38.1485  -17.3541 C   0  0  2  0  0  0  0  0  0  0  0  0
   -8.0956   32.7862  -12.3813 C   0  0  2  0  0  0  0  0  0  0  0  0
   -0.9064   36.5920  -21.0481 N   0  0  0  0  0  0  0  0  0  0  0  0
   -1.6033   37.7630  -21.0604 C   0  0  0  0  0  0  0  0  0  0  0  0
   -2.4956   38.0689  -20.0645 N   0  0  0  0  0  0  0  0  0  0  0  0
   -2.6853   37.1760  -19.0462 C   0  0  0  0  0  0  0  0  0  0  0  0
   -2.0125   36.0170  -19.0242 C   0  0  0  0  0  0  0  0  0  0  0  0
   -1.1006   35.7182  -20.0351 C   0  0  0  0  0  0  0  0  0  0  0  0
   -0.3331   34.5404  -20.1285 N   0  0  0  0  0  0  0  0  0  0  0  0
   -2.3879   35.3417  -17.9173 N   0  0  0  0  0  0  0  0  0  0  0  0
   -3.3103   36.0986  -17.2574 C   0  0  0  0  0  0  0  0  0  0  0  0
   -3.4822   37.2370  -17.9421 N   0  0  0  0  0  0  0  0  0  0  0  0
  -12.1167   31.0190  -15.1792 N   0  0  0  0  0  0  0  0  0  0  0  0
  -12.1743   31.8490  -14.1048 C   0  0  0  0  0  0  0  0  0  0  0  0
  -11.0197   32.2156  -13.4726 N   0  0  0  0  0  0  0  0  0  0  0  0
   -9.8190   31.7574  -13.9189 C   0  0  0  0  0  0  0  0  0  0  0  0
   -9.7539   30.9372  -14.9871 C   0  0  0  0  0  0  0  0  0  0  0  0
  -10.9351   30.5657  -15.6227 C   0  0  0  0  0  0  0  0  0  0  0  0
  -11.1019   29.6937  -16.7570 N   0  0  0  0  0  0  0  0  0  0  0  0
   -8.4473   30.6465  -15.1954 N   0  0  0  0  0  0  0  0  0  0  0  0
   -7.7089   31.2977  -14.2517 C   0  0  0  0  0  0  0  0  0  0  0  0
   -8.5659   31.9841  -13.4692 N   0  0  0  0  0  0  0  0  0  0  0  0
  1  3  1  1  0  0  0
  1  5  2  0  0  0  0
  1  9  1  0  0  0  0
  1 18  1  0  0  0  0
  2  4  1  6  0  0  0
  2  6  2  0  0  0  0
  2 10  1  0  0  0  0
  2 17  1  0  0  0  0
  7  9  1  0  0  0  0
  8 10  1  0  0  0  0
 11  7  1  1  0  0  0
 11 13  1  0  0  0  0
 11 15  1  0  0  0  0
 12  8  1  6  0  0  0
 12 14  1  0  0  0  0
 12 16  1  0  0  0  0
 13 23  1  0  0  0  0
 14 24  1  0  0  0  0
 15 17  1  6  0  0  0
 15 19  1  0  0  0  0
 16 18  1  1  0  0  0
 16 20  1  0  0  0  0
 19 21  1  1  0  0  0
 19 23  1  0  0  0  0
 20 22  1  1  0  0  0
 20 24  1  0  0  0  0
 23 34  1  1  0  0  0
 24 44  1  6  0  0  0
 25 26  2  0  0  0  0
 25 30  1  0  0  0  0
 26 27  1  0  0  0  0
 27 28  2  0  0  0  0
 28 29  1  0  0  0  0
 28 34  1  0  0  0  0
 29 30  2  0  0  0  0
 29 32  1  0  0  0  0
 30 31  1  0  0  0  0
 32 33  2  0  0  0  0
 33 34  1  0  0  0  0
 35 36  2  0  0  0  0
 35 40  1  0  0  0  0
 36 37  1  0  0  0  0
 37 38  2  0  0  0  0
 38 39  1  0  0  0  0
 38 44  1  0  0  0  0
 39 40  2  0  0  0  0
 39 42  1  0  0  0  0
 40 41  1  0  0  0  0
 42 43  2  0  0  0  0
 43 44  1  0  0  0  0
M  CHG  2   3  -1   4  -1
M  END
>  <CHROM.1>
-132.26652864,-50.56250957,-6.29356400,35.11481185,-15.38957999,-0.54599285
0.57665222,1.61762775

>  <Name>
ligand

>  <RI>
0

>  <Rbt.Current_Directory>
/home/itssahil/PROJECTS/Mol_Feturizer/New_Systems/rnas/4QLM

>  <Rbt.Executable>
rbdock ($Id: //depot/dev/client3/rdock/2013.1/src/exe/rbdock.cxx#4 $)

>  <Rbt.Library>
libRbt.so (2013.1, Build901 2013/11/27)

>  <Rbt.Parameter_File>
/export/apps/rDock/src/rDock_2013.1_src/data/scripts/dock_solv.prm

>  <Rbt.Receptor>
prm/pocket_docking_4.prm

>  <SCORE>
-9.76582

>  <SCORE.INTER>
-12.1899

>  <SCORE.INTER.CONST>
1

>  <SCORE.INTER.POLAR>
0

>  <SCORE.INTER.ROT>
2

>  <SCORE.INTER.SOLV>
31.3098

>  <SCORE.INTER.VDW>
-23.4966

>  <SCORE.INTER.norm>
-0.277044

>  <SCORE.INTRA>
2.04135

>  <SCORE.INTRA.DIHEDRAL>
0.0199862

>  <SCORE.INTRA.DIHEDRAL.0>
2.32994

>  <SCORE.INTRA.POLAR>
0

>  <SCORE.INTRA.POLAR.0>
0

>  <SCORE.INTRA.REPUL>
0

>  <SCORE.INTRA.REPUL.0>
0

>  <SCORE.INTRA.SOLV>
0.0675202

>  <SCORE.INTRA.SOLV.lig_0>
-117.703

>  <SCORE.INTRA.VDW>
1.9976

>  <SCORE.INTRA.VDW.0>
-1.59997

>  <SCORE.INTRA.norm>
0.0463944

>  <SCORE.RESTR>
0.382762

>  <SCORE.RESTR.CAVITY>
0.382762

>  <SCORE.RESTR.norm>
0.00869913

>  <SCORE.SYSTEM>
0

>  <SCORE.SYSTEM.CONST>
0

>  <SCORE.SYSTEM.DIHEDRAL>
0

>  <SCORE.SYSTEM.SOLV>
0

>  <SCORE.SYSTEM.norm>
0

>  <SCORE.heavy>
44

>  <SCORE.norm>
-0.22195

>  <RMSD>
1.816

$$$$
ligand
 OpenBabel11021811513D
libRbt.so/2013.1/901 2013/11/27
 44 50  0  0  0  0  0  0  0  0999 V2000
   -5.4929   36.3565  -13.1405 P   0  0  2  0  0  0  0  0  0  0  0  0
   -8.9453   35.8808  -17.2709 P   0  0  1  0  0  0  0  0  0  0  0  0
   -4.9363   37.6620  -12.5782 O   0  5  0  0  0  0  0  0  0  0  0  0
   -8.4159   34.7273  -18.0877 O   0  5  0  0  0  0  0  0  0  0  0  0
   -4.4730   35.2916  -12.8158 O   0  0  0  0  0  0  0  0  0  0  0  0
  -10.3742   36.1855  -17.7755 O   0  0  0  0  0  0  0  0  0  0  0  0
   -5.9487   37.9759  -15.0408 C   0  0  0  0  0  0  0  0  0  0  0  0
   -9.1128   36.4484  -14.7573 C   0  0  0  0  0  0  0  0  0  0  0  0
   -5.6714   36.6184  -14.6710 O   0  0  0  0  0  0  0  0  0  0  0  0
   -8.7547   35.4059  -15.7079 O   0  0  0  0  0  0  0  0  0  0  0  0
   -6.0514   38.0966  -16.5575 C   0  0  1  0  0  0  0  0  0  0  0  0
   -9.0099   35.7945  -13.3278 C   0  0  1  0  0  0  0  0  0  0  0  0
   -4.8539   38.2444  -17.0333 O   0  0  0  0  0  0  0  0  0  0  0  0
   -9.6934   34.7261  -13.4000 O   0  0  0  0  0  0  0  0  0  0  0  0
   -6.6301   36.8652  -17.2157 C   0  0  1  0  0  0  0  0  0  0  0  0
   -7.5860   35.2654  -13.0643 C   0  0  1  0  0  0  0  0  0  0  0  0
   -7.9371   37.1389  -17.4714 O   0  0  0  0  0  0  0  0  0  0  0  0
   -6.8911   36.1020  -12.2839 O   0  0  0  0  0  0  0  0  0  0  0  0
   -5.8249   36.7516  -18.5569 C   0  0  1  0  0  0  0  0  0  0  0  0
   -7.7373   33.8776  -12.4007 C   0  0  1  0  0  0  0  0  0  0  0  0
   -6.6435   37.2628  -19.6892 O   0  0  0  0  0  0  0  0  0  0  0  0
   -7.4984   33.9731  -10.9245 O   0  0  0  0  0  0  0  0  0  0  0  0
   -4.7497   37.4562  -18.4049 C   0  0  2  0  0  0  0  0  0  0  0  0
   -8.9608   33.5366  -12.6190 C   0  0  2  0  0  0  0  0  0  0  0  0
   -0.0983   35.6086  -20.3470 N   0  0  0  0  0  0  0  0  0  0  0  0
   -0.8327   36.6265  -20.8777 C   0  0  0  0  0  0  0  0  0  0  0  0
   -2.0124   37.0258  -20.3029 N   0  0  0  0  0  0  0  0  0  0  0  0
   -2.4536   36.3840  -19.1788 C   0  0  0  0  0  0  0  0  0  0  0  0
   -1.7458   35.3764  -18.6493 C   0  0  0  0  0  0  0  0  0  0  0  0
   -0.5433   34.9832  -19.2342 C   0  0  0  0  0  0  0  0  0  0  0  0
    0.2918   33.9440  -18.7785 N   0  0  0  0  0  0  0  0  0  0  0  0
   -2.4053   34.9371  -17.5565 N   0  0  0  0  0  0  0  0  0  0  0  0
   -3.5377   35.6846  -17.4219 C   0  0  0  0  0  0  0  0  0  0  0  0
   -3.5607   36.5882  -18.4104 N   0  0  0  0  0  0  0  0  0  0  0  0
  -11.5500   30.8435  -16.2471 N   0  0  0  0  0  0  0  0  0  0  0  0
  -11.8692   32.0721  -15.7624 C   0  0  0  0  0  0  0  0  0  0  0  0
  -11.0850   32.6423  -14.7996 N   0  0  0  0  0  0  0  0  0  0  0  0
   -9.9880   31.9872  -14.3327 C   0  0  0  0  0  0  0  0  0  0  0  0
   -9.6626   30.7697  -14.8123 C   0  0  0  0  0  0  0  0  0  0  0  0
  -10.4691   30.1946  -15.7900 C   0  0  0  0  0  0  0  0  0  0  0  0
  -10.3234   28.9096  -16.4245 N   0  0  0  0  0  0  0  0  0  0  0  0
   -8.5404   30.3676  -14.1688 N   0  0  0  0  0  0  0  0  0  0  0  0
   -8.1746   31.3481  -13.2943 C   0  0  0  0  0  0  0  0  0  0  0  0
   -9.0743   32.3464  -13.4054 N   0  0  0  0  0  0  0  0  0  0  0  0
  1  3  1  1  0  0  0
  1  5  2  0  0  0  0
  1  9  1  0  0  0  0
  1 18  1  0  0  0  0
  2  4  1  6  0  0  0
  2  6  2  0  0  0  0
  2 10  1  0  0  0  0
  2 17  1  0  0  0  0
  7  9  1  0  0  0  0
  8 10  1  0  0  0  0
 11  7  1  1  0  0  0
 11 13  1  0  0  0  0
 11 15  1  0  0  0  0
 12  8  1  6  0  0  0
 12 14  1  0  0  0  0
 12 16  1  0  0  0  0
 13 23  1  0  0  0  0
 14 24  1  0  0  0  0
 15 17  1  6  0  0  0
 15 19  1  0  0  0  0
 16 18  1  1  0  0  0
 16 20  1  0  0  0  0
 19 21  1  6  0  0  0
 19 23  1  0  0  0  0
 20 22  1  1  0  0  0
 20 24  1  0  0  0  0
 23 34  1  1  0  0  0
 24 44  1  6  0  0  0
 25 26  2  0  0  0  0
 25 30  1  0  0  0  0
 26 27  1  0  0  0  0
 27 28  2  0  0  0  0
 28 29  1  0  0  0  0
 28 34  1  0  0  0  0
 29 30  2  0  0  0  0
 29 32  1  0  0  0  0
 30 31  1  0  0  0  0
 32 33  2  0  0  0  0
 33 34  1  0  0  0  0
 35 36  2  0  0  0  0
 35 40  1  0  0  0  0
 36 37  1  0  0  0  0
 37 38  2  0  0  0  0
 38 39  1  0  0  0  0
 38 44  1  0  0  0  0
 39 40  2  0  0  0  0
 39 42  1  0  0  0  0
 40 41  1  0  0  0  0
 42 43  2  0  0  0  0
 43 44  1  0  0  0  0
M  CHG  2   3  -1   4  -1
M  END
>  <CHROM.1>
-124.68124493,-25.13108211,-6.65659162,35.05276502,-15.92157468,-0.30690336
0.61331706,1.19477792

>  <Name>
ligand

>  <RI>
0

>  <Rbt.Current_Directory>
/home/itssahil/PROJECTS/Mol_Feturizer/New_Systems/rnas/4QLM

>  <Rbt.Executable>
rbdock ($Id: //depot/dev/client3/rdock/2013.1/src/exe/rbdock.cxx#4 $)

>  <Rbt.Library>
libRbt.so (2013.1, Build901 2013/11/27)

>  <Rbt.Parameter_File>
/export/apps/rDock/src/rDock_2013.1_src/data/scripts/dock_solv.prm

>  <Rbt.Receptor>
prm/pocket_docking_4.prm

>  <SCORE>
22.7246

>  <SCORE.INTER>
21.2519

>  <SCORE.INTER.CONST>
1

>  <SCORE.INTER.POLAR>
0

>  <SCORE.INTER.ROT>
2

>  <SCORE.INTER.SOLV>
32.4967

>  <SCORE.INTER.VDW>
-1.59765

>  <SCORE.INTER.norm>
0.482997

>  <SCORE.INTRA>
1.31898

>  <SCORE.INTRA.DIHEDRAL>
0.0641549

>  <SCORE.INTRA.DIHEDRAL.0>
2.32994

>  <SCORE.INTRA.POLAR>
0

>  <SCORE.INTRA.POLAR.0>
0

>  <SCORE.INTRA.REPUL>
0

>  <SCORE.INTRA.REPUL.0>
0

>  <SCORE.INTRA.SOLV>
0.0852072

>  <SCORE.INTRA.SOLV.lig_0>
-117.703

>  <SCORE.INTRA.VDW>
1.24429

>  <SCORE.INTRA.VDW.0>
-1.59997

>  <SCORE.INTRA.norm>
0.0299767

>  <SCORE.RESTR>
0.153809

>  <SCORE.RESTR.CAVITY>
0.153809

>  <SCORE.RESTR.norm>
0.00349566

>  <SCORE.SYSTEM>
0

>  <SCORE.SYSTEM.CONST>
0

>  <SCORE.SYSTEM.DIHEDRAL>
0

>  <SCORE.SYSTEM.SOLV>
0

>  <SCORE.SYSTEM.norm>
0

>  <SCORE.heavy>
44

>  <SCORE.norm>
0.516469

>  <RMSD>
1.844

$$$$
ligand
 OpenBabel11021811513D
libRbt.so/2013.1/901 2013/11/27
 44 50  0  0  0  0  0  0  0  0999 V2000
   -8.4987   36.4794  -16.0107 P   0  0  2  0  0  0  0  0  0  0  0  0
   -4.3998   34.8146  -12.9069 P   0  0  1  0  0  0  0  0  0  0  0  0
   -9.7593   37.1937  -15.5302 O   0  5  0  0  0  0  0  0  0  0  0  0
   -4.0513   33.4418  -13.4285 O   0  5  0  0  0  0  0  0  0  0  0  0
   -8.8784   35.7745  -17.2907 O   0  0  0  0  0  0  0  0  0  0  0  0
   -3.2520   35.2573  -11.9712 O   0  0  0  0  0  0  0  0  0  0  0  0
   -8.4832   35.9464  -13.5294 C   0  0  0  0  0  0  0  0  0  0  0  0
   -5.1623   37.0527  -13.9452 C   0  0  0  0  0  0  0  0  0  0  0  0
   -8.1118   35.5130  -14.8449 O   0  0  0  0  0  0  0  0  0  0  0  0
   -4.6963   35.7089  -14.2549 O   0  0  0  0  0  0  0  0  0  0  0  0
   -8.0904   34.8931  -12.4989 C   0  0  1  0  0  0  0  0  0  0  0  0
   -5.2628   37.8117  -15.3219 C   0  0  1  0  0  0  0  0  0  0  0  0
   -9.0388   34.0100  -12.4418 O   0  0  0  0  0  0  0  0  0  0  0  0
   -4.1373   37.6337  -15.8836 O   0  0  0  0  0  0  0  0  0  0  0  0
   -6.8259   34.1482  -12.8600 C   0  0  1  0  0  0  0  0  0  0  0  0
   -6.2338   37.0921  -16.2791 C   0  0  1  0  0  0  0  0  0  0  0  0
   -5.8236   34.7077  -12.1316 O   0  0  0  0  0  0  0  0  0  0  0  0
   -7.4232   37.7048  -16.3194 O   0  0  0  0  0  0  0  0  0  0  0  0
   -7.1064   32.6858  -12.3674 C   0  0  1  0  0  0  0  0  0  0  0  0
   -5.5645   37.0784  -17.6724 C   0  0  1  0  0  0  0  0  0  0  0  0
   -6.4148   32.4411  -11.0731 O   0  0  0  0  0  0  0  0  0  0  0  0
   -6.1698   38.1267  -18.5555 O   0  0  0  0  0  0  0  0  0  0  0  0
   -8.3898   32.5782  -12.2366 C   0  0  2  0  0  0  0  0  0  0  0  0
   -4.3275   37.3632  -17.4496 C   0  0  2  0  0  0  0  0  0  0  0  0
  -11.5046   31.0802  -16.3446 N   0  0  0  0  0  0  0  0  0  0  0  0
  -11.4283   32.3364  -15.8219 C   0  0  0  0  0  0  0  0  0  0  0  0
  -10.5966   32.6180  -14.7681 N   0  0  0  0  0  0  0  0  0  0  0  0
   -9.8356   31.6137  -14.2366 C   0  0  0  0  0  0  0  0  0  0  0  0
   -9.9052   30.3715  -14.7352 C   0  0  0  0  0  0  0  0  0  0  0  0
  -10.7459   30.0960  -15.8123 C   0  0  0  0  0  0  0  0  0  0  0  0
  -10.9103   28.8389  -16.4267 N   0  0  0  0  0  0  0  0  0  0  0  0
   -9.0545   29.5950  -14.0313 N   0  0  0  0  0  0  0  0  0  0  0  0
   -8.4620   30.3754  -13.0831 C   0  0  0  0  0  0  0  0  0  0  0  0
   -8.9289   31.6235  -13.2190 N   0  0  0  0  0  0  0  0  0  0  0  0
   -0.5297   35.6920  -20.5967 N   0  0  0  0  0  0  0  0  0  0  0  0
   -1.1343   36.9086  -20.6247 C   0  0  0  0  0  0  0  0  0  0  0  0
   -2.1263   37.1900  -19.7281 N   0  0  0  0  0  0  0  0  0  0  0  0
   -2.5031   36.2605  -18.8091 C   0  0  0  0  0  0  0  0  0  0  0  0
   -1.9045   35.0528  -18.7724 C   0  0  0  0  0  0  0  0  0  0  0  0
   -0.8977   34.7732  -19.6919 C   0  0  0  0  0  0  0  0  0  0  0  0
   -0.1431   33.5559  -19.8461 N   0  0  0  0  0  0  0  0  0  0  0  0
   -2.4799   34.3458  -17.7704 N   0  0  0  0  0  0  0  0  0  0  0  0
   -3.4325   35.1285  -17.1874 C   0  0  0  0  0  0  0  0  0  0  0  0
   -3.4369   36.3113  -17.8348 N   0  0  0  0  0  0  0  0  0  0  0  0
  1  3  1  1  0  0  0
  1  5  2  0  0  0  0
  1  9  1  0  0  0  0
  1 18  1  0  0  0  0
  2  4  1  6  0  0  0
  2  6  2  0  0  0  0
  2 10  1  0  0  0  0
  2 17  1  0  0  0  0
  7  9  1  0  0  0  0
  8 10  1  0  0  0  0
 11  7  1  6  0  0  0
 11 13  1  0  0  0  0
 11 15  1  0  0  0  0
 12  8  1  1  0  0  0
 12 14  1  0  0  0  0
 12 16  1  0  0  0  0
 13 23  1  0  0  0  0
 14 24  1  0  0  0  0
 15 17  1  1  0  0  0
 15 19  1  0  0  0  0
 16 18  1  6  0  0  0
 16 20  1  0  0  0  0
 19 21  1  1  0  0  0
 19 23  1  0  0  0  0
 20 22  1  6  0  0  0
 20 24  1  0  0  0  0
 23 34  1  6  0  0  0
 24 44  1  1  0  0  0
 25 26  2  0  0  0  0
 25 30  1  0  0  0  0
 26 27  1  0  0  0  0
 27 28  2  0  0  0  0
 28 29  1  0  0  0  0
 28 34  1  0  0  0  0
 29 30  2  0  0  0  0
 29 32  1  0  0  0  0
 30 31  1  0  0  0  0
 32 33  2  0  0  0  0
 33 34  1  0  0  0  0
 35 36  2  0  0  0  0
 35 40  1  0  0  0  0
 36 37  1  0  0  0  0
 37 38  2  0  0  0  0
 38 39  1  0  0  0  0
 38 44  1  0  0  0  0
 39 40  2  0  0  0  0
 39 42  1  0  0  0  0
 40 41  1  0  0  0  0
 42 43  2  0  0  0  0
 43 44  1  0  0  0  0
M  CHG  2   3  -1   4  -1
M  END
>  <CHROM.1>
-1.22569171,-126.23641354,-6.29620122,34.65416019,-15.46581890,2.63968975
0.54754780,1.56891542

>  <Name>
ligand

>  <RI>
0

>  <Rbt.Current_Directory>
/home/itssahil/PROJECTS/Mol_Feturizer/New_Systems/rnas/4QLM

>  <Rbt.Executable>
rbdock ($Id: //depot/dev/client3/rdock/2013.1/src/exe/rbdock.cxx#4 $)

>  <Rbt.Library>
libRbt.so (2013.1, Build901 2013/11/27)

>  <Rbt.Parameter_File>
/export/apps/rDock/src/rDock_2013.1_src/data/scripts/dock_solv.prm

>  <Rbt.Receptor>
prm/pocket_docking_5.prm

>  <SCORE>
-13.9184

>  <SCORE.INTER>
-14.1591

>  <SCORE.INTER.CONST>
1

>  <SCORE.INTER.POLAR>
0

>  <SCORE.INTER.ROT>
2

>  <SCORE.INTER.SOLV>
32.6422

>  <SCORE.INTER.VDW>
-25.2535

>  <SCORE.INTER.norm>
-0.321798

>  <SCORE.INTRA>
0.214096

>  <SCORE.INTRA.DIHEDRAL>
0.0760598

>  <SCORE.INTRA.DIHEDRAL.0>
2.32994

>  <SCORE.INTRA.POLAR>
0

>  <SCORE.INTRA.POLAR.0>
0

>  <SCORE.INTRA.REPUL>
0

>  <SCORE.INTRA.REPUL.0>
0

>  <SCORE.INTRA.SOLV>
0.0601609

>  <SCORE.INTRA.SOLV.lig_0>
-117.703

>  <SCORE.INTRA.VDW>
0.145986

>  <SCORE.INTRA.VDW.0>
-1.59997

>  <SCORE.INTRA.norm>
0.00486582

>  <SCORE.RESTR>
0.0266753

>  <SCORE.RESTR.CAVITY>
0.0266753

>  <SCORE.RESTR.norm>
0.000606256

>  <SCORE.SYSTEM>
0

>  <SCORE.SYSTEM.CONST>
0

>  <SCORE.SYSTEM.DIHEDRAL>
0

>  <SCORE.SYSTEM.SOLV>
0

>  <SCORE.SYSTEM.norm>
0

>  <SCORE.heavy>
44

>  <SCORE.norm>
-0.316326

>  <RMSD>
1.866

$$$$
ligand
 OpenBabel11021811513D
libRbt.so/2013.1/901 2013/11/27
 44 50  0  0  0  0  0  0  0  0999 V2000
   -8.7178   36.3425  -15.8233 P   0  0  2  0  0  0  0  0  0  0  0  0
   -4.4306   34.9735  -12.8315 P   0  0  1  0  0  0  0  0  0  0  0  0
  -10.0244   36.9376  -15.3047 O   0  5  0  0  0  0  0  0  0  0  0  0
   -3.9777   33.6456  -13.3879 O   0  5  0  0  0  0  0  0  0  0  0  0
   -9.0623   35.6324  -17.1104 O   0  0  0  0  0  0  0  0  0  0  0  0
   -3.3057   35.4943  -11.9083 O   0  0  0  0  0  0  0  0  0  0  0  0
   -8.6069   35.7653  -13.3543 C   0  0  0  0  0  0  0  0  0  0  0  0
   -5.4008   37.1580  -13.8087 C   0  0  0  0  0  0  0  0  0  0  0  0
   -8.2269   35.3904  -14.6852 O   0  0  0  0  0  0  0  0  0  0  0  0
   -4.8291   35.8650  -14.1549 O   0  0  0  0  0  0  0  0  0  0  0  0
   -8.1055   34.7298  -12.3534 C   0  0  1  0  0  0  0  0  0  0  0  0
   -5.5932   37.9319  -15.1672 C   0  0  1  0  0  0  0  0  0  0  0  0
   -8.9743   33.7683  -12.2971 O   0  0  0  0  0  0  0  0  0  0  0  0
   -4.4682   37.8611  -15.7533 O   0  0  0  0  0  0  0  0  0  0  0  0
   -6.7900   34.1023  -12.7534 C   0  0  1  0  0  0  0  0  0  0  0  0
   -6.5189   37.1507  -16.1210 C   0  0  1  0  0  0  0  0  0  0  0  0
   -5.8241   34.7310  -12.0323 O   0  0  0  0  0  0  0  0  0  0  0  0
   -7.7565   37.6607  -16.1264 O   0  0  0  0  0  0  0  0  0  0  0  0
   -6.9356   32.6121  -12.2861 C   0  0  1  0  0  0  0  0  0  0  0  0
   -5.8793   37.2206  -17.5264 C   0  0  1  0  0  0  0  0  0  0  0  0
   -6.1996   32.4025  -11.0103 O   0  0  0  0  0  0  0  0  0  0  0  0
   -6.5890   38.2303  -18.3762 O   0  0  0  0  0  0  0  0  0  0  0  0
   -8.2024   32.3932  -12.1337 C   0  0  2  0  0  0  0  0  0  0  0  0
   -4.6665   37.6054  -17.3208 C   0  0  2  0  0  0  0  0  0  0  0  0
   -8.8374   30.4189  -17.0855 N   0  0  0  0  0  0  0  0  0  0  0  0
   -8.1534   31.5528  -16.7638 C   0  0  0  0  0  0  0  0  0  0  0  0
   -8.0477   31.9734  -15.4624 N   0  0  0  0  0  0  0  0  0  0  0  0
   -8.6446   31.2371  -14.4766 C   0  0  0  0  0  0  0  0  0  0  0  0
   -9.3267   30.1236  -14.7782 C   0  0  0  0  0  0  0  0  0  0  0  0
   -9.4213   29.6981  -16.1021 C   0  0  0  0  0  0  0  0  0  0  0  0
  -10.1054   28.5509  -16.5505 N   0  0  0  0  0  0  0  0  0  0  0  0
   -9.7994   29.6030  -13.6259 N   0  0  0  0  0  0  0  0  0  0  0  0
   -9.4048   30.4170  -12.6056 C   0  0  0  0  0  0  0  0  0  0  0  0
   -8.6784   31.4151  -13.1256 N   0  0  0  0  0  0  0  0  0  0  0  0
   -0.8935   36.2712  -20.6531 N   0  0  0  0  0  0  0  0  0  0  0  0
   -1.6157   37.4222  -20.6590 C   0  0  0  0  0  0  0  0  0  0  0  0
   -2.5820   37.6173  -19.7128 N   0  0  0  0  0  0  0  0  0  0  0  0
   -2.8163   36.6682  -18.7668 C   0  0  0  0  0  0  0  0  0  0  0  0
   -2.1004   35.5256  -18.7520 C   0  0  0  0  0  0  0  0  0  0  0  0
   -1.1208   35.3334  -19.7219 C   0  0  0  0  0  0  0  0  0  0  0  0
   -0.2589   34.1939  -19.9059 N   0  0  0  0  0  0  0  0  0  0  0  0
   -2.5497   34.7796  -17.7144 N   0  0  0  0  0  0  0  0  0  0  0  0
   -3.5428   35.4731  -17.0878 C   0  0  0  0  0  0  0  0  0  0  0  0
   -3.6980   36.6407  -17.7442 N   0  0  0  0  0  0  0  0  0  0  0  0
  1  3  1  1  0  0  0
  1  5  2  0  0  0  0
  1  9  1  0  0  0  0
  1 18  1  0  0  0  0
  2  4  1  6  0  0  0
  2  6  2  0  0  0  0
  2 10  1  0  0  0  0
  2 17  1  0  0  0  0
  7  9  1  0  0  0  0
  8 10  1  0  0  0  0
 11  7  1  6  0  0  0
 11 13  1  0  0  0  0
 11 15  1  0  0  0  0
 12  8  1  1  0  0  0
 12 14  1  0  0  0  0
 12 16  1  0  0  0  0
 13 23  1  0  0  0  0
 14 24  1  0  0  0  0
 15 17  1  1  0  0  0
 15 19  1  0  0  0  0
 16 18  1  6  0  0  0
 16 20  1  0  0  0  0
 19 21  1  1  0  0  0
 19 23  1  0  0  0  0
 20 22  1  6  0  0  0
 20 24  1  0  0  0  0
 23 34  1  6  0  0  0
 24 44  1  1  0  0  0
 25 26  2  0  0  0  0
 25 30  1  0  0  0  0
 26 27  1  0  0  0  0
 27 28  2  0  0  0  0
 28 29  1  0  0  0  0
 28 34  1  0  0  0  0
 29 30  2  0  0  0  0
 29 32  1  0  0  0  0
 30 31  1  0  0  0  0
 32 33  2  0  0  0  0
 33 34  1  0  0  0  0
 35 36  2  0  0  0  0
 35 40  1  0  0  0  0
 36 37  1  0  0  0  0
 37 38  2  0  0  0  0
 38 39  1  0  0  0  0
 38 44  1  0  0  0  0
 39 40  2  0  0  0  0
 39 42  1  0  0  0  0
 40 41  1  0  0  0  0
 42 43  2  0  0  0  0
 43 44  1  0  0  0  0
M  CHG  2   3  -1   4  -1
M  END
>  <CHROM.1>
67.59290110,-128.98825182,-6.20207524,34.68133654,-15.42621615,-3.10732779
-0.85890107,-2.30870989

>  <Name>
ligand

>  <RI>
0

>  <Rbt.Current_Directory>
/home/itssahil/PROJECTS/Mol_Feturizer/New_Systems/rnas/4QLM

>  <Rbt.Executable>
rbdock ($Id: //depot/dev/client3/rdock/2013.1/src/exe/rbdock.cxx#4 $)

>  <Rbt.Library>
libRbt.so (2013.1, Build901 2013/11/27)

>  <Rbt.Parameter_File>
/export/apps/rDock/src/rDock_2013.1_src/data/scripts/dock_solv.prm

>  <Rbt.Receptor>
prm/pocket_docking_3.prm

>  <SCORE>
-17.5183

>  <SCORE.INTER>
-16.7682

>  <SCORE.INTER.CONST>
1

>  <SCORE.INTER.POLAR>
0

>  <SCORE.INTER.ROT>
2

>  <SCORE.INTER.SOLV>
30.1091

>  <SCORE.INTER.VDW>
-26.1485

>  <SCORE.INTER.norm>
-0.381095

>  <SCORE.INTRA>
-0.844495

>  <SCORE.INTRA.DIHEDRAL>
0.0262968

>  <SCORE.INTRA.DIHEDRAL.0>
2.32994

>  <SCORE.INTRA.POLAR>
0

>  <SCORE.INTRA.POLAR.0>
0

>  <SCORE.INTRA.REPUL>
0

>  <SCORE.INTRA.REPUL.0>
0

>  <SCORE.INTRA.SOLV>
-0.00458069

>  <SCORE.INTRA.SOLV.lig_0>
-117.703

>  <SCORE.INTRA.VDW>
-0.855353

>  <SCORE.INTRA.VDW.0>
-1.59997

>  <SCORE.INTRA.norm>
-0.0191931

>  <SCORE.RESTR>
0.0943442

>  <SCORE.RESTR.CAVITY>
0.0943442

>  <SCORE.RESTR.norm>
0.00214419

>  <SCORE.SYSTEM>
0

>  <SCORE.SYSTEM.CONST>
0

>  <SCORE.SYSTEM.DIHEDRAL>
0

>  <SCORE.SYSTEM.SOLV>
0

>  <SCORE.SYSTEM.norm>
0

>  <SCORE.heavy>
44

>  <SCORE.norm>
-0.398144

>  <RMSD>
1.888

$$$$
ligand
 OpenBabel11021811513D
libRbt.so/2013.1/901 2013/11/27
 44 50  0  0  0  0  0  0  0  0999 V2000
   -8.6718   36.3087  -15.8589 P   0  0  2  0  0  0  0  0  0  0  0  0
   -4.3993   34.9818  -12.8273 P   0  0  1  0  0  0  0  0  0  0  0  0
   -9.9846   36.9021  -15.3539 O   0  5  0  0  0  0  0  0  0  0  0  0
   -3.9369   33.6516  -13.3703 O   0  5  0  0  0  0  0  0  0  0  0  0
   -9.0044   35.5872  -17.1428 O   0  0  0  0  0  0  0  0  0  0  0  0
   -3.2830   35.5147  -11.9005 O   0  0  0  0  0  0  0  0  0  0  0  0
   -8.5754   35.7512  -13.3848 C   0  0  0  0  0  0  0  0  0  0  0  0
   -5.3723   37.1544  -13.8281 C   0  0  0  0  0  0  0  0  0  0  0  0
   -8.1847   35.3676  -14.7101 O   0  0  0  0  0  0  0  0  0  0  0  0
   -4.7926   35.8612  -14.1603 O   0  0  0  0  0  0  0  0  0  0  0  0
   -8.0764   34.7257  -12.3725 C   0  0  1  0  0  0  0  0  0  0  0  0
   -5.5587   37.9169  -15.1939 C   0  0  1  0  0  0  0  0  0  0  0  0
   -8.9413   33.7609  -12.3146 O   0  0  0  0  0  0  0  0  0  0  0  0
   -4.4295   37.8465  -15.7717 O   0  0  0  0  0  0  0  0  0  0  0  0
   -6.7554   34.1008  -12.7586 C   0  0  1  0  0  0  0  0  0  0  0  0
   -6.4744   37.1242  -16.1479 C   0  0  1  0  0  0  0  0  0  0  0  0
   -5.7972   34.7393  -12.0358 O   0  0  0  0  0  0  0  0  0  0  0  0
   -7.7142   37.6287  -16.1657 O   0  0  0  0  0  0  0  0  0  0  0  0
   -6.8978   32.6137  -12.2807 C   0  0  1  0  0  0  0  0  0  0  0  0
   -5.8255   37.1861  -17.5494 C   0  0  1  0  0  0  0  0  0  0  0  0
   -6.1696   32.4172  -10.9983 O   0  0  0  0  0  0  0  0  0  0  0  0
   -6.5337   38.1860  -18.4118 O   0  0  0  0  0  0  0  0  0  0  0  0
   -8.1646   32.3904  -12.1353 C   0  0  2  0  0  0  0  0  0  0  0  0
   -4.6159   37.5777  -17.3385 C   0  0  2  0  0  0  0  0  0  0  0  0
   -8.8606   30.4339  -17.0859 N   0  0  0  0  0  0  0  0  0  0  0  0
   -8.2129   31.5912  -16.7726 C   0  0  0  0  0  0  0  0  0  0  0  0
   -8.0872   32.0048  -15.4708 N   0  0  0  0  0  0  0  0  0  0  0  0
   -8.6268   31.2374  -14.4757 C   0  0  0  0  0  0  0  0  0  0  0  0
   -9.2729   30.1003  -14.7688 C   0  0  0  0  0  0  0  0  0  0  0  0
   -9.3879   29.6825  -16.0935 C   0  0  0  0  0  0  0  0  0  0  0  0
  -10.0388   28.5129  -16.5335 N   0  0  0  0  0  0  0  0  0  0  0  0
   -9.6922   29.5519  -13.6087 N   0  0  0  0  0  0  0  0  0  0  0  0
   -9.3013   30.3723  -12.5922 C   0  0  0  0  0  0  0  0  0  0  0  0
   -8.6296   31.4026  -13.1227 N   0  0  0  0  0  0  0  0  0  0  0  0
   -0.8545   36.2086  -20.6698 N   0  0  0  0  0  0  0  0  0  0  0  0
   -1.5892   37.3514  -20.6960 C   0  0  0  0  0  0  0  0  0  0  0  0
   -2.5502   37.5577  -19.7467 N   0  0  0  0  0  0  0  0  0  0  0  0
   -2.7669   36.6277  -18.7778 C   0  0  0  0  0  0  0  0  0  0  0  0
   -2.0386   35.4935  -18.7429 C   0  0  0  0  0  0  0  0  0  0  0  0
   -1.0645   35.2897  -19.7160 C   0  0  0  0  0  0  0  0  0  0  0  0
   -0.1919   34.1556  -19.8812 N   0  0  0  0  0  0  0  0  0  0  0  0
   -2.4718   34.7664  -17.6852 N   0  0  0  0  0  0  0  0  0  0  0  0
   -3.4675   35.4633  -17.0665 C   0  0  0  0  0  0  0  0  0  0  0  0
   -3.6403   36.6140  -17.7478 N   0  0  0  0  0  0  0  0  0  0  0  0
  1  3  1  1  0  0  0
  1  5  2  0  0  0  0
  1  9  1  0  0  0  0
  1 18  1  0  0  0  0
  2  4  1  6  0  0  0
  2  6  2  0  0  0  0
  2 10  1  0  0  0  0
  2 17  1  0  0  0  0
  7  9  1  0  0  0  0
  8 10  1  0  0  0  0
 11  7  1  6  0  0  0
 11 13  1  0  0  0  0
 11 15  1  0  0  0  0
 12  8  1  1  0  0  0
 12 14  1  0  0  0  0
 12 16  1  0  0  0  0
 13 23  1  0  0  0  0
 14 24  1  0  0  0  0
 15 17  1  1  0  0  0
 15 19  1  0  0  0  0
 16 18  1  6  0  0  0
 16 20  1  0  0  0  0
 19 21  1  1  0  0  0
 19 23  1  0  0  0  0
 20 22  1  6  0  0  0
 20 24  1  0  0  0  0
 23 34  1  6  0  0  0
 24 44  1  1  0  0  0
 25 26  2  0  0  0  0
 25 30  1  0  0  0  0
 26 27  1  0  0  0  0
 27 28  2  0  0  0  0
 28 29  1  0  0  0  0
 28 34  1  0  0  0  0
 29 30  2  0  0  0  0
 29 32  1  0  0  0  0
 30 31  1  0  0  0  0
 32 33  2  0  0  0  0
 33 34  1  0  0  0  0
 35 36  2  0  0  0  0
 35 40  1  0  0  0  0
 36 37  1  0  0  0  0
 37 38  2  0  0  0  0
 38 39  1  0  0  0  0
 38 44  1  0  0  0  0
 39 40  2  0  0  0  0
 39 42  1  0  0  0  0
 40 41  1  0  0  0  0
 42 43  2  0  0  0  0
 43 44  1  0  0  0  0
M  CHG  2   3  -1   4  -1
M  END
>  <CHROM.1>
64.60776823,-130.23709593,-6.16186095,34.66360720,-15.43495500,-3.07859143
-0.85615443,-2.27418035

>  <Name>
ligand

>  <RI>
0

>  <Rbt.Current_Directory>
/home/itssahil/PROJECTS/Mol_Feturizer/New_Systems/rnas/4QLM

>  <Rbt.Executable>
rbdock ($Id: //depot/dev/client3/rdock/2013.1/src/exe/rbdock.cxx#4 $)

>  <Rbt.Library>
libRbt.so (2013.1, Build901 2013/11/27)

>  <Rbt.Parameter_File>
/export/apps/rDock/src/rDock_2013.1_src/data/scripts/dock_solv.prm

>  <Rbt.Receptor>
prm/pocket_docking_3.prm

>  <SCORE>
-17.8005

>  <SCORE.INTER>
-17.0165

>  <SCORE.INTER.CONST>
1

>  <SCORE.INTER.POLAR>
0

>  <SCORE.INTER.ROT>
2

>  <SCORE.INTER.SOLV>
30.1305

>  <SCORE.INTER.VDW>
-26.3212

>  <SCORE.INTER.norm>
-0.386738

>  <SCORE.INTRA>
-0.903225

>  <SCORE.INTRA.DIHEDRAL>
0.0419231

>  <SCORE.INTRA.DIHEDRAL.0>
2.32994

>  <SCORE.INTRA.POLAR>
0

>  <SCORE.INTRA.POLAR.0>
0

>  <SCORE.INTRA.REPUL>
0

>  <SCORE.INTRA.REPUL.0>
0

>  <SCORE.INTRA.SOLV>
0.0124001

>  <SCORE.INTRA.SOLV.lig_0>
-117.703

>  <SCORE.INTRA.VDW>
-0.930387

>  <SCORE.INTRA.VDW.0>
-1.59997

>  <SCORE.INTRA.norm>
-0.0205278

>  <SCORE.RESTR>
0.119177

>  <SCORE.RESTR.CAVITY>
0.119177

>  <SCORE.RESTR.norm>
0.00270857

>  <SCORE.SYSTEM>
0

>  <SCORE.SYSTEM.CONST>
0

>  <SCORE.SYSTEM.DIHEDRAL>
0

>  <SCORE.SYSTEM.SOLV>
0

>  <SCORE.SYSTEM.norm>
0

>  <SCORE.heavy>
44

>  <SCORE.norm>
-0.404558

>  <RMSD>
1.894

$$$$
ligand
 OpenBabel11021811513D
libRbt.so/2013.1/901 2013/11/27
 44 50  0  0  0  0  0  0  0  0999 V2000
   -8.7110   36.3211  -15.8282 P   0  0  2  0  0  0  0  0  0  0  0  0
   -4.4103   34.9992  -12.8345 P   0  0  1  0  0  0  0  0  0  0  0  0
  -10.0218   36.9084  -15.3111 O   0  5  0  0  0  0  0  0  0  0  0  0
   -3.9476   33.6724  -13.3853 O   0  5  0  0  0  0  0  0  0  0  0  0
   -9.0512   35.6026  -17.1118 O   0  0  0  0  0  0  0  0  0  0  0  0
   -3.2886   35.5330  -11.9147 O   0  0  0  0  0  0  0  0  0  0  0  0
   -8.5933   35.7561  -13.3568 C   0  0  0  0  0  0  0  0  0  0  0  0
   -5.3985   37.1717  -13.8206 C   0  0  0  0  0  0  0  0  0  0  0  0
   -8.2116   35.3780  -14.6863 O   0  0  0  0  0  0  0  0  0  0  0  0
   -4.8170   35.8816  -14.1615 O   0  0  0  0  0  0  0  0  0  0  0  0
   -8.0828   34.7290  -12.3517 C   0  0  1  0  0  0  0  0  0  0  0  0
   -5.5983   37.9379  -15.1824 C   0  0  1  0  0  0  0  0  0  0  0  0
   -8.9440   33.7610  -12.2902 O   0  0  0  0  0  0  0  0  0  0  0  0
   -4.4734   37.8732  -15.7693 O   0  0  0  0  0  0  0  0  0  0  0  0
   -6.7628   34.1100  -12.7501 C   0  0  1  0  0  0  0  0  0  0  0  0
   -6.5187   37.1451  -16.1317 C   0  0  1  0  0  0  0  0  0  0  0  0
   -5.8012   34.7494  -12.0328 O   0  0  0  0  0  0  0  0  0  0  0  0
   -7.7603   37.6454  -16.1383 O   0  0  0  0  0  0  0  0  0  0  0  0
   -6.8963   32.6208  -12.2759 C   0  0  1  0  0  0  0  0  0  0  0  0
   -5.8810   37.2137  -17.5381 C   0  0  1  0  0  0  0  0  0  0  0  0
   -6.1575   32.4227  -10.9999 O   0  0  0  0  0  0  0  0  0  0  0  0
   -6.5994   38.2140  -18.3917 O   0  0  0  0  0  0  0  0  0  0  0  0
   -8.1612   32.3927  -12.1213 C   0  0  2  0  0  0  0  0  0  0  0  0
   -4.6712   37.6088  -17.3354 C   0  0  2  0  0  0  0  0  0  0  0  0
   -8.8693   30.4388  -17.0713 N   0  0  0  0  0  0  0  0  0  0  0  0
   -8.2175   31.5940  -16.7587 C   0  0  0  0  0  0  0  0  0  0  0  0
   -8.0889   32.0071  -15.4570 N   0  0  0  0  0  0  0  0  0  0  0  0
   -8.6298   31.2413  -14.4613 C   0  0  0  0  0  0  0  0  0  0  0  0
   -9.2800   30.1064  -14.7537 C   0  0  0  0  0  0  0  0  0  0  0  0
   -9.3978   29.6890  -16.0783 C   0  0  0  0  0  0  0  0  0  0  0  0
  -10.0530   28.5216  -16.5176 N   0  0  0  0  0  0  0  0  0  0  0  0
   -9.6997   29.5592  -13.5932 N   0  0  0  0  0  0  0  0  0  0  0  0
   -9.3049   30.3783  -12.5771 C   0  0  0  0  0  0  0  0  0  0  0  0
   -8.6305   31.4064  -13.1083 N   0  0  0  0  0  0  0  0  0  0  0  0
   -0.8838   36.2936  -20.6590 N   0  0  0  0  0  0  0  0  0  0  0  0
   -1.6137   37.4397  -20.6684 C   0  0  0  0  0  0  0  0  0  0  0  0
   -2.5829   37.6302  -19.7240 N   0  0  0  0  0  0  0  0  0  0  0  0
   -2.8124   36.6813  -18.7767 C   0  0  0  0  0  0  0  0  0  0  0  0
   -2.0889   35.5436  -18.7585 C   0  0  0  0  0  0  0  0  0  0  0  0
   -1.1064   35.3560  -19.7264 C   0  0  0  0  0  0  0  0  0  0  0  0
   -0.2367   34.2220  -19.9069 N   0  0  0  0  0  0  0  0  0  0  0  0
   -2.5349   34.7965  -17.7202 N   0  0  0  0  0  0  0  0  0  0  0  0
   -3.5336   35.4846  -17.0966 C   0  0  0  0  0  0  0  0  0  0  0  0
   -3.6955   36.6498  -17.7554 N   0  0  0  0  0  0  0  0  0  0  0  0
  1  3  1  1  0  0  0
  1  5  2  0  0  0  0
  1  9  1  0  0  0  0
  1 18  1  0  0  0  0
  2  4  1  6  0  0  0
  2  6  2  0  0  0  0
  2 10  1  0  0  0  0
  2 17  1  0  0  0  0
  7  9  1  0  0  0  0
  8 10  1  0  0  0  0
 11  7  1  6  0  0  0
 11 13  1  0  0  0  0
 11 15  1  0  0  0  0
 12  8  1  1  0  0  0
 12 14  1  0  0  0  0
 12 16  1  0  0  0  0
 13 23  1  0  0  0  0
 14 24  1  0  0  0  0
 15 17  1  1  0  0  0
 15 19  1  0  0  0  0
 16 18  1  6  0  0  0
 16 20  1  0  0  0  0
 19 21  1  1  0  0  0
 19 23  1  0  0  0  0
 20 22  1  6  0  0  0
 20 24  1  0  0  0  0
 23 34  1  6  0  0  0
 24 44  1  1  0  0  0
 25 26  2  0  0  0  0
 25 30  1  0  0  0  0
 26 27  1  0  0  0  0
 27 28  2  0  0  0  0
 28 29  1  0  0  0  0
 28 34  1  0  0  0  0
 29 30  2  0  0  0  0
 29 32  1  0  0  0  0
 30 31  1  0  0  0  0
 32 33  2  0  0  0  0
 33 34  1  0  0  0  0
 35 36  2  0  0  0  0
 35 40  1  0  0  0  0
 36 37  1  0  0  0  0
 37 38  2  0  0  0  0
 38 39  1  0  0  0  0
 38 44  1  0  0  0  0
 39 40  2  0  0  0  0
 39 42  1  0  0  0  0
 40 41  1  0  0  0  0
 42 43  2  0  0  0  0
 43 44  1  0  0  0  0
M  CHG  2   3  -1   4  -1
M  END
>  <CHROM.1>
65.17680759,-128.76703734,-6.18716535,34.68495150,-15.42598799,-3.08829663
-0.86255238,-2.28335217

>  <Name>
ligand

>  <RI>
0

>  <Rbt.Current_Directory>
/home/itssahil/PROJECTS/Mol_Feturizer/New_Systems/rnas/4QLM

>  <Rbt.Executable>
rbdock ($Id: //depot/dev/client3/rdock/2013.1/src/exe/rbdock.cxx#4 $)

>  <Rbt.Library>
libRbt.so (2013.1, Build901 2013/11/27)

>  <Rbt.Parameter_File>
/export/apps/rDock/src/rDock_2013.1_src/data/scripts/dock_solv.prm

>  <Rbt.Receptor>
prm/pocket_docking_3.prm

>  <SCORE>
-17.7383

>  <SCORE.INTER>
-16.969

>  <SCORE.INTER.CONST>
1

>  <SCORE.INTER.POLAR>
0

>  <SCORE.INTER.ROT>
2

>  <SCORE.INTER.SOLV>
29.913

>  <SCORE.INTER.VDW>
-26.217

>  <SCORE.INTER.norm>
-0.385659

>  <SCORE.INTRA>
-0.884913

>  <SCORE.INTRA.DIHEDRAL>
0.0382562

>  <SCORE.INTRA.DIHEDRAL.0>
2.32994

>  <SCORE.INTRA.POLAR>
0

>  <SCORE.INTRA.POLAR.0>
0

>  <SCORE.INTRA.REPUL>
0

>  <SCORE.INTRA.REPUL.0>
0

>  <SCORE.INTRA.SOLV>
0.00429505

>  <SCORE.INTRA.SOLV.lig_0>
-117.703

>  <SCORE.INTRA.VDW>
-0.906189

>  <SCORE.INTRA.VDW.0>
-1.59997

>  <SCORE.INTRA.norm>
-0.0201117

>  <SCORE.RESTR>
0.115594

>  <SCORE.RESTR.CAVITY>
0.115594

>  <SCORE.RESTR.norm>
0.00262714

>  <SCORE.SYSTEM>
0

>  <SCORE.SYSTEM.CONST>
0

>  <SCORE.SYSTEM.DIHEDRAL>
0

>  <SCORE.SYSTEM.SOLV>
0

>  <SCORE.SYSTEM.norm>
0

>  <SCORE.heavy>
44

>  <SCORE.norm>
-0.403143

>  <RMSD>
1.898

$$$$
ligand
 OpenBabel11021811513D
libRbt.so/2013.1/901 2013/11/27
 44 50  0  0  0  0  0  0  0  0999 V2000
   -8.6664   36.3154  -15.8515 P   0  0  2  0  0  0  0  0  0  0  0  0
   -4.3896   34.9856  -12.8271 P   0  0  1  0  0  0  0  0  0  0  0  0
   -9.9779   36.9095  -15.3442 O   0  5  0  0  0  0  0  0  0  0  0  0
   -3.9289   33.6553  -13.3710 O   0  5  0  0  0  0  0  0  0  0  0  0
   -9.0015   35.5942  -17.1349 O   0  0  0  0  0  0  0  0  0  0  0  0
   -3.2715   35.5178  -11.9021 O   0  0  0  0  0  0  0  0  0  0  0  0
   -8.5662   35.7576  -13.3776 C   0  0  0  0  0  0  0  0  0  0  0  0
   -5.3630   37.1589  -13.8261 C   0  0  0  0  0  0  0  0  0  0  0  0
   -8.1779   35.3739  -14.7036 O   0  0  0  0  0  0  0  0  0  0  0  0
   -4.7846   35.8654  -14.1593 O   0  0  0  0  0  0  0  0  0  0  0  0
   -8.0661   34.7317  -12.3662 C   0  0  1  0  0  0  0  0  0  0  0  0
   -5.5512   37.9217  -15.1914 C   0  0  1  0  0  0  0  0  0  0  0  0
   -8.9315   33.7673  -12.3070 O   0  0  0  0  0  0  0  0  0  0  0  0
   -4.4230   37.8507  -15.7712 O   0  0  0  0  0  0  0  0  0  0  0  0
   -6.7462   34.1061  -12.7546 C   0  0  1  0  0  0  0  0  0  0  0  0
   -6.4690   37.1296  -16.1440 C   0  0  1  0  0  0  0  0  0  0  0  0
   -5.7864   34.7439  -12.0333 O   0  0  0  0  0  0  0  0  0  0  0  0
   -7.7085   37.6348  -16.1597 O   0  0  0  0  0  0  0  0  0  0  0  0
   -6.8886   32.6190  -12.2766 C   0  0  1  0  0  0  0  0  0  0  0  0
   -5.8224   37.1913  -17.5466 C   0  0  1  0  0  0  0  0  0  0  0  0
   -6.1584   32.4219  -10.9954 O   0  0  0  0  0  0  0  0  0  0  0  0
   -6.5314   38.1917  -18.4077 O   0  0  0  0  0  0  0  0  0  0  0  0
   -8.1552   32.3964  -12.1291 C   0  0  2  0  0  0  0  0  0  0  0  0
   -4.6122   37.5822  -17.3376 C   0  0  2  0  0  0  0  0  0  0  0  0
   -8.8931   30.4583  -17.0809 N   0  0  0  0  0  0  0  0  0  0  0  0
   -8.2534   31.6206  -16.7696 C   0  0  0  0  0  0  0  0  0  0  0  0
   -8.1156   32.0288  -15.4673 N   0  0  0  0  0  0  0  0  0  0  0  0
   -8.6349   31.2508  -14.4696 C   0  0  0  0  0  0  0  0  0  0  0  0
   -9.2730   30.1086  -14.7606 C   0  0  0  0  0  0  0  0  0  0  0  0
   -9.4003   29.6964  -16.0860 C   0  0  0  0  0  0  0  0  0  0  0  0
  -10.0446   28.5226  -16.5240 N   0  0  0  0  0  0  0  0  0  0  0  0
   -9.6722   29.5500  -13.5984 N   0  0  0  0  0  0  0  0  0  0  0  0
   -9.2770   30.3691  -12.5825 C   0  0  0  0  0  0  0  0  0  0  0  0
   -8.6225   31.4089  -13.1159 N   0  0  0  0  0  0  0  0  0  0  0  0
   -0.8509   36.2152  -20.6700 N   0  0  0  0  0  0  0  0  0  0  0  0
   -1.5838   37.3592  -20.6939 C   0  0  0  0  0  0  0  0  0  0  0  0
   -2.5451   37.5647  -19.7447 N   0  0  0  0  0  0  0  0  0  0  0  0
   -2.7638   36.6328  -18.7781 C   0  0  0  0  0  0  0  0  0  0  0  0
   -2.0373   35.4973  -18.7455 C   0  0  0  0  0  0  0  0  0  0  0  0
   -1.0630   35.2944  -19.7185 C   0  0  0  0  0  0  0  0  0  0  0  0
   -0.1919   34.1593  -19.8859 N   0  0  0  0  0  0  0  0  0  0  0  0
   -2.4722   34.7684  -17.6898 N   0  0  0  0  0  0  0  0  0  0  0  0
   -3.4672   35.4654  -17.0700 C   0  0  0  0  0  0  0  0  0  0  0  0
   -3.6378   36.6179  -17.7487 N   0  0  0  0  0  0  0  0  0  0  0  0
  1  3  1  1  0  0  0
  1  5  2  0  0  0  0
  1  9  1  0  0  0  0
  1 18  1  0  0  0  0
  2  4  1  6  0  0  0
  2  6  2  0  0  0  0
  2 10  1  0  0  0  0
  2 17  1  0  0  0  0
  7  9  1  0  0  0  0
  8 10  1  0  0  0  0
 11  7  1  6  0  0  0
 11 13  1  0  0  0  0
 11 15  1  0  0  0  0
 12  8  1  1  0  0  0
 12 14  1  0  0  0  0
 12 16  1  0  0  0  0
 13 23  1  0  0  0  0
 14 24  1  0  0  0  0
 15 17  1  1  0  0  0
 15 19  1  0  0  0  0
 16 18  1  6  0  0  0
 16 20  1  0  0  0  0
 19 21  1  1  0  0  0
 19 23  1  0  0  0  0
 20 22  1  6  0  0  0
 20 24  1  0  0  0  0
 23 34  1  6  0  0  0
 24 44  1  1  0  0  0
 25 26  2  0  0  0  0
 25 30  1  0  0  0  0
 26 27  1  0  0  0  0
 27 28  2  0  0  0  0
 28 29  1  0  0  0  0
 28 34  1  0  0  0  0
 29 30  2  0  0  0  0
 29 32  1  0  0  0  0
 30 31  1  0  0  0  0
 32 33  2  0  0  0  0
 33 34  1  0  0  0  0
 35 36  2  0  0  0  0
 35 40  1  0  0  0  0
 36 37  1  0  0  0  0
 37 38  2  0  0  0  0
 38 39  1  0  0  0  0
 38 44  1  0  0  0  0
 39 40  2  0  0  0  0
 39 42  1  0  0  0  0
 40 41  1  0  0  0  0
 42 43  2  0  0  0  0
 43 44  1  0  0  0  0
M  CHG  2   3  -1   4  -1
M  END
>  <CHROM.1>
63.68407167,-130.04631179,-6.15842956,34.67022195,-15.43153475,-3.06702488
-0.85532642,-2.25948137

>  <Name>
ligand

>  <RI>
0

>  <Rbt.Current_Directory>
/home/itssahil/PROJECTS/Mol_Feturizer/New_Systems/rnas/4QLM

>  <Rbt.Executable>
rbdock ($Id: //depot/dev/client3/rdock/2013.1/src/exe/rbdock.cxx#4 $)

>  <Rbt.Library>
libRbt.so (2013.1, Build901 2013/11/27)

>  <Rbt.Parameter_File>
/export/apps/rDock/src/rDock_2013.1_src/data/scripts/dock_solv.prm

>  <Rbt.Receptor>
prm/pocket_docking_3.prm

>  <SCORE>
-17.8472

>  <SCORE.INTER>
-17.0441

>  <SCORE.INTER.CONST>
1

>  <SCORE.INTER.POLAR>
0

>  <SCORE.INTER.ROT>
2

>  <SCORE.INTER.SOLV>
30.0818

>  <SCORE.INTER.VDW>
-26.3233

>  <SCORE.INTER.norm>
-0.387365

>  <SCORE.INTRA>
-0.934163

>  <SCORE.INTRA.DIHEDRAL>
0.0466582

>  <SCORE.INTRA.DIHEDRAL.0>
2.32994

>  <SCORE.INTRA.POLAR>
0

>  <SCORE.INTRA.POLAR.0>
0

>  <SCORE.INTRA.REPUL>
0

>  <SCORE.INTRA.REPUL.0>
0

>  <SCORE.INTRA.SOLV>
0.0301085

>  <SCORE.INTRA.SOLV.lig_0>
-117.703

>  <SCORE.INTRA.VDW>
-0.972547

>  <SCORE.INTRA.VDW.0>
-1.59997

>  <SCORE.INTRA.norm>
-0.021231

>  <SCORE.RESTR>
0.131078

>  <SCORE.RESTR.CAVITY>
0.131078

>  <SCORE.RESTR.norm>
0.00297904

>  <SCORE.SYSTEM>
0

>  <SCORE.SYSTEM.CONST>
0

>  <SCORE.SYSTEM.DIHEDRAL>
0

>  <SCORE.SYSTEM.SOLV>
0

>  <SCORE.SYSTEM.norm>
0

>  <SCORE.heavy>
44

>  <SCORE.norm>
-0.405617

>  <RMSD>
1.900

$$$$
ligand
 OpenBabel11021811513D
libRbt.so/2013.1/901 2013/11/27
 44 50  0  0  0  0  0  0  0  0999 V2000
   -8.6708   36.3366  -15.8473 P   0  0  2  0  0  0  0  0  0  0  0  0
   -4.3864   35.0051  -12.8346 P   0  0  1  0  0  0  0  0  0  0  0  0
   -9.9823   36.9275  -15.3360 O   0  5  0  0  0  0  0  0  0  0  0  0
   -3.9248   33.6768  -13.3829 O   0  5  0  0  0  0  0  0  0  0  0  0
   -9.0074   35.6183  -17.1320 O   0  0  0  0  0  0  0  0  0  0  0  0
   -3.2673   35.5364  -11.9104 O   0  0  0  0  0  0  0  0  0  0  0  0
   -8.5651   35.7724  -13.3751 C   0  0  0  0  0  0  0  0  0  0  0  0
   -5.3648   37.1796  -13.8260 C   0  0  0  0  0  0  0  0  0  0  0  0
   -8.1788   35.3928  -14.7029 O   0  0  0  0  0  0  0  0  0  0  0  0
   -4.7852   35.8878  -14.1638 O   0  0  0  0  0  0  0  0  0  0  0  0
   -8.0616   34.7445  -12.3674 C   0  0  1  0  0  0  0  0  0  0  0  0
   -5.5567   37.9457  -15.1890 C   0  0  1  0  0  0  0  0  0  0  0  0
   -8.9255   33.7788  -12.3091 O   0  0  0  0  0  0  0  0  0  0  0  0
   -4.4295   37.8778  -15.7710 O   0  0  0  0  0  0  0  0  0  0  0  0
   -6.7415   34.1219  -12.7599 C   0  0  1  0  0  0  0  0  0  0  0  0
   -6.4752   37.1548  -16.1419 C   0  0  1  0  0  0  0  0  0  0  0  0
   -5.7813   34.7592  -12.0388 O   0  0  0  0  0  0  0  0  0  0  0  0
   -7.7154   37.6583  -16.1539 O   0  0  0  0  0  0  0  0  0  0  0  0
   -6.8809   32.6333  -12.2856 C   0  0  1  0  0  0  0  0  0  0  0  0
   -5.8313   37.2211  -17.5456 C   0  0  1  0  0  0  0  0  0  0  0  0
   -6.1480   32.4340  -11.0063 O   0  0  0  0  0  0  0  0  0  0  0  0
   -6.5435   38.2228  -18.4027 O   0  0  0  0  0  0  0  0  0  0  0  0
   -8.1469   32.4086  -12.1363 C   0  0  2  0  0  0  0  0  0  0  0  0
   -4.6213   37.6132  -17.3378 C   0  0  2  0  0  0  0  0  0  0  0  0
   -8.8422   30.4559  -17.0886 N   0  0  0  0  0  0  0  0  0  0  0  0
   -8.1898   31.6102  -16.7738 C   0  0  0  0  0  0  0  0  0  0  0  0
   -8.0647   32.0230  -15.4717 N   0  0  0  0  0  0  0  0  0  0  0  0
   -8.6099   31.2580  -14.4778 C   0  0  0  0  0  0  0  0  0  0  0  0
   -9.2607   30.1240  -14.7723 C   0  0  0  0  0  0  0  0  0  0  0  0
   -9.3750   29.7068  -16.0973 C   0  0  0  0  0  0  0  0  0  0  0  0
  -10.0305   28.5404  -16.5388 N   0  0  0  0  0  0  0  0  0  0  0  0
   -9.6849   29.5774  -13.6132 N   0  0  0  0  0  0  0  0  0  0  0  0
   -9.2922   30.3958  -12.5958 C   0  0  0  0  0  0  0  0  0  0  0  0
   -8.6146   31.4230  -13.1248 N   0  0  0  0  0  0  0  0  0  0  0  0
   -0.8460   36.2723  -20.6649 N   0  0  0  0  0  0  0  0  0  0  0  0
   -1.5771   37.4175  -20.6814 C   0  0  0  0  0  0  0  0  0  0  0  0
   -2.5427   37.6154  -19.7350 N   0  0  0  0  0  0  0  0  0  0  0  0
   -2.7674   36.6748  -18.7783 C   0  0  0  0  0  0  0  0  0  0  0  0
   -2.0426   35.5380  -18.7529 C   0  0  0  0  0  0  0  0  0  0  0  0
   -1.0638   35.3428  -19.7231 C   0  0  0  0  0  0  0  0  0  0  0  0
   -0.1936   34.2082  -19.8970 N   0  0  0  0  0  0  0  0  0  0  0  0
   -2.4836   34.7997  -17.7063 N   0  0  0  0  0  0  0  0  0  0  0  0
   -3.4806   35.4923  -17.0847 C   0  0  0  0  0  0  0  0  0  0  0  0
   -3.6463   36.6515  -17.7533 N   0  0  0  0  0  0  0  0  0  0  0  0
  1  3  1  1  0  0  0
  1  5  2  0  0  0  0
  1  9  1  0  0  0  0
  1 18  1  0  0  0  0
  2  4  1  6  0  0  0
  2  6  2  0  0  0  0
  2 10  1  0  0  0  0
  2 17  1  0  0  0  0
  7  9  1  0  0  0  0
  8 10  1  0  0  0  0
 11  7  1  6  0  0  0
 11 13  1  0  0  0  0
 11 15  1  0  0  0  0
 12  8  1  1  0  0  0
 12 14  1  0  0  0  0
 12 16  1  0  0  0  0
 13 23  1  0  0  0  0
 14 24  1  0  0  0  0
 15 17  1  1  0  0  0
 15 19  1  0  0  0  0
 16 18  1  6  0  0  0
 16 20  1  0  0  0  0
 19 21  1  1  0  0  0
 19 23  1  0  0  0  0
 20 22  1  6  0  0  0
 20 24  1  0  0  0  0
 23 34  1  6  0  0  0
 24 44  1  1  0  0  0
 25 26  2  0  0  0  0
 25 30  1  0  0  0  0
 26 27  1  0  0  0  0
 27 28  2  0  0  0  0
 28 29  1  0  0  0  0
 28 34  1  0  0  0  0
 29 30  2  0  0  0  0
 29 32  1  0  0  0  0
 30 31  1  0  0  0  0
 32 33  2  0  0  0  0
 33 34  1  0  0  0  0
 35 36  2  0  0  0  0
 35 40  1  0  0  0  0
 36 37  1  0  0  0  0
 37 38  2  0  0  0  0
 38 39  1  0  0  0  0
 38 44  1  0  0  0  0
 39 40  2  0  0  0  0
 39 42  1  0  0  0  0
 40 41  1  0  0  0  0
 42 43  2  0  0  0  0
 43 44  1  0  0  0  0
M  CHG  2   3  -1   4  -1
M  END
>  <CHROM.1>
65.08166060,-129.47436789,-6.15492048,34.69314636,-15.43514032,-3.08522094
-0.85867966,-2.28021178

>  <Name>
ligand

>  <RI>
0

>  <Rbt.Current_Directory>
/home/itssahil/PROJECTS/Mol_Feturizer/New_Systems/rnas/4QLM

>  <Rbt.Executable>
rbdock ($Id: //depot/dev/client3/rdock/2013.1/src/exe/rbdock.cxx#4 $)

>  <Rbt.Library>
libRbt.so (2013.1, Build901 2013/11/27)

>  <Rbt.Parameter_File>
/export/apps/rDock/src/rDock_2013.1_src/data/scripts/dock_solv.prm

>  <Rbt.Receptor>
prm/pocket_docking_3.prm

>  <SCORE>
-17.8355

>  <SCORE.INTER>
-17.0796

>  <SCORE.INTER.CONST>
1

>  <SCORE.INTER.POLAR>
0

>  <SCORE.INTER.ROT>
2

>  <SCORE.INTER.SOLV>
30.0366

>  <SCORE.INTER.VDW>
-26.332

>  <SCORE.INTER.norm>
-0.388174

>  <SCORE.INTRA>
-0.893381

>  <SCORE.INTRA.DIHEDRAL>
0.0391006

>  <SCORE.INTRA.DIHEDRAL.0>
2.32994

>  <SCORE.INTRA.POLAR>
0

>  <SCORE.INTRA.POLAR.0>
0

>  <SCORE.INTRA.REPUL>
0

>  <SCORE.INTRA.REPUL.0>
0

>  <SCORE.INTRA.SOLV>
0.00515429

>  <SCORE.INTRA.SOLV.lig_0>
-117.703

>  <SCORE.INTRA.VDW>
-0.915509

>  <SCORE.INTRA.VDW.0>
-1.59997

>  <SCORE.INTRA.norm>
-0.0203041

>  <SCORE.RESTR>
0.137486

>  <SCORE.RESTR.CAVITY>
0.137486

>  <SCORE.RESTR.norm>
0.00312469

>  <SCORE.SYSTEM>
0

>  <SCORE.SYSTEM.CONST>
0

>  <SCORE.SYSTEM.DIHEDRAL>
0

>  <SCORE.SYSTEM.SOLV>
0

>  <SCORE.SYSTEM.norm>
0

>  <SCORE.heavy>
44

>  <SCORE.norm>
-0.405353

>  <RMSD>
1.909

$$$$
ligand
 OpenBabel11021811513D
libRbt.so/2013.1/901 2013/11/27
 44 50  0  0  0  0  0  0  0  0999 V2000
   -8.6184   36.6836  -15.8156 P   0  0  2  0  0  0  0  0  0  0  0  0
   -4.4682   34.9201  -12.8372 P   0  0  1  0  0  0  0  0  0  0  0  0
   -9.8839   37.3550  -15.2881 O   0  5  0  0  0  0  0  0  0  0  0  0
   -4.1063   33.5806  -13.4312 O   0  5  0  0  0  0  0  0  0  0  0  0
   -9.0009   36.0396  -17.1265 O   0  0  0  0  0  0  0  0  0  0  0  0
   -3.3176   35.3305  -11.8903 O   0  0  0  0  0  0  0  0  0  0  0  0
   -8.5721   36.0253  -13.3649 C   0  0  0  0  0  0  0  0  0  0  0  0
   -5.2705   37.1973  -13.7531 C   0  0  0  0  0  0  0  0  0  0  0  0
   -8.2076   35.6646  -14.7041 O   0  0  0  0  0  0  0  0  0  0  0  0
   -4.7895   35.8777  -14.1351 O   0  0  0  0  0  0  0  0  0  0  0  0
   -8.1555   34.9265  -12.3931 C   0  0  1  0  0  0  0  0  0  0  0  0
   -5.3944   38.0239  -15.0884 C   0  0  1  0  0  0  0  0  0  0  0  0
   -9.0913   34.0286  -12.3727 O   0  0  0  0  0  0  0  0  0  0  0  0
   -4.2720   37.8904  -15.6684 O   0  0  0  0  0  0  0  0  0  0  0  0
   -6.8846   34.2185  -12.8029 C   0  0  1  0  0  0  0  0  0  0  0  0
   -6.3646   37.3405  -16.0725 C   0  0  1  0  0  0  0  0  0  0  0  0
   -5.8829   34.7541  -12.0558 O   0  0  0  0  0  0  0  0  0  0  0  0
   -7.5625   37.9380  -16.0709 O   0  0  0  0  0  0  0  0  0  0  0  0
   -7.1408   32.7292  -12.3830 C   0  0  1  0  0  0  0  0  0  0  0  0
   -5.7086   37.4070  -17.4705 C   0  0  1  0  0  0  0  0  0  0  0  0
   -6.4335   32.4286  -11.1091 O   0  0  0  0  0  0  0  0  0  0  0  0
   -6.3363   38.4904  -18.2936 O   0  0  0  0  0  0  0  0  0  0  0  0
   -8.4213   32.5973  -12.2465 C   0  0  2  0  0  0  0  0  0  0  0  0
   -4.4734   37.6973  -17.2444 C   0  0  2  0  0  0  0  0  0  0  0  0
  -11.6025   31.2467  -16.3547 N   0  0  0  0  0  0  0  0  0  0  0  0
  -11.5525   32.4705  -15.7572 C   0  0  0  0  0  0  0  0  0  0  0  0
  -10.7004   32.7156  -14.7106 N   0  0  0  0  0  0  0  0  0  0  0  0
   -9.8918   31.7076  -14.2632 C   0  0  0  0  0  0  0  0  0  0  0  0
   -9.9349   30.4966  -14.8359 C   0  0  0  0  0  0  0  0  0  0  0  0
  -10.7968   30.2586  -15.9051 C   0  0  0  0  0  0  0  0  0  0  0  0
  -10.9375   29.0365  -16.5919 N   0  0  0  0  0  0  0  0  0  0  0  0
   -9.0391   29.7083  -14.2047 N   0  0  0  0  0  0  0  0  0  0  0  0
   -8.4454   30.4493  -13.2261 C   0  0  0  0  0  0  0  0  0  0  0  0
   -8.9568   31.6864  -13.2716 N   0  0  0  0  0  0  0  0  0  0  0  0
   -0.8689   36.1491  -20.6694 N   0  0  0  0  0  0  0  0  0  0  0  0
   -1.5244   37.3393  -20.6591 C   0  0  0  0  0  0  0  0  0  0  0  0
   -2.4536   37.5895  -19.6888 N   0  0  0  0  0  0  0  0  0  0  0  0
   -2.7172   36.6557  -18.7355 C   0  0  0  0  0  0  0  0  0  0  0  0
   -2.0673   35.4743  -18.7368 C   0  0  0  0  0  0  0  0  0  0  0  0
   -1.1253   35.2261  -19.7310 C   0  0  0  0  0  0  0  0  0  0  0  0
   -0.3347   34.0394  -19.9348 N   0  0  0  0  0  0  0  0  0  0  0  0
   -2.5316   34.7554  -17.6866 N   0  0  0  0  0  0  0  0  0  0  0  0
   -3.4672   35.5046  -17.0362 C   0  0  0  0  0  0  0  0  0  0  0  0
   -3.5725   36.6788  -17.6906 N   0  0  0  0  0  0  0  0  0  0  0  0
  1  3  1  1  0  0  0
  1  5  2  0  0  0  0
  1  9  1  0  0  0  0
  1 18  1  0  0  0  0
  2  4  1  6  0  0  0
  2  6  2  0  0  0  0
  2 10  1  0  0  0  0
  2 17  1  0  0  0  0
  7  9  1  0  0  0  0
  8 10  1  0  0  0  0
 11  7  1  6  0  0  0
 11 13  1  0  0  0  0
 11 15  1  0  0  0  0
 12  8  1  1  0  0  0
 12 14  1  0  0  0  0
 12 16  1  0  0  0  0
 13 23  1  0  0  0  0
 14 24  1  0  0  0  0
 15 17  1  1  0  0  0
 15 19  1  0  0  0  0
 16 18  1  6  0  0  0
 16 20  1  0  0  0  0
 19 21  1  1  0  0  0
 19 23  1  0  0  0  0
 20 22  1  6  0  0  0
 20 24  1  0  0  0  0
 23 34  1  6  0  0  0
 24 44  1  1  0  0  0
 25 26  2  0  0  0  0
 25 30  1  0  0  0  0
 26 27  1  0  0  0  0
 27 28  2  0  0  0  0
 28 29  1  0  0  0  0
 28 34  1  0  0  0  0
 29 30  2  0  0  0  0
 29 32  1  0  0  0  0
 30 31  1  0  0  0  0
 32 33  2  0  0  0  0
 33 34  1  0  0  0  0
 35 36  2  0  0  0  0
 35 40  1  0  0  0  0
 36 37  1  0  0  0  0
 37 38  2  0  0  0  0
 38 39  1  0  0  0  0
 38 44  1  0  0  0  0
 39 40  2  0  0  0  0
 39 42  1  0  0  0  0
 40 41  1  0  0  0  0
 42 43  2  0  0  0  0
 43 44  1  0  0  0  0
M  CHG  2   3  -1   4  -1
M  END
>  <CHROM.1>
-2.91411739,-131.78157735,-6.40392146,34.85524161,-15.39368227,2.64338016
0.58485585,1.57814819

>  <Name>
ligand

>  <RI>
0

>  <Rbt.Current_Directory>
/home/itssahil/PROJECTS/Mol_Feturizer/New_Systems/rnas/4QLM

>  <Rbt.Executable>
rbdock ($Id: //depot/dev/client3/rdock/2013.1/src/exe/rbdock.cxx#4 $)

>  <Rbt.Library>
libRbt.so (2013.1, Build901 2013/11/27)

>  <Rbt.Parameter_File>
/export/apps/rDock/src/rDock_2013.1_src/data/scripts/dock_solv.prm

>  <Rbt.Receptor>
prm/pocket_docking_3.prm

>  <SCORE>
-14.7752

>  <SCORE.INTER>
-15.1257

>  <SCORE.INTER.CONST>
1

>  <SCORE.INTER.POLAR>
0

>  <SCORE.INTER.ROT>
2

>  <SCORE.INTER.SOLV>
31.3985

>  <SCORE.INTER.VDW>
-25.4833

>  <SCORE.INTER.norm>
-0.343766

>  <SCORE.INTRA>
0.268062

>  <SCORE.INTRA.DIHEDRAL>
0.0696008

>  <SCORE.INTRA.DIHEDRAL.0>
2.32994

>  <SCORE.INTRA.POLAR>
0

>  <SCORE.INTRA.POLAR.0>
0

>  <SCORE.INTRA.REPUL>
0

>  <SCORE.INTRA.REPUL.0>
0

>  <SCORE.INTRA.SOLV>
0.0622397

>  <SCORE.INTRA.SOLV.lig_0>
-117.703

>  <SCORE.INTRA.VDW>
0.202141

>  <SCORE.INTRA.VDW.0>
-1.59997

>  <SCORE.INTRA.norm>
0.00609231

>  <SCORE.RESTR>
0.082449

>  <SCORE.RESTR.CAVITY>
0.082449

>  <SCORE.RESTR.norm>
0.00187384

>  <SCORE.SYSTEM>
0

>  <SCORE.SYSTEM.CONST>
0

>  <SCORE.SYSTEM.DIHEDRAL>
0

>  <SCORE.SYSTEM.SOLV>
0

>  <SCORE.SYSTEM.norm>
0

>  <SCORE.heavy>
44

>  <SCORE.norm>
-0.335799

>  <RMSD>
1.909

$$$$
ligand
 OpenBabel11021811513D
libRbt.so/2013.1/901 2013/11/27
 44 50  0  0  0  0  0  0  0  0999 V2000
   -8.5351   36.2957  -15.9215 P   0  0  2  0  0  0  0  0  0  0  0  0
   -4.3131   34.9307  -12.8366 P   0  0  1  0  0  0  0  0  0  0  0  0
   -9.8395   36.9228  -15.4359 O   0  5  0  0  0  0  0  0  0  0  0  0
   -3.8732   33.5835  -13.3557 O   0  5  0  0  0  0  0  0  0  0  0  0
   -8.8723   35.5615  -17.1969 O   0  0  0  0  0  0  0  0  0  0  0  0
   -3.1934   35.4554  -11.9092 O   0  0  0  0  0  0  0  0  0  0  0  0
   -8.4686   35.7743  -13.4386 C   0  0  0  0  0  0  0  0  0  0  0  0
   -5.2348   37.1066  -13.8777 C   0  0  0  0  0  0  0  0  0  0  0  0
   -8.0756   35.3628  -14.7548 O   0  0  0  0  0  0  0  0  0  0  0  0
   -4.6786   35.7973  -14.1857 O   0  0  0  0  0  0  0  0  0  0  0  0
   -7.9979   34.7547  -12.4070 C   0  0  1  0  0  0  0  0  0  0  0  0
   -5.3956   37.8518  -15.2563 C   0  0  1  0  0  0  0  0  0  0  0  0
   -8.8823   33.8082  -12.3413 O   0  0  0  0  0  0  0  0  0  0  0  0
   -4.2636   37.7501  -15.8241 O   0  0  0  0  0  0  0  0  0  0  0  0
   -6.6868   34.0979  -12.7731 C   0  0  1  0  0  0  0  0  0  0  0  0
   -6.3197   37.0630  -16.2054 C   0  0  1  0  0  0  0  0  0  0  0  0
   -5.7216   34.7282  -12.0525 O   0  0  0  0  0  0  0  0  0  0  0  0
   -7.5490   37.5916  -16.2407 O   0  0  0  0  0  0  0  0  0  0  0  0
   -6.8625   32.6214  -12.2739 C   0  0  1  0  0  0  0  0  0  0  0  0
   -5.6590   37.0905  -17.6026 C   0  0  1  0  0  0  0  0  0  0  0  0
   -6.1481   32.4301  -10.9829 O   0  0  0  0  0  0  0  0  0  0  0  0
   -6.3406   38.0910  -18.4856 O   0  0  0  0  0  0  0  0  0  0  0  0
   -8.1345   32.4256  -12.1351 C   0  0  2  0  0  0  0  0  0  0  0  0
   -4.4435   37.4612  -17.3880 C   0  0  2  0  0  0  0  0  0  0  0  0
   -8.9182   30.4555  -17.0673 N   0  0  0  0  0  0  0  0  0  0  0  0
   -8.2742   31.6189  -16.7693 C   0  0  0  0  0  0  0  0  0  0  0  0
   -8.1246   32.0355  -15.4710 N   0  0  0  0  0  0  0  0  0  0  0  0
   -8.6361   31.2649  -14.4637 C   0  0  0  0  0  0  0  0  0  0  0  0
   -9.2783   30.1218  -14.7415 C   0  0  0  0  0  0  0  0  0  0  0  0
   -9.4177   29.7009  -16.0629 C   0  0  0  0  0  0  0  0  0  0  0  0
  -10.0674   28.5251  -16.4874 N   0  0  0  0  0  0  0  0  0  0  0  0
   -9.6680   29.5715  -13.5721 N   0  0  0  0  0  0  0  0  0  0  0  0
   -9.2629   30.3968  -12.5652 C   0  0  0  0  0  0  0  0  0  0  0  0
   -8.6117   31.4322  -13.1112 N   0  0  0  0  0  0  0  0  0  0  0  0
   -0.6172   36.0092  -20.6086 N   0  0  0  0  0  0  0  0  0  0  0  0
   -1.3161   37.1739  -20.6472 C   0  0  0  0  0  0  0  0  0  0  0  0
   -2.3012   37.4005  -19.7277 N   0  0  0  0  0  0  0  0  0  0  0  0
   -2.5775   36.4688  -18.7758 C   0  0  0  0  0  0  0  0  0  0  0  0
   -1.8850   35.3127  -18.7286 C   0  0  0  0  0  0  0  0  0  0  0  0
   -0.8860   35.0884  -19.6714 C   0  0  0  0  0  0  0  0  0  0  0  0
   -0.0427   33.9300  -19.8194 N   0  0  0  0  0  0  0  0  0  0  0  0
   -2.3743   34.5895  -17.6930 N   0  0  0  0  0  0  0  0  0  0  0  0
   -3.3685   35.3106  -17.1001 C   0  0  0  0  0  0  0  0  0  0  0  0
   -3.4843   36.4721  -17.7750 N   0  0  0  0  0  0  0  0  0  0  0  0
  1  3  1  1  0  0  0
  1  5  2  0  0  0  0
  1  9  1  0  0  0  0
  1 18  1  0  0  0  0
  2  4  1  6  0  0  0
  2  6  2  0  0  0  0
  2 10  1  0  0  0  0
  2 17  1  0  0  0  0
  7  9  1  0  0  0  0
  8 10  1  0  0  0  0
 11  7  1  6  0  0  0
 11 13  1  0  0  0  0
 11 15  1  0  0  0  0
 12  8  1  1  0  0  0
 12 14  1  0  0  0  0
 12 16  1  0  0  0  0
 13 23  1  0  0  0  0
 14 24  1  0  0  0  0
 15 17  1  1  0  0  0
 15 19  1  0  0  0  0
 16 18  1  6  0  0  0
 16 20  1  0  0  0  0
 19 21  1  1  0  0  0
 19 23  1  0  0  0  0
 20 22  1  6  0  0  0
 20 24  1  0  0  0  0
 23 34  1  6  0  0  0
 24 44  1  1  0  0  0
 25 26  2  0  0  0  0
 25 30  1  0  0  0  0
 26 27  1  0  0  0  0
 27 28  2  0  0  0  0
 28 29  1  0  0  0  0
 28 34  1  0  0  0  0
 29 30  2  0  0  0  0
 29 32  1  0  0  0  0
 30 31  1  0  0  0  0
 32 33  2  0  0  0  0
 33 34  1  0  0  0  0
 35 36  2  0  0  0  0
 35 40  1  0  0  0  0
 36 37  1  0  0  0  0
 37 38  2  0  0  0  0
 38 39  1  0  0  0  0
 38 44  1  0  0  0  0
 39 40  2  0  0  0  0
 39 42  1  0  0  0  0
 40 41  1  0  0  0  0
 42 43  2  0  0  0  0
 43 44  1  0  0  0  0
M  CHG  2   3  -1   4  -1
M  END
>  <CHROM.1>
62.13969924,-128.13685579,-6.06249164,34.61413141,-15.44857381,-3.05380107
-0.82979387,-2.25610945

>  <Name>
ligand

>  <RI>
0

>  <Rbt.Current_Directory>
/home/itssahil/PROJECTS/Mol_Feturizer/New_Systems/rnas/4QLM

>  <Rbt.Executable>
rbdock ($Id: //depot/dev/client3/rdock/2013.1/src/exe/rbdock.cxx#4 $)

>  <Rbt.Library>
libRbt.so (2013.1, Build901 2013/11/27)

>  <Rbt.Parameter_File>
/export/apps/rDock/src/rDock_2013.1_src/data/scripts/dock_solv.prm

>  <Rbt.Receptor>
prm/pocket_docking_5.prm

>  <SCORE>
-17.68

>  <SCORE.INTER>
-16.7717

>  <SCORE.INTER.CONST>
1

>  <SCORE.INTER.POLAR>
0

>  <SCORE.INTER.ROT>
2

>  <SCORE.INTER.SOLV>
30.7238

>  <SCORE.INTER.VDW>
-26.3557

>  <SCORE.INTER.norm>
-0.381176

>  <SCORE.INTRA>
-0.916865

>  <SCORE.INTRA.DIHEDRAL>
0.0539155

>  <SCORE.INTRA.DIHEDRAL.0>
2.32994

>  <SCORE.INTRA.POLAR>
0

>  <SCORE.INTRA.POLAR.0>
0

>  <SCORE.INTRA.REPUL>
0

>  <SCORE.INTRA.REPUL.0>
0

>  <SCORE.INTRA.SOLV>
0.0586691

>  <SCORE.INTRA.SOLV.lig_0>
-117.703

>  <SCORE.INTRA.VDW>
-0.973158

>  <SCORE.INTRA.VDW.0>
-1.59997

>  <SCORE.INTRA.norm>
-0.0208379

>  <SCORE.RESTR>
0.00858265

>  <SCORE.RESTR.CAVITY>
0.00858265

>  <SCORE.RESTR.norm>
0.00019506

>  <SCORE.SYSTEM>
0

>  <SCORE.SYSTEM.CONST>
0

>  <SCORE.SYSTEM.DIHEDRAL>
0

>  <SCORE.SYSTEM.SOLV>
0

>  <SCORE.SYSTEM.norm>
0

>  <SCORE.heavy>
44

>  <SCORE.norm>
-0.401818

>  <RMSD>
1.909

$$$$
ligand
 OpenBabel11021811513D
libRbt.so/2013.1/901 2013/11/27
 44 50  0  0  0  0  0  0  0  0999 V2000
   -8.6136   36.6758  -15.8012 P   0  0  2  0  0  0  0  0  0  0  0  0
   -4.4403   34.8856  -12.8713 P   0  0  1  0  0  0  0  0  0  0  0  0
   -9.8739   37.3446  -15.2580 O   0  5  0  0  0  0  0  0  0  0  0  0
   -4.0850   33.5503  -13.4783 O   0  5  0  0  0  0  0  0  0  0  0  0
   -9.0079   36.0420  -17.1136 O   0  0  0  0  0  0  0  0  0  0  0  0
   -3.2813   35.2878  -11.9311 O   0  0  0  0  0  0  0  0  0  0  0  0
   -8.5474   35.9992  -13.3560 C   0  0  0  0  0  0  0  0  0  0  0  0
   -5.2478   37.1705  -13.7634 C   0  0  0  0  0  0  0  0  0  0  0  0
   -8.1946   35.6481  -14.7008 O   0  0  0  0  0  0  0  0  0  0  0  0
   -4.7716   35.8532  -14.1593 O   0  0  0  0  0  0  0  0  0  0  0  0
   -8.1237   34.8927  -12.3959 C   0  0  1  0  0  0  0  0  0  0  0  0
   -5.3820   38.0072  -15.0913 C   0  0  1  0  0  0  0  0  0  0  0  0
   -9.0603   33.9957  -12.3743 O   0  0  0  0  0  0  0  0  0  0  0  0
   -4.2647   37.8768  -15.6818 O   0  0  0  0  0  0  0  0  0  0  0  0
   -6.8571   34.1865  -12.8218 C   0  0  1  0  0  0  0  0  0  0  0  0
   -6.3614   37.3322  -16.0722 C   0  0  1  0  0  0  0  0  0  0  0  0
   -5.8486   34.7153  -12.0792 O   0  0  0  0  0  0  0  0  0  0  0  0
   -7.5585   37.9309  -16.0561 O   0  0  0  0  0  0  0  0  0  0  0  0
   -7.1114   32.6943  -12.4108 C   0  0  1  0  0  0  0  0  0  0  0  0
   -5.7171   37.4085  -17.4752 C   0  0  1  0  0  0  0  0  0  0  0  0
   -6.3938   32.3834  -11.1452 O   0  0  0  0  0  0  0  0  0  0  0  0
   -6.3505   38.4986  -18.2849 O   0  0  0  0  0  0  0  0  0  0  0  0
   -8.3909   32.5627  -12.2645 C   0  0  2  0  0  0  0  0  0  0  0  0
   -4.4797   37.6957  -17.2574 C   0  0  2  0  0  0  0  0  0  0  0  0
  -11.5915   31.2539  -16.3711 N   0  0  0  0  0  0  0  0  0  0  0  0
  -11.5299   32.4751  -15.7694 C   0  0  0  0  0  0  0  0  0  0  0  0
  -10.6738   32.7092  -14.7237 N   0  0  0  0  0  0  0  0  0  0  0  0
   -9.8728   31.6928  -14.2814 C   0  0  0  0  0  0  0  0  0  0  0  0
   -9.9273   30.4843  -14.8584 C   0  0  0  0  0  0  0  0  0  0  0  0
  -10.7933   30.2575  -15.9267 C   0  0  0  0  0  0  0  0  0  0  0  0
  -10.9457   29.0390  -16.6175 N   0  0  0  0  0  0  0  0  0  0  0  0
   -9.0370   29.6862  -14.2317 N   0  0  0  0  0  0  0  0  0  0  0  0
   -8.4352   30.4186  -13.2516 C   0  0  0  0  0  0  0  0  0  0  0  0
   -8.9362   31.6601  -13.2917 N   0  0  0  0  0  0  0  0  0  0  0  0
   -0.8832   36.1810  -20.7057 N   0  0  0  0  0  0  0  0  0  0  0  0
   -1.5330   37.3741  -20.6777 C   0  0  0  0  0  0  0  0  0  0  0  0
   -2.4607   37.6144  -19.7037 N   0  0  0  0  0  0  0  0  0  0  0  0
   -2.7287   36.6678  -18.7641 C   0  0  0  0  0  0  0  0  0  0  0  0
   -2.0845   35.4834  -18.7830 C   0  0  0  0  0  0  0  0  0  0  0  0
   -1.1439   35.2455  -19.7810 C   0  0  0  0  0  0  0  0  0  0  0  0
   -0.3589   34.0581  -20.0025 N   0  0  0  0  0  0  0  0  0  0  0  0
   -2.5521   34.7514  -17.7436 N   0  0  0  0  0  0  0  0  0  0  0  0
   -3.4840   35.4954  -17.0819 C   0  0  0  0  0  0  0  0  0  0  0  0
   -3.5838   36.6796  -17.7189 N   0  0  0  0  0  0  0  0  0  0  0  0
  1  3  1  1  0  0  0
  1  5  2  0  0  0  0
  1  9  1  0  0  0  0
  1 18  1  0  0  0  0
  2  4  1  6  0  0  0
  2  6  2  0  0  0  0
  2 10  1  0  0  0  0
  2 17  1  0  0  0  0
  7  9  1  0  0  0  0
  8 10  1  0  0  0  0
 11  7  1  6  0  0  0
 11 13  1  0  0  0  0
 11 15  1  0  0  0  0
 12  8  1  1  0  0  0
 12 14  1  0  0  0  0
 12 16  1  0  0  0  0
 13 23  1  0  0  0  0
 14 24  1  0  0  0  0
 15 17  1  1  0  0  0
 15 19  1  0  0  0  0
 16 18  1  6  0  0  0
 16 20  1  0  0  0  0
 19 21  1  1  0  0  0
 19 23  1  0  0  0  0
 20 22  1  6  0  0  0
 20 24  1  0  0  0  0
 23 34  1  6  0  0  0
 24 44  1  1  0  0  0
 25 26  2  0  0  0  0
 25 30  1  0  0  0  0
 26 27  1  0  0  0  0
 27 28  2  0  0  0  0
 28 29  1  0  0  0  0
 28 34  1  0  0  0  0
 29 30  2  0  0  0  0
 29 32  1  0  0  0  0
 30 31  1  0  0  0  0
 32 33  2  0  0  0  0
 33 34  1  0  0  0  0
 35 36  2  0  0  0  0
 35 40  1  0  0  0  0
 36 37  1  0  0  0  0
 37 38  2  0  0  0  0
 38 39  1  0  0  0  0
 38 44  1  0  0  0  0
 39 40  2  0  0  0  0
 39 42  1  0  0  0  0
 40 41  1  0  0  0  0
 42 43  2  0  0  0  0
 43 44  1  0  0  0  0
M  CHG  2   3  -1   4  -1
M  END
>  <CHROM.1>
-2.30861551,-131.11306026,-6.39483844,34.84342671,-15.41133495,2.63174075
0.58143060,1.59577470

>  <Name>
ligand

>  <RI>
0

>  <Rbt.Current_Directory>
/home/itssahil/PROJECTS/Mol_Feturizer/New_Systems/rnas/4QLM

>  <Rbt.Executable>
rbdock ($Id: //depot/dev/client3/rdock/2013.1/src/exe/rbdock.cxx#4 $)

>  <Rbt.Library>
libRbt.so (2013.1, Build901 2013/11/27)

>  <Rbt.Parameter_File>
/export/apps/rDock/src/rDock_2013.1_src/data/scripts/dock_solv.prm

>  <Rbt.Receptor>
prm/pocket_docking_3.prm

>  <SCORE>
-14.984

>  <SCORE.INTER>
-15.3413

>  <SCORE.INTER.CONST>
1

>  <SCORE.INTER.POLAR>
0

>  <SCORE.INTER.ROT>
2

>  <SCORE.INTER.SOLV>
31.665

>  <SCORE.INTER.VDW>
-25.7159

>  <SCORE.INTER.norm>
-0.348666

>  <SCORE.INTRA>
0.238603

>  <SCORE.INTRA.DIHEDRAL>
0.0726023

>  <SCORE.INTRA.DIHEDRAL.0>
2.32994

>  <SCORE.INTRA.POLAR>
0

>  <SCORE.INTRA.POLAR.0>
0

>  <SCORE.INTRA.REPUL>
0

>  <SCORE.INTRA.REPUL.0>
0

>  <SCORE.INTRA.SOLV>
0.0615517

>  <SCORE.INTRA.SOLV.lig_0>
-117.703

>  <SCORE.INTRA.VDW>
0.171526

>  <SCORE.INTRA.VDW.0>
-1.59997

>  <SCORE.INTRA.norm>
0.0054228

>  <SCORE.RESTR>
0.118748

>  <SCORE.RESTR.CAVITY>
0.118748

>  <SCORE.RESTR.norm>
0.00269881

>  <SCORE.SYSTEM>
0

>  <SCORE.SYSTEM.CONST>
0

>  <SCORE.SYSTEM.DIHEDRAL>
0

>  <SCORE.SYSTEM.SOLV>
0

>  <SCORE.SYSTEM.norm>
0

>  <SCORE.heavy>
44

>  <SCORE.norm>
-0.340545

>  <RMSD>
1.912

$$$$
ligand
 OpenBabel11021811513D
libRbt.so/2013.1/901 2013/11/27
 44 50  0  0  0  0  0  0  0  0999 V2000
  -10.4207   35.0410  -16.5652 P   0  0  2  0  0  0  0  0  0  0  0  0
   -6.8686   34.7521  -12.5026 P   0  0  1  0  0  0  0  0  0  0  0  0
  -11.9036   35.3818  -16.4419 O   0  5  0  0  0  0  0  0  0  0  0  0
   -6.0498   33.5174  -12.7907 O   0  5  0  0  0  0  0  0  0  0  0  0
  -10.2852   34.2053  -17.8153 O   0  0  0  0  0  0  0  0  0  0  0  0
   -6.1353   35.5437  -11.3959 O   0  0  0  0  0  0  0  0  0  0  0  0
  -10.8425   34.6363  -14.0954 C   0  0  0  0  0  0  0  0  0  0  0  0
   -7.9432   36.6324  -13.9089 C   0  0  0  0  0  0  0  0  0  0  0  0
  -10.0707   34.2748  -15.2487 O   0  0  0  0  0  0  0  0  0  0  0  0
   -7.0721   35.4679  -13.9693 O   0  0  0  0  0  0  0  0  0  0  0  0
  -10.4318   33.7831  -12.9000 C   0  0  1  0  0  0  0  0  0  0  0  0
   -7.9204   37.2739  -15.3475 C   0  0  1  0  0  0  0  0  0  0  0  0
  -11.0919   32.6679  -12.9535 O   0  0  0  0  0  0  0  0  0  0  0  0
   -6.6898   37.4042  -15.6349 O   0  0  0  0  0  0  0  0  0  0  0  0
   -8.9649   33.4190  -12.9033 C   0  0  1  0  0  0  0  0  0  0  0  0
   -8.4086   36.2673  -16.4084 C   0  0  1  0  0  0  0  0  0  0  0  0
   -8.3506   34.2721  -12.0413 O   0  0  0  0  0  0  0  0  0  0  0  0
   -9.6757   36.5102  -16.7651 O   0  0  0  0  0  0  0  0  0  0  0  0
   -8.9465   31.9590  -12.3306 C   0  0  1  0  0  0  0  0  0  0  0  0
   -7.4540   36.3898  -17.6179 C   0  0  1  0  0  0  0  0  0  0  0  0
   -8.5371   31.9762  -10.9004 O   0  0  0  0  0  0  0  0  0  0  0  0
   -8.0963   37.1832  -18.7149 O   0  0  0  0  0  0  0  0  0  0  0  0
  -10.1465   31.4925  -12.4654 C   0  0  2  0  0  0  0  0  0  0  0  0
   -6.4279   37.0270  -17.1681 C   0  0  2  0  0  0  0  0  0  0  0  0
   -9.1184   29.1621  -17.1912 N   0  0  0  0  0  0  0  0  0  0  0  0
   -8.7648   30.4295  -16.8365 C   0  0  0  0  0  0  0  0  0  0  0  0
   -9.0745   30.9332  -15.5988 N   0  0  0  0  0  0  0  0  0  0  0  0
   -9.7528   30.1437  -14.7118 C   0  0  0  0  0  0  0  0  0  0  0  0
  -10.1137   28.8976  -15.0489 C   0  0  0  0  0  0  0  0  0  0  0  0
   -9.7867   28.3902  -16.3052 C   0  0  0  0  0  0  0  0  0  0  0  0
  -10.1057   27.1030  -16.7808 N   0  0  0  0  0  0  0  0  0  0  0  0
  -10.7570   28.3537  -13.9941 N   0  0  0  0  0  0  0  0  0  0  0  0
  -10.7953   29.2864  -13.0003 C   0  0  0  0  0  0  0  0  0  0  0  0
  -10.1618   30.3840  -13.4340 N   0  0  0  0  0  0  0  0  0  0  0  0
   -1.7754   36.2754  -19.3839 N   0  0  0  0  0  0  0  0  0  0  0  0
   -2.6781   37.2428  -19.6934 C   0  0  0  0  0  0  0  0  0  0  0  0
   -3.8646   37.2996  -19.0180 N   0  0  0  0  0  0  0  0  0  0  0  0
   -4.1389   36.3970  -18.0378 C   0  0  0  0  0  0  0  0  0  0  0  0
   -3.2461   35.4371  -17.7222 C   0  0  0  0  0  0  0  0  0  0  0  0
   -2.0417   35.3842  -18.4179 C   0  0  0  0  0  0  0  0  0  0  0  0
   -0.9622   34.4432  -18.2625 N   0  0  0  0  0  0  0  0  0  0  0  0
   -3.7856   34.6937  -16.7266 N   0  0  0  0  0  0  0  0  0  0  0  0
   -5.0137   35.2061  -16.4280 C   0  0  0  0  0  0  0  0  0  0  0  0
   -5.2215   36.2607  -17.2421 N   0  0  0  0  0  0  0  0  0  0  0  0
  1  3  1  1  0  0  0
  1  5  2  0  0  0  0
  1  9  1  0  0  0  0
  1 18  1  0  0  0  0
  2  4  1  6  0  0  0
  2  6  2  0  0  0  0
  2 10  1  0  0  0  0
  2 17  1  0  0  0  0
  7  9  1  0  0  0  0
  8 10  1  0  0  0  0
 11  7  1  6  0  0  0
 11 13  1  0  0  0  0
 11 15  1  0  0  0  0
 12  8  1  1  0  0  0
 12 14  1  0  0  0  0
 12 16  1  0  0  0  0
 13 23  1  0  0  0  0
 14 24  1  0  0  0  0
 15 17  1  1  0  0  0
 15 19  1  0  0  0  0
 16 18  1  6  0  0  0
 16 20  1  0  0  0  0
 19 21  1  1  0  0  0
 19 23  1  0  0  0  0
 20 22  1  6  0  0  0
 20 24  1  0  0  0  0
 23 34  1  6  0  0  0
 24 44  1  1  0  0  0
 25 26  2  0  0  0  0
 25 30  1  0  0  0  0
 26 27  1  0  0  0  0
 27 28  2  0  0  0  0
 28 29  1  0  0  0  0
 28 34  1  0  0  0  0
 29 30  2  0  0  0  0
 29 32  1  0  0  0  0
 30 31  1  0  0  0  0
 32 33  2  0  0  0  0
 33 34  1  0  0  0  0
 35 36  2  0  0  0  0
 35 40  1  0  0  0  0
 36 37  1  0  0  0  0
 37 38  2  0  0  0  0
 38 39  1  0  0  0  0
 38 44  1  0  0  0  0
 39 40  2  0  0  0  0
 39 42  1  0  0  0  0
 40 41  1  0  0  0  0
 42 43  2  0  0  0  0
 43 44  1  0  0  0  0
M  CHG  2   3  -1   4  -1
M  END
>  <CHROM.1>
67.38095405,-130.47598349,-7.83109642,33.95538257,-15.40572927,2.73146059
-0.77351904,-2.71493193

>  <Name>
ligand

>  <RI>
0

>  <Rbt.Current_Directory>
/home/itssahil/PROJECTS/Mol_Feturizer/New_Systems/rnas/4QLM

>  <Rbt.Executable>
rbdock ($Id: //depot/dev/client3/rdock/2013.1/src/exe/rbdock.cxx#4 $)

>  <Rbt.Library>
libRbt.so (2013.1, Build901 2013/11/27)

>  <Rbt.Parameter_File>
/export/apps/rDock/src/rDock_2013.1_src/data/scripts/dock_solv.prm

>  <Rbt.Receptor>
prm/pocket_docking_4.prm

>  <SCORE>
-13.3839

>  <SCORE.INTER>
-12.6029

>  <SCORE.INTER.CONST>
1

>  <SCORE.INTER.POLAR>
0

>  <SCORE.INTER.ROT>
2

>  <SCORE.INTER.SOLV>
32.4251

>  <SCORE.INTER.VDW>
-24.1436

>  <SCORE.INTER.norm>
-0.28643

>  <SCORE.INTRA>
-0.862414

>  <SCORE.INTRA.DIHEDRAL>
0.0280623

>  <SCORE.INTRA.DIHEDRAL.0>
2.32994

>  <SCORE.INTRA.POLAR>
0

>  <SCORE.INTRA.POLAR.0>
0

>  <SCORE.INTRA.REPUL>
0

>  <SCORE.INTRA.REPUL.0>
0

>  <SCORE.INTRA.SOLV>
-0.0044882

>  <SCORE.INTRA.SOLV.lig_0>
-117.703

>  <SCORE.INTRA.VDW>
-0.874201

>  <SCORE.INTRA.VDW.0>
-1.59997

>  <SCORE.INTRA.norm>
-0.0196003

>  <SCORE.RESTR>
0.0814713

>  <SCORE.RESTR.CAVITY>
0.0814713

>  <SCORE.RESTR.norm>
0.00185162

>  <SCORE.SYSTEM>
0

>  <SCORE.SYSTEM.CONST>
0

>  <SCORE.SYSTEM.DIHEDRAL>
0

>  <SCORE.SYSTEM.SOLV>
0

>  <SCORE.SYSTEM.norm>
0

>  <SCORE.heavy>
44

>  <SCORE.norm>
-0.304179

>  <RMSD>
1.915

$$$$
ligand
 OpenBabel11021811513D
libRbt.so/2013.1/901 2013/11/27
 44 50  0  0  0  0  0  0  0  0999 V2000
  -10.4173   35.0624  -16.5516 P   0  0  2  0  0  0  0  0  0  0  0  0
   -6.8628   34.7864  -12.4902 P   0  0  1  0  0  0  0  0  0  0  0  0
  -11.9010   35.3999  -16.4280 O   0  5  0  0  0  0  0  0  0  0  0  0
   -6.0412   33.5534  -12.7773 O   0  5  0  0  0  0  0  0  0  0  0  0
  -10.2803   34.2257  -17.8008 O   0  0  0  0  0  0  0  0  0  0  0  0
   -6.1310   35.5810  -11.3847 O   0  0  0  0  0  0  0  0  0  0  0  0
  -10.8371   34.6594  -14.0812 C   0  0  0  0  0  0  0  0  0  0  0  0
   -7.9425   36.6627  -13.8981 C   0  0  0  0  0  0  0  0  0  0  0  0
  -10.0649   34.2985  -15.2344 O   0  0  0  0  0  0  0  0  0  0  0  0
   -7.0686   35.5002  -13.9575 O   0  0  0  0  0  0  0  0  0  0  0  0
  -10.4238   33.8086  -12.8851 C   0  0  1  0  0  0  0  0  0  0  0  0
   -7.9218   37.3027  -15.3374 C   0  0  1  0  0  0  0  0  0  0  0  0
  -11.0813   32.6917  -12.9371 O   0  0  0  0  0  0  0  0  0  0  0  0
   -6.6916   37.4356  -15.6254 O   0  0  0  0  0  0  0  0  0  0  0  0
   -8.9561   33.4480  -12.8886 C   0  0  1  0  0  0  0  0  0  0  0  0
   -8.4080   36.2937  -16.3969 C   0  0  1  0  0  0  0  0  0  0  0  0
   -8.3435   34.3034  -12.0277 O   0  0  0  0  0  0  0  0  0  0  0  0
   -9.6758   36.5332  -16.7534 O   0  0  0  0  0  0  0  0  0  0  0  0
   -8.9340   31.9886  -12.3143 C   0  0  1  0  0  0  0  0  0  0  0  0
   -7.4542   36.4172  -17.6070 C   0  0  1  0  0  0  0  0  0  0  0  0
   -8.5241   32.0084  -10.8842 O   0  0  0  0  0  0  0  0  0  0  0  0
   -8.0989   37.2078  -18.7046 O   0  0  0  0  0  0  0  0  0  0  0  0
  -10.1329   31.5191  -12.4480 C   0  0  2  0  0  0  0  0  0  0  0  0
   -6.4295   37.0573  -17.1584 C   0  0  2  0  0  0  0  0  0  0  0  0
   -9.1170   29.1916  -17.1779 N   0  0  0  0  0  0  0  0  0  0  0  0
   -8.7706   30.4619  -16.8267 C   0  0  0  0  0  0  0  0  0  0  0  0
   -9.0764   30.9646  -15.5876 N   0  0  0  0  0  0  0  0  0  0  0  0
   -9.7432   30.1709  -14.6955 C   0  0  0  0  0  0  0  0  0  0  0  0
  -10.0968   28.9219  -15.0291 C   0  0  0  0  0  0  0  0  0  0  0  0
   -9.7739   28.4156  -16.2869 C   0  0  0  0  0  0  0  0  0  0  0  0
  -10.0863   27.1255  -16.7593 N   0  0  0  0  0  0  0  0  0  0  0  0
  -10.7295   28.3742  -13.9698 N   0  0  0  0  0  0  0  0  0  0  0  0
  -10.7685   29.3076  -12.9767 C   0  0  0  0  0  0  0  0  0  0  0  0
  -10.1460   30.4095  -13.4154 N   0  0  0  0  0  0  0  0  0  0  0  0
   -1.7899   36.2948  -19.3973 N   0  0  0  0  0  0  0  0  0  0  0  0
   -2.6975   37.2560  -19.7114 C   0  0  0  0  0  0  0  0  0  0  0  0
   -3.8796   37.3168  -19.0285 N   0  0  0  0  0  0  0  0  0  0  0  0
   -4.1445   36.4244  -18.0366 C   0  0  0  0  0  0  0  0  0  0  0  0
   -3.2467   35.4708  -17.7164 C   0  0  0  0  0  0  0  0  0  0  0  0
   -2.0469   35.4136  -18.4196 C   0  0  0  0  0  0  0  0  0  0  0  0
   -0.9635   34.4776  -18.2610 N   0  0  0  0  0  0  0  0  0  0  0  0
   -3.7771   34.7370  -16.7088 N   0  0  0  0  0  0  0  0  0  0  0  0
   -5.0047   35.2490  -16.4076 C   0  0  0  0  0  0  0  0  0  0  0  0
   -5.2213   36.2938  -17.2320 N   0  0  0  0  0  0  0  0  0  0  0  0
  1  3  1  1  0  0  0
  1  5  2  0  0  0  0
  1  9  1  0  0  0  0
  1 18  1  0  0  0  0
  2  4  1  6  0  0  0
  2  6  2  0  0  0  0
  2 10  1  0  0  0  0
  2 17  1  0  0  0  0
  7  9  1  0  0  0  0
  8 10  1  0  0  0  0
 11  7  1  6  0  0  0
 11 13  1  0  0  0  0
 11 15  1  0  0  0  0
 12  8  1  1  0  0  0
 12 14  1  0  0  0  0
 12 16  1  0  0  0  0
 13 23  1  0  0  0  0
 14 24  1  0  0  0  0
 15 17  1  1  0  0  0
 15 19  1  0  0  0  0
 16 18  1  6  0  0  0
 16 20  1  0  0  0  0
 19 21  1  1  0  0  0
 19 23  1  0  0  0  0
 20 22  1  6  0  0  0
 20 24  1  0  0  0  0
 23 34  1  6  0  0  0
 24 44  1  1  0  0  0
 25 26  2  0  0  0  0
 25 30  1  0  0  0  0
 26 27  1  0  0  0  0
 27 28  2  0  0  0  0
 28 29  1  0  0  0  0
 28 34  1  0  0  0  0
 29 30  2  0  0  0  0
 29 32  1  0  0  0  0
 30 31  1  0  0  0  0
 32 33  2  0  0  0  0
 33 34  1  0  0  0  0
 35 36  2  0  0  0  0
 35 40  1  0  0  0  0
 36 37  1  0  0  0  0
 37 38  2  0  0  0  0
 38 39  1  0  0  0  0
 38 44  1  0  0  0  0
 39 40  2  0  0  0  0
 39 42  1  0  0  0  0
 40 41  1  0  0  0  0
 42 43  2  0  0  0  0
 43 44  1  0  0  0  0
M  CHG  2   3  -1   4  -1
M  END
>  <CHROM.1>
66.93632506,-131.15954931,-7.82674596,33.98313534,-15.39411303,2.73570781
-0.77831819,-2.70969132

>  <Name>
ligand

>  <RI>
0

>  <Rbt.Current_Directory>
/home/itssahil/PROJECTS/Mol_Feturizer/New_Systems/rnas/4QLM

>  <Rbt.Executable>
rbdock ($Id: //depot/dev/client3/rdock/2013.1/src/exe/rbdock.cxx#4 $)

>  <Rbt.Library>
libRbt.so (2013.1, Build901 2013/11/27)

>  <Rbt.Parameter_File>
/export/apps/rDock/src/rDock_2013.1_src/data/scripts/dock_solv.prm

>  <Rbt.Receptor>
prm/pocket_docking_3.prm

>  <SCORE>
-13.4431

>  <SCORE.INTER>
-12.6396

>  <SCORE.INTER.CONST>
1

>  <SCORE.INTER.POLAR>
0

>  <SCORE.INTER.ROT>
2

>  <SCORE.INTER.SOLV>
32.1981

>  <SCORE.INTER.VDW>
-24.0924

>  <SCORE.INTER.norm>
-0.287264

>  <SCORE.INTRA>
-0.874117

>  <SCORE.INTRA.DIHEDRAL>
0.0305692

>  <SCORE.INTRA.DIHEDRAL.0>
2.32994

>  <SCORE.INTRA.POLAR>
0

>  <SCORE.INTRA.POLAR.0>
0

>  <SCORE.INTRA.REPUL>
0

>  <SCORE.INTRA.REPUL.0>
0

>  <SCORE.INTRA.SOLV>
-0.00440979

>  <SCORE.INTRA.SOLV.lig_0>
-117.703

>  <SCORE.INTRA.VDW>
-0.887197

>  <SCORE.INTRA.VDW.0>
-1.59997

>  <SCORE.INTRA.norm>
-0.0198663

>  <SCORE.RESTR>
0.0706216

>  <SCORE.RESTR.CAVITY>
0.0706216

>  <SCORE.RESTR.norm>
0.00160504

>  <SCORE.SYSTEM>
0

>  <SCORE.SYSTEM.CONST>
0

>  <SCORE.SYSTEM.DIHEDRAL>
0

>  <SCORE.SYSTEM.SOLV>
0

>  <SCORE.SYSTEM.norm>
0

>  <SCORE.heavy>
44

>  <SCORE.norm>
-0.305525

>  <RMSD>
1.916

$$$$
ligand
 OpenBabel11021811513D
libRbt.so/2013.1/901 2013/11/27
 44 50  0  0  0  0  0  0  0  0999 V2000
   -8.5639   36.6961  -15.8032 P   0  0  2  0  0  0  0  0  0  0  0  0
   -4.3749   34.8725  -12.9167 P   0  0  1  0  0  0  0  0  0  0  0  0
   -9.8131   37.3747  -15.2470 O   0  5  0  0  0  0  0  0  0  0  0  0
   -4.0364   33.5345  -13.5276 O   0  5  0  0  0  0  0  0  0  0  0  0
   -8.9766   36.0658  -17.1116 O   0  0  0  0  0  0  0  0  0  0  0  0
   -3.2030   35.2652  -11.9884 O   0  0  0  0  0  0  0  0  0  0  0  0
   -8.4778   36.0184  -13.3589 C   0  0  0  0  0  0  0  0  0  0  0  0
   -5.1734   37.1638  -13.8000 C   0  0  0  0  0  0  0  0  0  0  0  0
   -8.1416   35.6649  -14.7074 O   0  0  0  0  0  0  0  0  0  0  0  0
   -4.7117   35.8429  -14.2010 O   0  0  0  0  0  0  0  0  0  0  0  0
   -8.0530   34.9084  -12.4034 C   0  0  1  0  0  0  0  0  0  0  0  0
   -5.3147   38.0019  -15.1264 C   0  0  1  0  0  0  0  0  0  0  0  0
   -8.9964   34.0188  -12.3723 O   0  0  0  0  0  0  0  0  0  0  0  0
   -4.2046   37.8628  -15.7284 O   0  0  0  0  0  0  0  0  0  0  0  0
   -6.7965   34.1923  -12.8424 C   0  0  1  0  0  0  0  0  0  0  0  0
   -6.3094   37.3349  -16.0973 C   0  0  1  0  0  0  0  0  0  0  0  0
   -5.7762   34.7130  -12.1102 O   0  0  0  0  0  0  0  0  0  0  0  0
   -7.5015   37.9430  -16.0687 O   0  0  0  0  0  0  0  0  0  0  0  0
   -7.0583   32.7021  -12.4291 C   0  0  1  0  0  0  0  0  0  0  0  0
   -5.6790   37.4064  -17.5068 C   0  0  1  0  0  0  0  0  0  0  0  0
   -6.3301   32.3853  -11.1710 O   0  0  0  0  0  0  0  0  0  0  0  0
   -6.3121   38.5017  -18.3097 O   0  0  0  0  0  0  0  0  0  0  0  0
   -8.3371   32.5806  -12.2696 C   0  0  2  0  0  0  0  0  0  0  0  0
   -4.4373   37.6838  -17.3017 C   0  0  2  0  0  0  0  0  0  0  0  0
  -11.5717   31.3059  -16.3604 N   0  0  0  0  0  0  0  0  0  0  0  0
  -11.4888   32.5284  -15.7639 C   0  0  0  0  0  0  0  0  0  0  0  0
  -10.6255   32.7532  -14.7220 N   0  0  0  0  0  0  0  0  0  0  0  0
   -9.8394   31.7260  -14.2781 C   0  0  0  0  0  0  0  0  0  0  0  0
   -9.9148   30.5162  -14.8499 C   0  0  0  0  0  0  0  0  0  0  0  0
  -10.7879   30.2988  -15.9145 C   0  0  0  0  0  0  0  0  0  0  0  0
  -10.9618   29.0801  -16.5998 N   0  0  0  0  0  0  0  0  0  0  0  0
   -9.0353   29.7066  -14.2229 N   0  0  0  0  0  0  0  0  0  0  0  0
   -8.4187   30.4334  -13.2478 C   0  0  0  0  0  0  0  0  0  0  0  0
   -8.9000   31.6826  -13.2914 N   0  0  0  0  0  0  0  0  0  0  0  0
   -0.8430   36.1639  -20.7501 N   0  0  0  0  0  0  0  0  0  0  0  0
   -1.4746   37.3663  -20.7086 C   0  0  0  0  0  0  0  0  0  0  0  0
   -2.4046   37.6068  -19.7367 N   0  0  0  0  0  0  0  0  0  0  0  0
   -2.6928   36.6510  -18.8127 C   0  0  0  0  0  0  0  0  0  0  0  0
   -2.0667   35.4572  -18.8450 C   0  0  0  0  0  0  0  0  0  0  0  0
   -1.1237   35.2193  -19.8406 C   0  0  0  0  0  0  0  0  0  0  0  0
   -0.3557   34.0233  -20.0747 N   0  0  0  0  0  0  0  0  0  0  0  0
   -2.5519   34.7175  -17.8191 N   0  0  0  0  0  0  0  0  0  0  0  0
   -3.4765   35.4661  -17.1523 C   0  0  0  0  0  0  0  0  0  0  0  0
   -3.5541   36.6608  -17.7725 N   0  0  0  0  0  0  0  0  0  0  0  0
  1  3  1  1  0  0  0
  1  5  2  0  0  0  0
  1  9  1  0  0  0  0
  1 18  1  0  0  0  0
  2  4  1  6  0  0  0
  2  6  2  0  0  0  0
  2 10  1  0  0  0  0
  2 17  1  0  0  0  0
  7  9  1  0  0  0  0
  8 10  1  0  0  0  0
 11  7  1  6  0  0  0
 11 13  1  0  0  0  0
 11 15  1  0  0  0  0
 12  8  1  1  0  0  0
 12 14  1  0  0  0  0
 12 16  1  0  0  0  0
 13 23  1  0  0  0  0
 14 24  1  0  0  0  0
 15 17  1  1  0  0  0
 15 19  1  0  0  0  0
 16 18  1  6  0  0  0
 16 20  1  0  0  0  0
 19 21  1  1  0  0  0
 19 23  1  0  0  0  0
 20 22  1  6  0  0  0
 20 24  1  0  0  0  0
 23 34  1  6  0  0  0
 24 44  1  1  0  0  0
 25 26  2  0  0  0  0
 25 30  1  0  0  0  0
 26 27  1  0  0  0  0
 27 28  2  0  0  0  0
 28 29  1  0  0  0  0
 28 34  1  0  0  0  0
 29 30  2  0  0  0  0
 29 32  1  0  0  0  0
 30 31  1  0  0  0  0
 32 33  2  0  0  0  0
 33 34  1  0  0  0  0
 35 36  2  0  0  0  0
 35 40  1  0  0  0  0
 36 37  1  0  0  0  0
 37 38  2  0  0  0  0
 38 39  1  0  0  0  0
 38 44  1  0  0  0  0
 39 40  2  0  0  0  0
 39 42  1  0  0  0  0
 40 41  1  0  0  0  0
 42 43  2  0  0  0  0
 43 44  1  0  0  0  0
M  CHG  2   3  -1   4  -1
M  END
>  <CHROM.1>
-1.65267014,-129.79487193,-6.35098303,34.84852372,-15.43480137,2.61679045
0.56815153,1.61237723

>  <Name>
ligand

>  <RI>
0

>  <Rbt.Current_Directory>
/home/itssahil/PROJECTS/Mol_Feturizer/New_Systems/rnas/4QLM

>  <Rbt.Executable>
rbdock ($Id: //depot/dev/client3/rdock/2013.1/src/exe/rbdock.cxx#4 $)

>  <Rbt.Library>
libRbt.so (2013.1, Build901 2013/11/27)

>  <Rbt.Parameter_File>
/export/apps/rDock/src/rDock_2013.1_src/data/scripts/dock_solv.prm

>  <Rbt.Receptor>
prm/pocket_docking_4.prm

>  <SCORE>
-15.0288

>  <SCORE.INTER>
-15.5403

>  <SCORE.INTER.CONST>
1

>  <SCORE.INTER.POLAR>
0

>  <SCORE.INTER.ROT>
2

>  <SCORE.INTER.SOLV>
31.9005

>  <SCORE.INTER.VDW>
-25.927

>  <SCORE.INTER.norm>
-0.353188

>  <SCORE.INTRA>
0.21377

>  <SCORE.INTRA.DIHEDRAL>
0.0755591

>  <SCORE.INTRA.DIHEDRAL.0>
2.32994

>  <SCORE.INTRA.POLAR>
0

>  <SCORE.INTRA.POLAR.0>
0

>  <SCORE.INTRA.REPUL>
0

>  <SCORE.INTRA.REPUL.0>
0

>  <SCORE.INTRA.SOLV>
0.0607664

>  <SCORE.INTRA.SOLV.lig_0>
-117.703

>  <SCORE.INTRA.VDW>
0.145607

>  <SCORE.INTRA.VDW.0>
-1.59997

>  <SCORE.INTRA.norm>
0.0048584

>  <SCORE.RESTR>
0.29772

>  <SCORE.RESTR.CAVITY>
0.29772

>  <SCORE.RESTR.norm>
0.00676636

>  <SCORE.SYSTEM>
0

>  <SCORE.SYSTEM.CONST>
0

>  <SCORE.SYSTEM.DIHEDRAL>
0

>  <SCORE.SYSTEM.SOLV>
0

>  <SCORE.SYSTEM.norm>
0

>  <SCORE.heavy>
44

>  <SCORE.norm>
-0.341563

>  <RMSD>
1.939

$$$$
ligand
 OpenBabel11021811513D
libRbt.so/2013.1/901 2013/11/27
 44 50  0  0  0  0  0  0  0  0999 V2000
   -8.7418   36.7659  -15.5199 P   0  0  2  0  0  0  0  0  0  0  0  0
   -4.4886   34.9194  -12.7439 P   0  0  1  0  0  0  0  0  0  0  0  0
  -10.0621   37.2511  -14.9268 O   0  5  0  0  0  0  0  0  0  0  0  0
   -4.0142   33.7138  -13.5181 O   0  5  0  0  0  0  0  0  0  0  0  0
   -9.0593   36.2920  -16.9178 O   0  0  0  0  0  0  0  0  0  0  0  0
   -3.3833   35.2767  -11.7242 O   0  0  0  0  0  0  0  0  0  0  0  0
   -8.6638   35.7626  -13.1900 C   0  0  0  0  0  0  0  0  0  0  0  0
   -5.4647   37.2355  -13.3367 C   0  0  0  0  0  0  0  0  0  0  0  0
   -8.2595   35.6311  -14.5595 O   0  0  0  0  0  0  0  0  0  0  0  0
   -4.8750   36.0278  -13.8958 O   0  0  0  0  0  0  0  0  0  0  0  0
   -8.1680   34.5700  -12.3791 C   0  0  1  0  0  0  0  0  0  0  0  0
   -5.6434   38.2358  -14.5404 C   0  0  1  0  0  0  0  0  0  0  0  0
   -9.0281   33.6078  -12.5082 O   0  0  0  0  0  0  0  0  0  0  0  0
   -4.5088   38.2773  -15.1106 O   0  0  0  0  0  0  0  0  0  0  0  0
   -6.8404   34.0320  -12.8611 C   0  0  1  0  0  0  0  0  0  0  0  0
   -6.5465   37.6290  -15.6328 C   0  0  1  0  0  0  0  0  0  0  0  0
   -5.8920   34.5300  -12.0239 O   0  0  0  0  0  0  0  0  0  0  0  0
   -7.7888   38.1234  -15.5693 O   0  0  0  0  0  0  0  0  0  0  0  0
   -6.9787   32.4818  -12.6666 C   0  0  1  0  0  0  0  0  0  0  0  0
   -5.8857   37.9504  -16.9927 C   0  0  1  0  0  0  0  0  0  0  0  0
   -6.2606   32.0551  -11.4354 O   0  0  0  0  0  0  0  0  0  0  0  0
   -6.5919   39.0894  -17.6629 O   0  0  0  0  0  0  0  0  0  0  0  0
   -8.2454   32.2307  -12.5769 C   0  0  2  0  0  0  0  0  0  0  0  0
   -4.6802   38.3011  -16.7017 C   0  0  2  0  0  0  0  0  0  0  0  0
  -10.2197   27.8655  -14.9993 N   0  0  0  0  0  0  0  0  0  0  0  0
  -10.0272   28.0115  -13.6581 C   0  0  0  0  0  0  0  0  0  0  0  0
   -9.5159   29.1724  -13.1362 N   0  0  0  0  0  0  0  0  0  0  0  0
   -9.1937   30.1958  -13.9842 C   0  0  0  0  0  0  0  0  0  0  0  0
   -9.3707   30.0643  -15.3062 C   0  0  0  0  0  0  0  0  0  0  0  0
   -9.8996   28.8848  -15.8275 C   0  0  0  0  0  0  0  0  0  0  0  0
  -10.1342   28.6208  -17.1914 N   0  0  0  0  0  0  0  0  0  0  0  0
   -8.9784   31.2152  -15.8926 N   0  0  0  0  0  0  0  0  0  0  0  0
   -8.5484   32.0595  -14.9120 C   0  0  0  0  0  0  0  0  0  0  0  0
   -8.6964   31.4399  -13.7338 N   0  0  0  0  0  0  0  0  0  0  0  0
   -2.9257   33.4524  -17.4314 N   0  0  0  0  0  0  0  0  0  0  0  0
   -4.0262   33.8226  -16.7255 C   0  0  0  0  0  0  0  0  0  0  0  0
   -4.3482   35.1466  -16.6229 N   0  0  0  0  0  0  0  0  0  0  0  0
   -3.5755   36.0885  -17.2281 C   0  0  0  0  0  0  0  0  0  0  0  0
   -2.4846   35.7282  -17.9341 C   0  0  0  0  0  0  0  0  0  0  0  0
   -2.1618   34.3777  -18.0301 C   0  0  0  0  0  0  0  0  0  0  0  0
   -1.0443   33.7736  -18.7093 N   0  0  0  0  0  0  0  0  0  0  0  0
   -1.9192   36.8623  -18.4128 N   0  0  0  0  0  0  0  0  0  0  0  0
   -2.6725   37.9220  -18.0013 C   0  0  0  0  0  0  0  0  0  0  0  0
   -3.6958   37.4329  -17.2722 N   0  0  0  0  0  0  0  0  0  0  0  0
  1  3  1  1  0  0  0
  1  5  2  0  0  0  0
  1  9  1  0  0  0  0
  1 18  1  0  0  0  0
  2  4  1  6  0  0  0
  2  6  2  0  0  0  0
  2 10  1  0  0  0  0
  2 17  1  0  0  0  0
  7  9  1  0  0  0  0
  8 10  1  0  0  0  0
 11  7  1  6  0  0  0
 11 13  1  0  0  0  0
 11 15  1  0  0  0  0
 12  8  1  1  0  0  0
 12 14  1  0  0  0  0
 12 16  1  0  0  0  0
 13 23  1  0  0  0  0
 14 24  1  0  0  0  0
 15 17  1  1  0  0  0
 15 19  1  0  0  0  0
 16 18  1  6  0  0  0
 16 20  1  0  0  0  0
 19 21  1  1  0  0  0
 19 23  1  0  0  0  0
 20 22  1  1  0  0  0
 20 24  1  0  0  0  0
 23 34  1  6  0  0  0
 24 44  1  6  0  0  0
 25 26  2  0  0  0  0
 25 30  1  0  0  0  0
 26 27  1  0  0  0  0
 27 28  2  0  0  0  0
 28 29  1  0  0  0  0
 28 34  1  0  0  0  0
 29 30  2  0  0  0  0
 29 32  1  0  0  0  0
 30 31  1  0  0  0  0
 32 33  2  0  0  0  0
 33 34  1  0  0  0  0
 35 36  2  0  0  0  0
 35 40  1  0  0  0  0
 36 37  1  0  0  0  0
 37 38  2  0  0  0  0
 38 39  1  0  0  0  0
 38 44  1  0  0  0  0
 39 40  2  0  0  0  0
 39 42  1  0  0  0  0
 40 41  1  0  0  0  0
 42 43  2  0  0  0  0
 43 44  1  0  0  0  0
M  CHG  2   3  -1   4  -1
M  END
>  <CHROM.1>
-125.24770865,68.72038307,-6.46528502,34.53297411,-14.98257370,0.83917797
0.51440192,0.07245698

>  <Name>
ligand

>  <RI>
0

>  <Rbt.Current_Directory>
/home/itssahil/PROJECTS/Mol_Feturizer/New_Systems/rnas/4QLM

>  <Rbt.Executable>
rbdock ($Id: //depot/dev/client3/rdock/2013.1/src/exe/rbdock.cxx#4 $)

>  <Rbt.Library>
libRbt.so (2013.1, Build901 2013/11/27)

>  <Rbt.Parameter_File>
/export/apps/rDock/src/rDock_2013.1_src/data/scripts/dock_solv.prm

>  <Rbt.Receptor>
prm/pocket_docking_3.prm

>  <SCORE>
-7.47685

>  <SCORE.INTER>
-7.05681

>  <SCORE.INTER.CONST>
1

>  <SCORE.INTER.POLAR>
0

>  <SCORE.INTER.ROT>
2

>  <SCORE.INTER.SOLV>
34.4466

>  <SCORE.INTER.VDW>
-21.1201

>  <SCORE.INTER.norm>
-0.160382

>  <SCORE.INTRA>
-0.442903

>  <SCORE.INTRA.DIHEDRAL>
0.0552602

>  <SCORE.INTRA.DIHEDRAL.0>
2.32994

>  <SCORE.INTRA.POLAR>
0

>  <SCORE.INTRA.POLAR.0>
0

>  <SCORE.INTRA.REPUL>
0

>  <SCORE.INTRA.REPUL.0>
0

>  <SCORE.INTRA.SOLV>
0.583259

>  <SCORE.INTRA.SOLV.lig_0>
-117.703

>  <SCORE.INTRA.VDW>
-0.762162

>  <SCORE.INTRA.VDW.0>
-1.59997

>  <SCORE.INTRA.norm>
-0.010066

>  <SCORE.RESTR>
0.0228642

>  <SCORE.RESTR.CAVITY>
0.0228642

>  <SCORE.RESTR.norm>
0.00051964

>  <SCORE.SYSTEM>
0

>  <SCORE.SYSTEM.CONST>
0

>  <SCORE.SYSTEM.DIHEDRAL>
0

>  <SCORE.SYSTEM.SOLV>
0

>  <SCORE.SYSTEM.norm>
0

>  <SCORE.heavy>
44

>  <SCORE.norm>
-0.169928

>  <RMSD>
1.948

$$$$
ligand
 OpenBabel11021811513D
libRbt.so/2013.1/901 2013/11/27
 44 50  0  0  0  0  0  0  0  0999 V2000
   -6.9760   35.0613  -12.6362 P   0  0  2  0  0  0  0  0  0  0  0  0
  -10.5501   35.1737  -16.6882 P   0  0  1  0  0  0  0  0  0  0  0  0
   -6.5544   36.2488  -11.7745 O   0  5  0  0  0  0  0  0  0  0  0  0
   -9.9266   34.3365  -17.7783 O   0  5  0  0  0  0  0  0  0  0  0  0
   -5.8190   34.0917  -12.6086 O   0  0  0  0  0  0  0  0  0  0  0  0
  -12.0292   35.4045  -17.0731 O   0  0  0  0  0  0  0  0  0  0  0  0
   -7.7211   37.0259  -14.0598 C   0  0  0  0  0  0  0  0  0  0  0  0
  -10.6576   35.0766  -14.1099 C   0  0  0  0  0  0  0  0  0  0  0  0
   -7.2624   35.6673  -14.0481 O   0  0  0  0  0  0  0  0  0  0  0  0
  -10.2241   34.3568  -15.2985 O   0  0  0  0  0  0  0  0  0  0  0  0
   -7.9146   37.5027  -15.4954 C   0  0  1  0  0  0  0  0  0  0  0  0
  -10.4035   34.1094  -12.8927 C   0  0  1  0  0  0  0  0  0  0  0  0
   -6.7696   37.9182  -15.9411 O   0  0  0  0  0  0  0  0  0  0  0  0
  -10.9549   33.0121  -13.2182 O   0  0  0  0  0  0  0  0  0  0  0  0
   -8.3720   36.4072  -16.4308 C   0  0  1  0  0  0  0  0  0  0  0  0
   -8.9143   33.7219  -12.7973 C   0  0  1  0  0  0  0  0  0  0  0  0
   -9.7138   36.5627  -16.5850 O   0  0  0  0  0  0  0  0  0  0  0  0
   -8.2876   34.4233  -11.8449 O   0  0  0  0  0  0  0  0  0  0  0  0
   -7.6281   36.7340  -17.7724 C   0  0  1  0  0  0  0  0  0  0  0  0
   -8.8619   32.2058  -12.5009 C   0  0  1  0  0  0  0  0  0  0  0  0
   -8.5591   37.3976  -18.7244 O   0  0  0  0  0  0  0  0  0  0  0  0
   -8.5618   31.9644  -11.0529 O   0  0  0  0  0  0  0  0  0  0  0  0
   -6.6401   37.5133  -17.4685 C   0  0  2  0  0  0  0  0  0  0  0  0
  -10.0444   31.7727  -12.7749 C   0  0  2  0  0  0  0  0  0  0  0  0
   -2.9685   33.6629  -16.7512 N   0  0  0  0  0  0  0  0  0  0  0  0
   -4.1838   33.7263  -16.1379 C   0  0  0  0  0  0  0  0  0  0  0  0
   -5.0544   34.7554  -16.3914 N   0  0  0  0  0  0  0  0  0  0  0  0
   -4.6875   35.7328  -17.2748 C   0  0  0  0  0  0  0  0  0  0  0  0
   -3.4926   35.6879  -17.8803 C   0  0  0  0  0  0  0  0  0  0  0  0
   -2.6177   34.6336  -17.6243 C   0  0  0  0  0  0  0  0  0  0  0  0
   -1.3389   34.4694  -18.1925 N   0  0  0  0  0  0  0  0  0  0  0  0
   -3.3996   36.7625  -18.6920 N   0  0  0  0  0  0  0  0  0  0  0  0
   -4.5542   37.4780  -18.5737 C   0  0  0  0  0  0  0  0  0  0  0  0
   -5.3562   36.8362  -17.7141 N   0  0  0  0  0  0  0  0  0  0  0  0
  -10.6358   26.8165  -14.2605 N   0  0  0  0  0  0  0  0  0  0  0  0
  -10.7204   27.3028  -12.9945 C   0  0  0  0  0  0  0  0  0  0  0  0
  -10.5312   28.6374  -12.7703 N   0  0  0  0  0  0  0  0  0  0  0  0
  -10.2652   29.4756  -13.8081 C   0  0  0  0  0  0  0  0  0  0  0  0
  -10.1843   29.0009  -15.0676 C   0  0  0  0  0  0  0  0  0  0  0  0
  -10.3746   27.6396  -15.2865 C   0  0  0  0  0  0  0  0  0  0  0  0
  -10.3154   26.9195  -16.5327 N   0  0  0  0  0  0  0  0  0  0  0  0
   -9.9098   30.0502  -15.8791 N   0  0  0  0  0  0  0  0  0  0  0  0
   -9.8279   31.1743  -15.1113 C   0  0  0  0  0  0  0  0  0  0  0  0
  -10.0521   30.8090  -13.8328 N   0  0  0  0  0  0  0  0  0  0  0  0
  1  3  1  1  0  0  0
  1  5  2  0  0  0  0
  1  9  1  0  0  0  0
  1 18  1  0  0  0  0
  2  4  1  6  0  0  0
  2  6  2  0  0  0  0
  2 10  1  0  0  0  0
  2 17  1  0  0  0  0
  7  9  1  0  0  0  0
  8 10  1  0  0  0  0
 11  7  1  1  0  0  0
 11 13  1  0  0  0  0
 11 15  1  0  0  0  0
 12  8  1  6  0  0  0
 12 14  1  0  0  0  0
 12 16  1  0  0  0  0
 13 23  1  0  0  0  0
 14 24  1  0  0  0  0
 15 17  1  6  0  0  0
 15 19  1  0  0  0  0
 16 18  1  1  0  0  0
 16 20  1  0  0  0  0
 19 21  1  6  0  0  0
 19 23  1  0  0  0  0
 20 22  1  1  0  0  0
 20 24  1  0  0  0  0
 23 34  1  1  0  0  0
 24 44  1  6  0  0  0
 25 26  2  0  0  0  0
 25 30  1  0  0  0  0
 26 27  1  0  0  0  0
 27 28  2  0  0  0  0
 28 29  1  0  0  0  0
 28 34  1  0  0  0  0
 29 30  2  0  0  0  0
 29 32  1  0  0  0  0
 30 31  1  0  0  0  0
 32 33  2  0  0  0  0
 33 34  1  0  0  0  0
 35 36  2  0  0  0  0
 35 40  1  0  0  0  0
 36 37  1  0  0  0  0
 37 38  2  0  0  0  0
 38 39  1  0  0  0  0
 38 44  1  0  0  0  0
 39 40  2  0  0  0  0
 39 42  1  0  0  0  0
 40 41  1  0  0  0  0
 42 43  2  0  0  0  0
 43 44  1  0  0  0  0
M  CHG  2   3  -1   4  -1
M  END
>  <CHROM.1>
58.62834297,-131.32448070,-8.04029202,33.91116813,-15.21008375,0.91458233
0.40430846,-0.15252449

>  <Name>
ligand

>  <RI>
0

>  <Rbt.Current_Directory>
/home/itssahil/PROJECTS/Mol_Feturizer/New_Systems/rnas/4QLM

>  <Rbt.Executable>
rbdock ($Id: //depot/dev/client3/rdock/2013.1/src/exe/rbdock.cxx#4 $)

>  <Rbt.Library>
libRbt.so (2013.1, Build901 2013/11/27)

>  <Rbt.Parameter_File>
/export/apps/rDock/src/rDock_2013.1_src/data/scripts/dock_solv.prm

>  <Rbt.Receptor>
prm/pocket_docking_4.prm

>  <SCORE>
-8.20044

>  <SCORE.INTER>
-7.36786

>  <SCORE.INTER.CONST>
1

>  <SCORE.INTER.POLAR>
0

>  <SCORE.INTER.ROT>
2

>  <SCORE.INTER.SOLV>
31.7465

>  <SCORE.INTER.VDW>
-20.4274

>  <SCORE.INTER.norm>
-0.167451

>  <SCORE.INTRA>
-0.95701

>  <SCORE.INTRA.DIHEDRAL>
0.0745913

>  <SCORE.INTRA.DIHEDRAL.0>
2.32994

>  <SCORE.INTRA.POLAR>
0

>  <SCORE.INTRA.POLAR.0>
0

>  <SCORE.INTRA.REPUL>
0

>  <SCORE.INTRA.REPUL.0>
0

>  <SCORE.INTRA.SOLV>
0.118588

>  <SCORE.INTRA.SOLV.lig_0>
-117.703

>  <SCORE.INTRA.VDW>
-1.0536

>  <SCORE.INTRA.VDW.0>
-1.59997

>  <SCORE.INTRA.norm>
-0.0217502

>  <SCORE.RESTR>
0.124426

>  <SCORE.RESTR.CAVITY>
0.124426

>  <SCORE.RESTR.norm>
0.00282787

>  <SCORE.SYSTEM>
0

>  <SCORE.SYSTEM.CONST>
0

>  <SCORE.SYSTEM.DIHEDRAL>
0

>  <SCORE.SYSTEM.SOLV>
0

>  <SCORE.SYSTEM.norm>
0

>  <SCORE.heavy>
44

>  <SCORE.norm>
-0.186374

>  <RMSD>
1.949

$$$$
ligand
 OpenBabel11021811513D
libRbt.so/2013.1/901 2013/11/27
 44 50  0  0  0  0  0  0  0  0999 V2000
   -7.0113   35.0656  -12.6065 P   0  0  2  0  0  0  0  0  0  0  0  0
  -10.5424   35.1620  -16.6964 P   0  0  1  0  0  0  0  0  0  0  0  0
   -6.6034   36.2552  -11.7411 O   0  5  0  0  0  0  0  0  0  0  0  0
   -9.9041   34.3265  -17.7793 O   0  5  0  0  0  0  0  0  0  0  0  0
   -5.8511   34.1003  -12.5659 O   0  0  0  0  0  0  0  0  0  0  0  0
  -12.0181   35.3870  -17.0972 O   0  0  0  0  0  0  0  0  0  0  0  0
   -7.7486   37.0264  -14.0392 C   0  0  0  0  0  0  0  0  0  0  0  0
  -10.6770   35.0661  -14.1194 C   0  0  0  0  0  0  0  0  0  0  0  0
   -7.2849   35.6696  -14.0217 O   0  0  0  0  0  0  0  0  0  0  0  0
  -10.2282   34.3472  -15.3027 O   0  0  0  0  0  0  0  0  0  0  0  0
   -7.9285   37.5016  -15.4770 C   0  0  1  0  0  0  0  0  0  0  0  0
  -10.4324   34.1007  -12.8989 C   0  0  1  0  0  0  0  0  0  0  0  0
   -6.7803   37.9211  -15.9108 O   0  0  0  0  0  0  0  0  0  0  0  0
  -10.9761   33.0011  -13.2295 O   0  0  0  0  0  0  0  0  0  0  0  0
   -8.3718   36.4039  -16.4166 C   0  0  1  0  0  0  0  0  0  0  0  0
   -8.9428   33.7188  -12.7873 C   0  0  1  0  0  0  0  0  0  0  0  0
   -9.7124   36.5542  -16.5852 O   0  0  0  0  0  0  0  0  0  0  0  0
   -8.3289   34.4232  -11.8287 O   0  0  0  0  0  0  0  0  0  0  0  0
   -7.6148   36.7326  -17.7504 C   0  0  1  0  0  0  0  0  0  0  0  0
   -8.8879   32.2031  -12.4894 C   0  0  1  0  0  0  0  0  0  0  0  0
   -8.5381   37.3921  -18.7127 O   0  0  0  0  0  0  0  0  0  0  0  0
   -8.6024   31.9637  -11.0381 O   0  0  0  0  0  0  0  0  0  0  0  0
   -6.6331   37.5158  -17.4364 C   0  0  2  0  0  0  0  0  0  0  0  0
  -10.0658   31.7654  -12.7757 C   0  0  2  0  0  0  0  0  0  0  0  0
   -2.3654   34.5831  -16.0196 N   0  0  0  0  0  0  0  0  0  0  0  0
   -3.4201   34.8923  -15.2139 C   0  0  0  0  0  0  0  0  0  0  0  0
   -4.4668   35.6503  -15.6736 N   0  0  0  0  0  0  0  0  0  0  0  0
   -4.4424   36.1020  -16.9642 C   0  0  0  0  0  0  0  0  0  0  0  0
   -3.4086   35.8121  -17.7664 C   0  0  0  0  0  0  0  0  0  0  0  0
   -2.3535   35.0333  -17.2942 C   0  0  0  0  0  0  0  0  0  0  0  0
   -1.2132   34.6588  -18.0321 N   0  0  0  0  0  0  0  0  0  0  0  0
   -3.6483   36.3749  -18.9698 N   0  0  0  0  0  0  0  0  0  0  0  0
   -4.8448   37.0247  -18.8975 C   0  0  0  0  0  0  0  0  0  0  0  0
   -5.3441   36.8434  -17.6679 N   0  0  0  0  0  0  0  0  0  0  0  0
  -10.6266   26.8067  -14.2649 N   0  0  0  0  0  0  0  0  0  0  0  0
  -10.7272   27.2935  -13.0003 C   0  0  0  0  0  0  0  0  0  0  0  0
  -10.5442   28.6288  -12.7747 N   0  0  0  0  0  0  0  0  0  0  0  0
  -10.2684   29.4671  -13.8099 C   0  0  0  0  0  0  0  0  0  0  0  0
  -10.1716   28.9918  -15.0680 C   0  0  0  0  0  0  0  0  0  0  0  0
  -10.3556   27.6299  -15.2883 C   0  0  0  0  0  0  0  0  0  0  0  0
  -10.2800   26.9091  -16.5332 N   0  0  0  0  0  0  0  0  0  0  0  0
   -9.8904   30.0414  -15.8770 N   0  0  0  0  0  0  0  0  0  0  0  0
   -9.8205   31.1661  -15.1090 C   0  0  0  0  0  0  0  0  0  0  0  0
  -10.0586   30.8010  -13.8330 N   0  0  0  0  0  0  0  0  0  0  0  0
  1  3  1  1  0  0  0
  1  5  2  0  0  0  0
  1  9  1  0  0  0  0
  1 18  1  0  0  0  0
  2  4  1  6  0  0  0
  2  6  2  0  0  0  0
  2 10  1  0  0  0  0
  2 17  1  0  0  0  0
  7  9  1  0  0  0  0
  8 10  1  0  0  0  0
 11  7  1  1  0  0  0
 11 13  1  0  0  0  0
 11 15  1  0  0  0  0
 12  8  1  6  0  0  0
 12 14  1  0  0  0  0
 12 16  1  0  0  0  0
 13 23  1  0  0  0  0
 14 24  1  0  0  0  0
 15 17  1  6  0  0  0
 15 19  1  0  0  0  0
 16 18  1  1  0  0  0
 16 20  1  0  0  0  0
 19 21  1  6  0  0  0
 19 23  1  0  0  0  0
 20 22  1  1  0  0  0
 20 24  1  0  0  0  0
 23 34  1  1  0  0  0
 24 44  1  6  0  0  0
 25 26  2  0  0  0  0
 25 30  1  0  0  0  0
 26 27  1  0  0  0  0
 27 28  2  0  0  0  0
 28 29  1  0  0  0  0
 28 34  1  0  0  0  0
 29 30  2  0  0  0  0
 29 32  1  0  0  0  0
 30 31  1  0  0  0  0
 32 33  2  0  0  0  0
 33 34  1  0  0  0  0
 35 36  2  0  0  0  0
 35 40  1  0  0  0  0
 36 37  1  0  0  0  0
 37 38  2  0  0  0  0
 38 39  1  0  0  0  0
 38 44  1  0  0  0  0
 39 40  2  0  0  0  0
 39 42  1  0  0  0  0
 40 41  1  0  0  0  0
 42 43  2  0  0  0  0
 43 44  1  0  0  0  0
M  CHG  2   3  -1   4  -1
M  END
>  <CHROM.1>
26.66399898,-131.24157584,-8.00398788,33.97225308,-15.14868455,-0.94300933
-0.13499124,2.81852586

>  <Name>
ligand

>  <RI>
0

>  <Rbt.Current_Directory>
/home/itssahil/PROJECTS/Mol_Feturizer/New_Systems/rnas/4QLM

>  <Rbt.Executable>
rbdock ($Id: //depot/dev/client3/rdock/2013.1/src/exe/rbdock.cxx#4 $)

>  <Rbt.Library>
libRbt.so (2013.1, Build901 2013/11/27)

>  <Rbt.Parameter_File>
/export/apps/rDock/src/rDock_2013.1_src/data/scripts/dock_solv.prm

>  <Rbt.Receptor>
prm/pocket_docking_3.prm

>  <SCORE>
-6.77251

>  <SCORE.INTER>
-6.09859

>  <SCORE.INTER.CONST>
1

>  <SCORE.INTER.POLAR>
0

>  <SCORE.INTER.ROT>
2

>  <SCORE.INTER.SOLV>
31.1327

>  <SCORE.INTER.VDW>
-19.3766

>  <SCORE.INTER.norm>
-0.138604

>  <SCORE.INTRA>
-0.786645

>  <SCORE.INTRA.DIHEDRAL>
0.180425

>  <SCORE.INTRA.DIHEDRAL.0>
2.32994

>  <SCORE.INTRA.POLAR>
0

>  <SCORE.INTRA.POLAR.0>
0

>  <SCORE.INTRA.REPUL>
0

>  <SCORE.INTRA.REPUL.0>
0

>  <SCORE.INTRA.SOLV>
0.325734

>  <SCORE.INTRA.SOLV.lig_0>
-117.703

>  <SCORE.INTRA.VDW>
-1.03972

>  <SCORE.INTRA.VDW.0>
-1.59997

>  <SCORE.INTRA.norm>
-0.0178783

>  <SCORE.RESTR>
0.11273

>  <SCORE.RESTR.CAVITY>
0.11273

>  <SCORE.RESTR.norm>
0.00256205

>  <SCORE.SYSTEM>
0

>  <SCORE.SYSTEM.CONST>
0

>  <SCORE.SYSTEM.DIHEDRAL>
0

>  <SCORE.SYSTEM.SOLV>
0

>  <SCORE.SYSTEM.norm>
0

>  <SCORE.heavy>
44

>  <SCORE.norm>
-0.153921

>  <RMSD>
1.962

$$$$
ligand
 OpenBabel11021811513D
libRbt.so/2013.1/901 2013/11/27
 44 50  0  0  0  0  0  0  0  0999 V2000
  -10.4878   35.0449  -16.5326 P   0  0  2  0  0  0  0  0  0  0  0  0
   -6.9433   34.7924  -12.4610 P   0  0  1  0  0  0  0  0  0  0  0  0
  -11.9771   35.3577  -16.4116 O   0  5  0  0  0  0  0  0  0  0  0  0
   -6.1011   33.5749  -12.7552 O   0  5  0  0  0  0  0  0  0  0  0  0
  -10.3332   34.2207  -17.7881 O   0  0  0  0  0  0  0  0  0  0  0  0
   -6.2280   35.5894  -11.3465 O   0  0  0  0  0  0  0  0  0  0  0  0
  -10.9095   34.6151  -14.0671 C   0  0  0  0  0  0  0  0  0  0  0  0
   -8.0479   36.6626  -13.8575 C   0  0  0  0  0  0  0  0  0  0  0  0
  -10.1278   34.2759  -15.2205 O   0  0  0  0  0  0  0  0  0  0  0  0
   -7.1554   35.5147  -13.9232 O   0  0  0  0  0  0  0  0  0  0  0  0
  -10.4869   33.7612  -12.8764 C   0  0  1  0  0  0  0  0  0  0  0  0
   -8.0325   37.3146  -15.2914 C   0  0  1  0  0  0  0  0  0  0  0  0
  -11.1263   32.6345  -12.9398 O   0  0  0  0  0  0  0  0  0  0  0  0
   -6.8036   37.4694  -15.5740 O   0  0  0  0  0  0  0  0  0  0  0  0
   -9.0136   33.4240  -12.8777 C   0  0  1  0  0  0  0  0  0  0  0  0
   -8.4989   36.3067  -16.3609 C   0  0  1  0  0  0  0  0  0  0  0  0
   -8.4176   34.2821  -12.0077 O   0  0  0  0  0  0  0  0  0  0  0  0
   -9.7692   36.5289  -16.7199 O   0  0  0  0  0  0  0  0  0  0  0  0
   -8.9702   31.9605  -12.3151 C   0  0  1  0  0  0  0  0  0  0  0  0
   -7.5431   36.4552  -17.5665 C   0  0  1  0  0  0  0  0  0  0  0  0
   -8.5656   31.9752  -10.8835 O   0  0  0  0  0  0  0  0  0  0  0  0
   -8.1965   37.2444  -18.6599 O   0  0  0  0  0  0  0  0  0  0  0  0
  -10.1610   31.4732  -12.4569 C   0  0  2  0  0  0  0  0  0  0  0  0
   -6.5302   37.1078  -17.1090 C   0  0  2  0  0  0  0  0  0  0  0  0
   -9.0834   29.1979  -17.1986 N   0  0  0  0  0  0  0  0  0  0  0  0
   -8.7562   30.4698  -16.8348 C   0  0  0  0  0  0  0  0  0  0  0  0
   -9.0767   30.9582  -15.5937 N   0  0  0  0  0  0  0  0  0  0  0  0
   -9.7388   30.1486  -14.7126 C   0  0  0  0  0  0  0  0  0  0  0  0
  -10.0737   28.8978  -15.0586 C   0  0  0  0  0  0  0  0  0  0  0  0
   -9.7359   28.4062  -16.3183 C   0  0  0  0  0  0  0  0  0  0  0  0
  -10.0282   27.1160  -16.8031 N   0  0  0  0  0  0  0  0  0  0  0  0
  -10.7061   28.3333  -14.0081 N   0  0  0  0  0  0  0  0  0  0  0  0
  -10.7639   29.2580  -13.0077 C   0  0  0  0  0  0  0  0  0  0  0  0
  -10.1532   30.3715  -13.4334 N   0  0  0  0  0  0  0  0  0  0  0  0
   -1.8539   36.4632  -19.3083 N   0  0  0  0  0  0  0  0  0  0  0  0
   -2.7724   37.4173  -19.6126 C   0  0  0  0  0  0  0  0  0  0  0  0
   -3.9631   37.4457  -18.9428 N   0  0  0  0  0  0  0  0  0  0  0  0
   -4.2259   36.5283  -17.9733 C   0  0  0  0  0  0  0  0  0  0  0  0
   -3.3174   35.5815  -17.6629 C   0  0  0  0  0  0  0  0  0  0  0  0
   -2.1088   35.5575  -18.3528 C   0  0  0  0  0  0  0  0  0  0  0  0
   -1.0132   34.6346  -18.2014 N   0  0  0  0  0  0  0  0  0  0  0  0
   -3.8482   34.8183  -16.6776 N   0  0  0  0  0  0  0  0  0  0  0  0
   -5.0869   35.3053  -16.3802 C   0  0  0  0  0  0  0  0  0  0  0  0
   -5.3098   36.3643  -17.1846 N   0  0  0  0  0  0  0  0  0  0  0  0
  1  3  1  1  0  0  0
  1  5  2  0  0  0  0
  1  9  1  0  0  0  0
  1 18  1  0  0  0  0
  2  4  1  6  0  0  0
  2  6  2  0  0  0  0
  2 10  1  0  0  0  0
  2 17  1  0  0  0  0
  7  9  1  0  0  0  0
  8 10  1  0  0  0  0
 11  7  1  6  0  0  0
 11 13  1  0  0  0  0
 11 15  1  0  0  0  0
 12  8  1  1  0  0  0
 12 14  1  0  0  0  0
 12 16  1  0  0  0  0
 13 23  1  0  0  0  0
 14 24  1  0  0  0  0
 15 17  1  1  0  0  0
 15 19  1  0  0  0  0
 16 18  1  6  0  0  0
 16 20  1  0  0  0  0
 19 21  1  1  0  0  0
 19 23  1  0  0  0  0
 20 22  1  6  0  0  0
 20 24  1  0  0  0  0
 23 34  1  6  0  0  0
 24 44  1  1  0  0  0
 25 26  2  0  0  0  0
 25 30  1  0  0  0  0
 26 27  1  0  0  0  0
 27 28  2  0  0  0  0
 28 29  1  0  0  0  0
 28 34  1  0  0  0  0
 29 30  2  0  0  0  0
 29 32  1  0  0  0  0
 30 31  1  0  0  0  0
 32 33  2  0  0  0  0
 33 34  1  0  0  0  0
 35 36  2  0  0  0  0
 35 40  1  0  0  0  0
 36 37  1  0  0  0  0
 37 38  2  0  0  0  0
 38 39  1  0  0  0  0
 38 44  1  0  0  0  0
 39 40  2  0  0  0  0
 39 42  1  0  0  0  0
 40 41  1  0  0  0  0
 42 43  2  0  0  0  0
 43 44  1  0  0  0  0
M  CHG  2   3  -1   4  -1
M  END
>  <CHROM.1>
67.17649643,-130.26138300,-7.88244192,33.99933137,-15.37228303,2.70710734
-0.77825906,-2.72375391

>  <Name>
ligand

>  <RI>
0

>  <Rbt.Current_Directory>
/home/itssahil/PROJECTS/Mol_Feturizer/New_Systems/rnas/4QLM

>  <Rbt.Executable>
rbdock ($Id: //depot/dev/client3/rdock/2013.1/src/exe/rbdock.cxx#4 $)

>  <Rbt.Library>
libRbt.so (2013.1, Build901 2013/11/27)

>  <Rbt.Parameter_File>
/export/apps/rDock/src/rDock_2013.1_src/data/scripts/dock_solv.prm

>  <Rbt.Receptor>
prm/pocket_docking_3.prm

>  <SCORE>
-13.42

>  <SCORE.INTER>
-12.6529

>  <SCORE.INTER.CONST>
1

>  <SCORE.INTER.POLAR>
0

>  <SCORE.INTER.ROT>
2

>  <SCORE.INTER.SOLV>
32.0582

>  <SCORE.INTER.VDW>
-24.0547

>  <SCORE.INTER.norm>
-0.287566

>  <SCORE.INTRA>
-0.862853

>  <SCORE.INTRA.DIHEDRAL>
0.0289579

>  <SCORE.INTRA.DIHEDRAL.0>
2.32994

>  <SCORE.INTRA.POLAR>
0

>  <SCORE.INTRA.POLAR.0>
0

>  <SCORE.INTRA.REPUL>
0

>  <SCORE.INTRA.REPUL.0>
0

>  <SCORE.INTRA.SOLV>
-0.00448202

>  <SCORE.INTRA.SOLV.lig_0>
-117.703

>  <SCORE.INTRA.VDW>
-0.875091

>  <SCORE.INTRA.VDW.0>
-1.59997

>  <SCORE.INTRA.norm>
-0.0196103

>  <SCORE.RESTR>
0.0957473

>  <SCORE.RESTR.CAVITY>
0.0957473

>  <SCORE.RESTR.norm>
0.00217608

>  <SCORE.SYSTEM>
0

>  <SCORE.SYSTEM.CONST>
0

>  <SCORE.SYSTEM.DIHEDRAL>
0

>  <SCORE.SYSTEM.SOLV>
0

>  <SCORE.SYSTEM.norm>
0

>  <SCORE.heavy>
44

>  <SCORE.norm>
-0.305

>  <RMSD>
1.973

$$$$
ligand
 OpenBabel11021811513D
libRbt.so/2013.1/901 2013/11/27
 44 50  0  0  0  0  0  0  0  0999 V2000
  -10.4603   34.6664  -16.1670 P   0  0  2  0  0  0  0  0  0  0  0  0
   -6.5724   33.9285  -12.4865 P   0  0  1  0  0  0  0  0  0  0  0  0
  -11.9176   35.0182  -15.8789 O   0  5  0  0  0  0  0  0  0  0  0  0
   -5.8134   32.7140  -12.9628 O   0  5  0  0  0  0  0  0  0  0  0  0
  -10.4564   33.9530  -17.4976 O   0  0  0  0  0  0  0  0  0  0  0  0
   -5.7249   34.5975  -11.3806 O   0  0  0  0  0  0  0  0  0  0  0  0
  -10.6728   34.0324  -13.7187 C   0  0  0  0  0  0  0  0  0  0  0  0
   -7.7193   35.9532  -13.6062 C   0  0  0  0  0  0  0  0  0  0  0  0
  -10.0150   33.7711  -14.9658 O   0  0  0  0  0  0  0  0  0  0  0  0
   -6.8864   34.7857  -13.8546 O   0  0  0  0  0  0  0  0  0  0  0  0
  -10.1799   33.0614  -12.6512 C   0  0  1  0  0  0  0  0  0  0  0  0
   -7.8073   36.7299  -14.9738 C   0  0  1  0  0  0  0  0  0  0  0  0
  -10.8699   31.9675  -12.7502 O   0  0  0  0  0  0  0  0  0  0  0  0
   -6.6039   36.8670  -15.3573 O   0  0  0  0  0  0  0  0  0  0  0  0
   -8.7286   32.6751  -12.8210 C   0  0  1  0  0  0  0  0  0  0  0  0
   -8.4120   35.8385  -16.0768 C   0  0  1  0  0  0  0  0  0  0  0  0
   -8.0195   33.4308  -11.9410 O   0  0  0  0  0  0  0  0  0  0  0  0
   -9.6992   36.1355  -16.2934 O   0  0  0  0  0  0  0  0  0  0  0  0
   -8.6964   31.1665  -12.3929 C   0  0  1  0  0  0  0  0  0  0  0  0
   -7.5650   36.0613  -17.3504 C   0  0  1  0  0  0  0  0  0  0  0  0
   -8.1623   31.0390  -11.0102 O   0  0  0  0  0  0  0  0  0  0  0  0
   -8.2813   36.9672  -18.3051 O   0  0  0  0  0  0  0  0  0  0  0  0
   -9.9149   30.7351  -12.4625 C   0  0  2  0  0  0  0  0  0  0  0  0
   -6.4876   36.6351  -16.9367 C   0  0  2  0  0  0  0  0  0  0  0  0
  -11.4619   28.9240  -17.2738 N   0  0  0  0  0  0  0  0  0  0  0  0
  -11.6515   30.1884  -16.8020 C   0  0  0  0  0  0  0  0  0  0  0  0
  -11.2157   30.5535  -15.5538 N   0  0  0  0  0  0  0  0  0  0  0  0
  -10.5828   29.6252  -14.7740 C   0  0  0  0  0  0  0  0  0  0  0  0
  -10.3954   28.3757  -15.2214 C   0  0  0  0  0  0  0  0  0  0  0  0
  -10.8330   28.0156  -16.4948 C   0  0  0  0  0  0  0  0  0  0  0  0
  -10.6981   26.7416  -17.0812 N   0  0  0  0  0  0  0  0  0  0  0  0
   -9.7494   27.6842  -14.2588 N   0  0  0  0  0  0  0  0  0  0  0  0
   -9.5461   28.5243  -13.2043 C   0  0  0  0  0  0  0  0  0  0  0  0
  -10.0433   29.7256  -13.5263 N   0  0  0  0  0  0  0  0  0  0  0  0
   -1.9980   36.0972  -19.5201 N   0  0  0  0  0  0  0  0  0  0  0  0
   -2.8866   37.1187  -19.6355 C   0  0  0  0  0  0  0  0  0  0  0  0
   -4.0294   37.1068  -18.8863 N   0  0  0  0  0  0  0  0  0  0  0  0
   -4.2740   36.0820  -18.0259 C   0  0  0  0  0  0  0  0  0  0  0  0
   -3.3945   35.0673  -17.9028 C   0  0  0  0  0  0  0  0  0  0  0  0
   -2.2350   35.0854  -18.6726 C   0  0  0  0  0  0  0  0  0  0  0  0
   -1.1780   34.1077  -18.7167 N   0  0  0  0  0  0  0  0  0  0  0  0
   -3.8979   34.2037  -16.9885 N   0  0  0  0  0  0  0  0  0  0  0  0
   -5.0899   34.6967  -16.5460 C   0  0  0  0  0  0  0  0  0  0  0  0
   -5.3120   35.8597  -17.1912 N   0  0  0  0  0  0  0  0  0  0  0  0
  1  3  1  1  0  0  0
  1  5  2  0  0  0  0
  1  9  1  0  0  0  0
  1 18  1  0  0  0  0
  2  4  1  6  0  0  0
  2  6  2  0  0  0  0
  2 10  1  0  0  0  0
  2 17  1  0  0  0  0
  7  9  1  0  0  0  0
  8 10  1  0  0  0  0
 11  7  1  6  0  0  0
 11 13  1  0  0  0  0
 11 15  1  0  0  0  0
 12  8  1  1  0  0  0
 12 14  1  0  0  0  0
 12 16  1  0  0  0  0
 13 23  1  0  0  0  0
 14 24  1  0  0  0  0
 15 17  1  1  0  0  0
 15 19  1  0  0  0  0
 16 18  1  6  0  0  0
 16 20  1  0  0  0  0
 19 21  1  1  0  0  0
 19 23  1  0  0  0  0
 20 22  1  6  0  0  0
 20 24  1  0  0  0  0
 23 34  1  6  0  0  0
 24 44  1  1  0  0  0
 25 26  2  0  0  0  0
 25 30  1  0  0  0  0
 26 27  1  0  0  0  0
 27 28  2  0  0  0  0
 28 29  1  0  0  0  0
 28 34  1  0  0  0  0
 29 30  2  0  0  0  0
 29 32  1  0  0  0  0
 30 31  1  0  0  0  0
 32 33  2  0  0  0  0
 33 34  1  0  0  0  0
 35 36  2  0  0  0  0
 35 40  1  0  0  0  0
 36 37  1  0  0  0  0
 37 38  2  0  0  0  0
 38 39  1  0  0  0  0
 38 44  1  0  0  0  0
 39 40  2  0  0  0  0
 39 42  1  0  0  0  0
 40 41  1  0  0  0  0
 42 43  2  0  0  0  0
 43 44  1  0  0  0  0
M  CHG  2   3  -1   4  -1
M  END
>  <CHROM.1>
12.76088835,-127.41755745,-7.94238621,33.43845803,-15.32974624,2.91213021
0.82209576,1.36492766

>  <Name>
ligand

>  <RI>
0

>  <Rbt.Current_Directory>
/home/itssahil/PROJECTS/Mol_Feturizer/New_Systems/rnas/4QLM

>  <Rbt.Executable>
rbdock ($Id: //depot/dev/client3/rdock/2013.1/src/exe/rbdock.cxx#4 $)

>  <Rbt.Library>
libRbt.so (2013.1, Build901 2013/11/27)

>  <Rbt.Parameter_File>
/export/apps/rDock/src/rDock_2013.1_src/data/scripts/dock_solv.prm

>  <Rbt.Receptor>
prm/pocket_docking_3.prm

>  <SCORE>
0.078452

>  <SCORE.INTER>
0.517312

>  <SCORE.INTER.CONST>
1

>  <SCORE.INTER.POLAR>
0

>  <SCORE.INTER.ROT>
2

>  <SCORE.INTER.SOLV>
37.2497

>  <SCORE.INTER.VDW>
-17.005

>  <SCORE.INTER.norm>
0.0117571

>  <SCORE.INTRA>
-0.43886

>  <SCORE.INTRA.DIHEDRAL>
0.146017

>  <SCORE.INTRA.DIHEDRAL.0>
2.32994

>  <SCORE.INTRA.POLAR>
0

>  <SCORE.INTRA.POLAR.0>
0

>  <SCORE.INTRA.REPUL>
0

>  <SCORE.INTRA.REPUL.0>
0

>  <SCORE.INTRA.SOLV>
0.109145

>  <SCORE.INTRA.SOLV.lig_0>
-117.703

>  <SCORE.INTRA.VDW>
-0.566441

>  <SCORE.INTRA.VDW.0>
-1.59997

>  <SCORE.INTRA.norm>
-0.00997408

>  <SCORE.RESTR>
0

>  <SCORE.RESTR.CAVITY>
0

>  <SCORE.RESTR.norm>
0

>  <SCORE.SYSTEM>
0

>  <SCORE.SYSTEM.CONST>
0

>  <SCORE.SYSTEM.DIHEDRAL>
0

>  <SCORE.SYSTEM.SOLV>
0

>  <SCORE.SYSTEM.norm>
0

>  <SCORE.heavy>
44

>  <SCORE.norm>
0.001783

>  <RMSD>
1.994

$$$$
ligand
 OpenBabel11021811513D
libRbt.so/2013.1/901 2013/11/27
 44 50  0  0  0  0  0  0  0  0999 V2000
  -10.4692   34.6626  -16.1763 P   0  0  2  0  0  0  0  0  0  0  0  0
   -6.5876   33.9241  -12.4893 P   0  0  1  0  0  0  0  0  0  0  0  0
  -11.9275   35.0120  -15.8905 O   0  5  0  0  0  0  0  0  0  0  0  0
   -5.8260   32.7113  -12.9659 O   0  5  0  0  0  0  0  0  0  0  0  0
  -10.4618   33.9513  -17.5080 O   0  0  0  0  0  0  0  0  0  0  0  0
   -5.7432   34.5925  -11.3806 O   0  0  0  0  0  0  0  0  0  0  0  0
  -10.6857   34.0245  -13.7294 C   0  0  0  0  0  0  0  0  0  0  0  0
   -7.7350   35.9490  -13.6081 C   0  0  0  0  0  0  0  0  0  0  0  0
  -10.0251   33.7660  -14.9756 O   0  0  0  0  0  0  0  0  0  0  0  0
   -6.9000   34.7830  -13.8567 O   0  0  0  0  0  0  0  0  0  0  0  0
  -10.1937   33.0524  -12.6624 C   0  0  1  0  0  0  0  0  0  0  0  0
   -7.8213   36.7278  -14.9747 C   0  0  1  0  0  0  0  0  0  0  0  0
  -10.8819   31.9578  -12.7645 O   0  0  0  0  0  0  0  0  0  0  0  0
   -6.6173   36.8670  -15.3556 O   0  0  0  0  0  0  0  0  0  0  0  0
   -8.7415   32.6684  -12.8300 C   0  0  1  0  0  0  0  0  0  0  0  0
   -8.4227   35.8373  -16.0802 C   0  0  1  0  0  0  0  0  0  0  0  0
   -8.0352   33.4236  -11.9474 O   0  0  0  0  0  0  0  0  0  0  0  0
   -9.7098   36.1329  -16.2989 O   0  0  0  0  0  0  0  0  0  0  0  0
   -8.7081   31.1591  -12.4042 C   0  0  1  0  0  0  0  0  0  0  0  0
   -7.5734   36.0632  -17.3518 C   0  0  1  0  0  0  0  0  0  0  0  0
   -8.1766   31.0302  -11.0207 O   0  0  0  0  0  0  0  0  0  0  0  0
   -8.2891   36.9697  -18.3065 O   0  0  0  0  0  0  0  0  0  0  0  0
   -9.9259   30.7262  -12.4769 C   0  0  2  0  0  0  0  0  0  0  0  0
   -6.4977   36.6378  -16.9350 C   0  0  2  0  0  0  0  0  0  0  0  0
  -11.4672   28.9185  -17.2913 N   0  0  0  0  0  0  0  0  0  0  0  0
  -11.6613   30.1813  -16.8172 C   0  0  0  0  0  0  0  0  0  0  0  0
  -11.2265   30.5456  -15.5683 N   0  0  0  0  0  0  0  0  0  0  0  0
  -10.5902   29.6182  -14.7903 C   0  0  0  0  0  0  0  0  0  0  0  0
  -10.3984   28.3702  -15.2401 C   0  0  0  0  0  0  0  0  0  0  0  0
  -10.8349   28.0109  -16.5141 C   0  0  0  0  0  0  0  0  0  0  0  0
  -10.6955   26.7385  -17.1027 N   0  0  0  0  0  0  0  0  0  0  0  0
   -9.7497   27.6792  -14.2788 N   0  0  0  0  0  0  0  0  0  0  0  0
   -9.5493   28.5181  -13.2228 C   0  0  0  0  0  0  0  0  0  0  0  0
  -10.0509   29.7182  -13.5425 N   0  0  0  0  0  0  0  0  0  0  0  0
   -1.9434   36.1688  -19.4167 N   0  0  0  0  0  0  0  0  0  0  0  0
   -2.8221   37.2005  -19.5154 C   0  0  0  0  0  0  0  0  0  0  0  0
   -3.9847   37.1676  -18.7981 N   0  0  0  0  0  0  0  0  0  0  0  0
   -4.2589   36.1116  -17.9857 C   0  0  0  0  0  0  0  0  0  0  0  0
   -3.3895   35.0864  -17.8793 C   0  0  0  0  0  0  0  0  0  0  0  0
   -2.2096   35.1262  -18.6164 C   0  0  0  0  0  0  0  0  0  0  0  0
   -1.1580   34.1432  -18.6708 N   0  0  0  0  0  0  0  0  0  0  0  0
   -3.9228   34.1913  -17.0135 N   0  0  0  0  0  0  0  0  0  0  0  0
   -5.1233   34.6753  -16.5839 C   0  0  0  0  0  0  0  0  0  0  0  0
   -5.3205   35.8643  -17.1884 N   0  0  0  0  0  0  0  0  0  0  0  0
  1  3  1  1  0  0  0
  1  5  2  0  0  0  0
  1  9  1  0  0  0  0
  1 18  1  0  0  0  0
  2  4  1  6  0  0  0
  2  6  2  0  0  0  0
  2 10  1  0  0  0  0
  2 17  1  0  0  0  0
  7  9  1  0  0  0  0
  8 10  1  0  0  0  0
 11  7  1  6  0  0  0
 11 13  1  0  0  0  0
 11 15  1  0  0  0  0
 12  8  1  1  0  0  0
 12 14  1  0  0  0  0
 12 16  1  0  0  0  0
 13 23  1  0  0  0  0
 14 24  1  0  0  0  0
 15 17  1  1  0  0  0
 15 19  1  0  0  0  0
 16 18  1  6  0  0  0
 16 20  1  0  0  0  0
 19 21  1  1  0  0  0
 19 23  1  0  0  0  0
 20 22  1  6  0  0  0
 20 24  1  0  0  0  0
 23 34  1  6  0  0  0
 24 44  1  1  0  0  0
 25 26  2  0  0  0  0
 25 30  1  0  0  0  0
 26 27  1  0  0  0  0
 27 28  2  0  0  0  0
 28 29  1  0  0  0  0
 28 34  1  0  0  0  0
 29 30  2  0  0  0  0
 29 32  1  0  0  0  0
 30 31  1  0  0  0  0
 32 33  2  0  0  0  0
 33 34  1  0  0  0  0
 35 36  2  0  0  0  0
 35 40  1  0  0  0  0
 36 37  1  0  0  0  0
 37 38  2  0  0  0  0
 38 39  1  0  0  0  0
 38 44  1  0  0  0  0
 39 40  2  0  0  0  0
 39 42  1  0  0  0  0
 40 41  1  0  0  0  0
 42 43  2  0  0  0  0
 43 44  1  0  0  0  0
M  CHG  2   3  -1   4  -1
M  END
>  <CHROM.1>
12.58203757,-124.78057612,-7.94724272,33.44104454,-15.32857952,2.89962670
0.81664583,1.39420540

>  <Name>
ligand

>  <RI>
0

>  <Rbt.Current_Directory>
/home/itssahil/PROJECTS/Mol_Feturizer/New_Systems/rnas/4QLM

>  <Rbt.Executable>
rbdock ($Id: //depot/dev/client3/rdock/2013.1/src/exe/rbdock.cxx#4 $)

>  <Rbt.Library>
libRbt.so (2013.1, Build901 2013/11/27)

>  <Rbt.Parameter_File>
/export/apps/rDock/src/rDock_2013.1_src/data/scripts/dock_solv.prm

>  <Rbt.Receptor>
prm/pocket_docking_5.prm

>  <SCORE>
0.194636

>  <SCORE.INTER>
0.610163

>  <SCORE.INTER.CONST>
1

>  <SCORE.INTER.POLAR>
0

>  <SCORE.INTER.ROT>
2

>  <SCORE.INTER.SOLV>
37.0724

>  <SCORE.INTER.VDW>
-16.884

>  <SCORE.INTER.norm>
0.0138673

>  <SCORE.INTRA>
-0.415527

>  <SCORE.INTRA.DIHEDRAL>
0.143881

>  <SCORE.INTRA.DIHEDRAL.0>
2.32994

>  <SCORE.INTRA.POLAR>
0

>  <SCORE.INTRA.POLAR.0>
0

>  <SCORE.INTRA.REPUL>
0

>  <SCORE.INTRA.REPUL.0>
0

>  <SCORE.INTRA.SOLV>
0.106101

>  <SCORE.INTRA.SOLV.lig_0>
-117.703

>  <SCORE.INTRA.VDW>
-0.540518

>  <SCORE.INTRA.VDW.0>
-1.59997

>  <SCORE.INTRA.norm>
-0.0094438

>  <SCORE.RESTR>
0

>  <SCORE.RESTR.CAVITY>
0

>  <SCORE.RESTR.norm>
0

>  <SCORE.SYSTEM>
0

>  <SCORE.SYSTEM.CONST>
0

>  <SCORE.SYSTEM.DIHEDRAL>
0

>  <SCORE.SYSTEM.SOLV>
0

>  <SCORE.SYSTEM.norm>
0

>  <SCORE.heavy>
44

>  <SCORE.norm>
0.00442355

>  <RMSD>
2.002

$$$$
ligand
 OpenBabel11021811513D
libRbt.so/2013.1/901 2013/11/27
 44 50  0  0  0  0  0  0  0  0999 V2000
   -8.4570   36.6393  -15.8109 P   0  0  2  0  0  0  0  0  0  0  0  0
   -4.1455   35.2722  -12.8532 P   0  0  1  0  0  0  0  0  0  0  0  0
   -9.7570   37.2407  -15.2828 O   0  5  0  0  0  0  0  0  0  0  0  0
   -3.7017   33.9404  -13.4075 O   0  5  0  0  0  0  0  0  0  0  0  0
   -8.8157   35.9242  -17.0913 O   0  0  0  0  0  0  0  0  0  0  0  0
   -3.0104   35.7942  -11.9431 O   0  0  0  0  0  0  0  0  0  0  0  0
   -8.3244   36.0736  -13.3403 C   0  0  0  0  0  0  0  0  0  0  0  0
   -5.1187   37.4548  -13.8316 C   0  0  0  0  0  0  0  0  0  0  0  0
   -7.9581   35.6912  -14.6729 O   0  0  0  0  0  0  0  0  0  0  0  0
   -4.5540   36.1585  -14.1770 O   0  0  0  0  0  0  0  0  0  0  0  0
   -7.8165   35.0414  -12.3393 C   0  0  1  0  0  0  0  0  0  0  0  0
   -5.3218   38.2229  -15.1919 C   0  0  1  0  0  0  0  0  0  0  0  0
   -8.6874   34.0827  -12.2702 O   0  0  0  0  0  0  0  0  0  0  0  0
   -4.2026   38.1460  -15.7883 O   0  0  0  0  0  0  0  0  0  0  0  0
   -6.5066   34.4081  -12.7486 C   0  0  1  0  0  0  0  0  0  0  0  0
   -6.2587   37.4398  -16.1332 C   0  0  1  0  0  0  0  0  0  0  0  0
   -5.5321   35.0375  -12.0397 O   0  0  0  0  0  0  0  0  0  0  0  0
   -7.4949   37.9533  -16.1293 O   0  0  0  0  0  0  0  0  0  0  0  0
   -6.6520   32.9206  -12.2729 C   0  0  1  0  0  0  0  0  0  0  0  0
   -5.6322   37.5012  -17.5449 C   0  0  1  0  0  0  0  0  0  0  0  0
   -5.9045   32.7149  -11.0031 O   0  0  0  0  0  0  0  0  0  0  0  0
   -6.3470   38.5089  -18.3927 O   0  0  0  0  0  0  0  0  0  0  0  0
   -7.9178   32.7061  -12.1075 C   0  0  2  0  0  0  0  0  0  0  0  0
   -4.4165   37.8834  -17.3525 C   0  0  2  0  0  0  0  0  0  0  0  0
   -8.7752   30.8059  -17.0548 N   0  0  0  0  0  0  0  0  0  0  0  0
   -8.1329   31.9686  -16.7503 C   0  0  0  0  0  0  0  0  0  0  0  0
   -7.9632   32.3665  -15.4486 N   0  0  0  0  0  0  0  0  0  0  0  0
   -8.4529   31.5777  -14.4444 C   0  0  0  0  0  0  0  0  0  0  0  0
   -9.0932   30.4350  -14.7285 C   0  0  0  0  0  0  0  0  0  0  0  0
   -9.2529   30.0333  -16.0535 C   0  0  0  0  0  0  0  0  0  0  0  0
   -9.9031   28.8601  -16.4846 N   0  0  0  0  0  0  0  0  0  0  0  0
   -9.4595   29.8648  -13.5610 N   0  0  0  0  0  0  0  0  0  0  0  0
   -9.0417   30.6773  -12.5488 C   0  0  0  0  0  0  0  0  0  0  0  0
   -8.4060   31.7247  -13.0902 N   0  0  0  0  0  0  0  0  0  0  0  0
   -0.8227   36.4315  -20.8306 N   0  0  0  0  0  0  0  0  0  0  0  0
   -1.5684   37.5671  -20.8559 C   0  0  0  0  0  0  0  0  0  0  0  0
   -2.4801   37.7979  -19.8645 N   0  0  0  0  0  0  0  0  0  0  0  0
   -2.6369   36.8996  -18.8551 C   0  0  0  0  0  0  0  0  0  0  0  0
   -1.8971   35.7727  -18.8210 C   0  0  0  0  0  0  0  0  0  0  0  0
   -0.9736   35.5437  -19.8369 C   0  0  0  0  0  0  0  0  0  0  0  0
   -0.1002   34.4114  -20.0101 N   0  0  0  0  0  0  0  0  0  0  0  0
   -2.2672   35.0784  -17.7183 N   0  0  0  0  0  0  0  0  0  0  0  0
   -3.2355   35.7883  -17.0714 C   0  0  0  0  0  0  0  0  0  0  0  0
   -3.4547   36.9139  -17.7805 N   0  0  0  0  0  0  0  0  0  0  0  0
  1  3  1  1  0  0  0
  1  5  2  0  0  0  0
  1  9  1  0  0  0  0
  1 18  1  0  0  0  0
  2  4  1  6  0  0  0
  2  6  2  0  0  0  0
  2 10  1  0  0  0  0
  2 17  1  0  0  0  0
  7  9  1  0  0  0  0
  8 10  1  0  0  0  0
 11  7  1  6  0  0  0
 11 13  1  0  0  0  0
 11 15  1  0  0  0  0
 12  8  1  1  0  0  0
 12 14  1  0  0  0  0
 12 16  1  0  0  0  0
 13 23  1  0  0  0  0
 14 24  1  0  0  0  0
 15 17  1  1  0  0  0
 15 19  1  0  0  0  0
 16 18  1  6  0  0  0
 16 20  1  0  0  0  0
 19 21  1  1  0  0  0
 19 23  1  0  0  0  0
 20 22  1  6  0  0  0
 20 24  1  0  0  0  0
 23 34  1  6  0  0  0
 24 44  1  1  0  0  0
 25 26  2  0  0  0  0
 25 30  1  0  0  0  0
 26 27  1  0  0  0  0
 27 28  2  0  0  0  0
 28 29  1  0  0  0  0
 28 34  1  0  0  0  0
 29 30  2  0  0  0  0
 29 32  1  0  0  0  0
 30 31  1  0  0  0  0
 32 33  2  0  0  0  0
 33 34  1  0  0  0  0
 35 36  2  0  0  0  0
 35 40  1  0  0  0  0
 36 37  1  0  0  0  0
 37 38  2  0  0  0  0
 38 39  1  0  0  0  0
 38 44  1  0  0  0  0
 39 40  2  0  0  0  0
 39 42  1  0  0  0  0
 40 41  1  0  0  0  0
 42 43  2  0  0  0  0
 43 44  1  0  0  0  0
M  CHG  2   3  -1   4  -1
M  END
>  <CHROM.1>
62.71342850,-133.33099982,-5.96494929,34.97210451,-15.43906038,-3.01366947
-0.86126224,-2.20767293

>  <Name>
ligand

>  <RI>
0

>  <Rbt.Current_Directory>
/home/itssahil/PROJECTS/Mol_Feturizer/New_Systems/rnas/4QLM

>  <Rbt.Executable>
rbdock ($Id: //depot/dev/client3/rdock/2013.1/src/exe/rbdock.cxx#4 $)

>  <Rbt.Library>
libRbt.so (2013.1, Build901 2013/11/27)

>  <Rbt.Parameter_File>
/export/apps/rDock/src/rDock_2013.1_src/data/scripts/dock_solv.prm

>  <Rbt.Receptor>
prm/pocket_docking_4.prm

>  <SCORE>
-17.2803

>  <SCORE.INTER>
-16.4836

>  <SCORE.INTER.CONST>
1

>  <SCORE.INTER.POLAR>
0

>  <SCORE.INTER.ROT>
2

>  <SCORE.INTER.SOLV>
29.9297

>  <SCORE.INTER.VDW>
-25.8989

>  <SCORE.INTER.norm>
-0.374627

>  <SCORE.INTRA>
-0.981795

>  <SCORE.INTRA.DIHEDRAL>
0.0533225

>  <SCORE.INTRA.DIHEDRAL.0>
2.32994

>  <SCORE.INTRA.POLAR>
0

>  <SCORE.INTRA.POLAR.0>
0

>  <SCORE.INTRA.REPUL>
0

>  <SCORE.INTRA.REPUL.0>
0

>  <SCORE.INTRA.SOLV>
0.0484859

>  <SCORE.INTRA.SOLV.lig_0>
-117.703

>  <SCORE.INTRA.VDW>
-1.0327

>  <SCORE.INTRA.VDW.0>
-1.59997

>  <SCORE.INTRA.norm>
-0.0223135

>  <SCORE.RESTR>
0.185062

>  <SCORE.RESTR.CAVITY>
0.185062

>  <SCORE.RESTR.norm>
0.00420595

>  <SCORE.SYSTEM>
0

>  <SCORE.SYSTEM.CONST>
0

>  <SCORE.SYSTEM.DIHEDRAL>
0

>  <SCORE.SYSTEM.SOLV>
0

>  <SCORE.SYSTEM.norm>
0

>  <SCORE.heavy>
44

>  <SCORE.norm>
-0.392734

>  <RMSD>
2.119

$$$$
ligand
 OpenBabel11021811513D
libRbt.so/2013.1/901 2013/11/27
 44 50  0  0  0  0  0  0  0  0999 V2000
   -5.8703   34.9922  -12.7545 P   0  0  2  0  0  0  0  0  0  0  0  0
  -10.1848   35.2679  -15.9971 P   0  0  1  0  0  0  0  0  0  0  0  0
   -5.2249   36.1605  -12.0134 O   0  5  0  0  0  0  0  0  0  0  0  0
   -9.8376   34.3959  -17.1791 O   0  5  0  0  0  0  0  0  0  0  0  0
   -4.7804   33.9656  -12.9486 O   0  0  0  0  0  0  0  0  0  0  0  0
  -11.6982   35.5714  -16.0768 O   0  0  0  0  0  0  0  0  0  0  0  0
   -6.7934   36.9859  -14.0249 C   0  0  0  0  0  0  0  0  0  0  0  0
   -9.7697   35.1870  -13.4496 C   0  0  0  0  0  0  0  0  0  0  0  0
   -6.4084   35.6060  -14.0873 O   0  0  0  0  0  0  0  0  0  0  0  0
   -9.6227   34.4414  -14.6911 O   0  0  0  0  0  0  0  0  0  0  0  0
   -7.2517   37.4659  -15.3979 C   0  0  1  0  0  0  0  0  0  0  0  0
   -9.3203   34.2132  -12.2957 C   0  0  1  0  0  0  0  0  0  0  0  0
   -6.2027   37.8214  -16.0728 O   0  0  0  0  0  0  0  0  0  0  0  0
   -9.9790   33.1438  -12.4867 O   0  0  0  0  0  0  0  0  0  0  0  0
   -7.9426   36.3911  -16.2052 C   0  0  1  0  0  0  0  0  0  0  0  0
   -7.8635   33.7516  -12.4993 C   0  0  1  0  0  0  0  0  0  0  0  0
   -9.2785   36.6134  -16.0858 O   0  0  0  0  0  0  0  0  0  0  0  0
   -7.0227   34.4244  -11.7042 O   0  0  0  0  0  0  0  0  0  0  0  0
   -7.4725   36.6745  -17.6745 C   0  0  1  0  0  0  0  0  0  0  0  0
   -7.8255   32.2360  -12.1981 C   0  0  1  0  0  0  0  0  0  0  0  0
   -8.5445   37.3803  -18.4269 O   0  0  0  0  0  0  0  0  0  0  0  0
   -7.2489   31.9856  -10.8379 O   0  0  0  0  0  0  0  0  0  0  0  0
   -6.4067   37.4042  -17.5887 C   0  0  2  0  0  0  0  0  0  0  0  0
   -9.0586   31.8619  -12.2199 C   0  0  2  0  0  0  0  0  0  0  0  0
   -2.6188   33.6069  -17.3565 N   0  0  0  0  0  0  0  0  0  0  0  0
   -3.6111   33.7965  -16.4419 C   0  0  0  0  0  0  0  0  0  0  0  0
   -4.5350   34.7990  -16.5938 N   0  0  0  0  0  0  0  0  0  0  0  0
   -4.4499   35.6202  -17.6840 C   0  0  0  0  0  0  0  0  0  0  0  0
   -3.4753   35.4507  -18.5883 C   0  0  0  0  0  0  0  0  0  0  0  0
   -2.5463   34.4236  -18.4314 C   0  0  0  0  0  0  0  0  0  0  0  0
   -1.4787   34.1395  -19.3058 N   0  0  0  0  0  0  0  0  0  0  0  0
   -3.6342   36.3864  -19.5482 N   0  0  0  0  0  0  0  0  0  0  0  0
   -4.7196   37.1435  -19.2195 C   0  0  0  0  0  0  0  0  0  0  0  0
   -5.2341   36.6622  -18.0803 N   0  0  0  0  0  0  0  0  0  0  0  0
  -11.5639   30.6297  -16.6160 N   0  0  0  0  0  0  0  0  0  0  0  0
  -11.6433   31.8027  -15.9349 C   0  0  0  0  0  0  0  0  0  0  0  0
  -10.9224   31.9658  -14.7856 N   0  0  0  0  0  0  0  0  0  0  0  0
  -10.1255   30.9626  -14.3284 C   0  0  0  0  0  0  0  0  0  0  0  0
  -10.0382   29.7975  -15.0015 C   0  0  0  0  0  0  0  0  0  0  0  0
  -10.7790   29.6384  -16.1691 C   0  0  0  0  0  0  0  0  0  0  0  0
  -10.8525   28.4850  -17.0289 N   0  0  0  0  0  0  0  0  0  0  0  0
   -9.1846   28.9979  -14.3182 N   0  0  0  0  0  0  0  0  0  0  0  0
   -8.7431   29.6808  -13.2234 C   0  0  0  0  0  0  0  0  0  0  0  0
   -9.3283   30.8955  -13.2404 N   0  0  0  0  0  0  0  0  0  0  0  0
  1  3  1  1  0  0  0
  1  5  2  0  0  0  0
  1  9  1  0  0  0  0
  1 18  1  0  0  0  0
  2  4  1  6  0  0  0
  2  6  2  0  0  0  0
  2 10  1  0  0  0  0
  2 17  1  0  0  0  0
  7  9  1  0  0  0  0
  8 10  1  0  0  0  0
 11  7  1  1  0  0  0
 11 13  1  0  0  0  0
 11 15  1  0  0  0  0
 12  8  1  6  0  0  0
 12 14  1  0  0  0  0
 12 16  1  0  0  0  0
 13 23  1  0  0  0  0
 14 24  1  0  0  0  0
 15 17  1  6  0  0  0
 15 19  1  0  0  0  0
 16 18  1  1  0  0  0
 16 20  1  0  0  0  0
 19 21  1  6  0  0  0
 19 23  1  0  0  0  0
 20 22  1  1  0  0  0
 20 24  1  0  0  0  0
 23 34  1  1  0  0  0
 24 44  1  6  0  0  0
 25 26  2  0  0  0  0
 25 30  1  0  0  0  0
 26 27  1  0  0  0  0
 27 28  2  0  0  0  0
 28 29  1  0  0  0  0
 28 34  1  0  0  0  0
 29 30  2  0  0  0  0
 29 32  1  0  0  0  0
 30 31  1  0  0  0  0
 32 33  2  0  0  0  0
 33 34  1  0  0  0  0
 35 36  2  0  0  0  0
 35 40  1  0  0  0  0
 36 37  1  0  0  0  0
 37 38  2  0  0  0  0
 38 39  1  0  0  0  0
 38 44  1  0  0  0  0
 39 40  2  0  0  0  0
 39 42  1  0  0  0  0
 40 41  1  0  0  0  0
 42 43  2  0  0  0  0
 43 44  1  0  0  0  0
M  CHG  2   3  -1   4  -1
M  END
>  <CHROM.1>
48.66956001,3.95941346,-7.57967550,34.18620045,-15.26830990,-0.66926862,0.49715800
1.96195516

>  <Name>
ligand

>  <RI>
0

>  <Rbt.Current_Directory>
/home/itssahil/PROJECTS/Mol_Feturizer/New_Systems/rnas/4QLM

>  <Rbt.Executable>
rbdock ($Id: //depot/dev/client3/rdock/2013.1/src/exe/rbdock.cxx#4 $)

>  <Rbt.Library>
libRbt.so (2013.1, Build901 2013/11/27)

>  <Rbt.Parameter_File>
/export/apps/rDock/src/rDock_2013.1_src/data/scripts/dock_solv.prm

>  <Rbt.Receptor>
prm/pocket_docking_2.prm

>  <SCORE>
17.4443

>  <SCORE.INTER>
16.0913

>  <SCORE.INTER.CONST>
1

>  <SCORE.INTER.POLAR>
0

>  <SCORE.INTER.ROT>
2

>  <SCORE.INTER.SOLV>
32.9698

>  <SCORE.INTER.VDW>
-5.19577

>  <SCORE.INTER.norm>
0.36571

>  <SCORE.INTRA>
-1.36822

>  <SCORE.INTRA.DIHEDRAL>
0.118636

>  <SCORE.INTRA.DIHEDRAL.0>
2.32994

>  <SCORE.INTRA.POLAR>
0

>  <SCORE.INTRA.POLAR.0>
0

>  <SCORE.INTRA.REPUL>
0

>  <SCORE.INTRA.REPUL.0>
0

>  <SCORE.INTRA.SOLV>
1.18577

>  <SCORE.INTRA.SOLV.lig_0>
-117.703

>  <SCORE.INTRA.VDW>
-2.02042

>  <SCORE.INTRA.VDW.0>
-1.59997

>  <SCORE.INTRA.norm>
-0.0310958

>  <SCORE.RESTR>
2.7213

>  <SCORE.RESTR.CAVITY>
2.7213

>  <SCORE.RESTR.norm>
0.0618478

>  <SCORE.SYSTEM>
0

>  <SCORE.SYSTEM.CONST>
0

>  <SCORE.SYSTEM.DIHEDRAL>
0

>  <SCORE.SYSTEM.SOLV>
0

>  <SCORE.SYSTEM.norm>
0

>  <SCORE.heavy>
44

>  <SCORE.norm>
0.396462

>  <RMSD>
2.130

$$$$
ligand
 OpenBabel11021811513D
libRbt.so/2013.1/901 2013/11/27
 44 50  0  0  0  0  0  0  0  0999 V2000
   -4.0593   35.4770  -12.9912 P   0  0  2  0  0  0  0  0  0  0  0  0
   -8.3835   36.8330  -15.9353 P   0  0  1  0  0  0  0  0  0  0  0  0
   -3.1459   36.4399  -12.2367 O   0  5  0  0  0  0  0  0  0  0  0  0
   -8.2886   35.9818  -17.1781 O   0  5  0  0  0  0  0  0  0  0  0  0
   -3.2200   34.2616  -13.3041 O   0  0  0  0  0  0  0  0  0  0  0  0
   -9.8019   37.4462  -15.9037 O   0  0  0  0  0  0  0  0  0  0  0  0
   -4.6095   37.6918  -14.1016 C   0  0  0  0  0  0  0  0  0  0  0  0
   -7.8623   36.5133  -13.4265 C   0  0  0  0  0  0  0  0  0  0  0  0
   -4.5257   36.2686  -14.2555 O   0  0  0  0  0  0  0  0  0  0  0  0
   -7.9395   35.8304  -14.7096 O   0  0  0  0  0  0  0  0  0  0  0  0
   -5.0281   38.3387  -15.4176 C   0  0  1  0  0  0  0  0  0  0  0  0
   -7.5672   35.3994  -12.3523 C   0  0  1  0  0  0  0  0  0  0  0  0
   -3.9645   38.5107  -16.1398 O   0  0  0  0  0  0  0  0  0  0  0  0
   -8.4442   34.5024  -12.5528 O   0  0  0  0  0  0  0  0  0  0  0  0
   -5.9698   37.4805  -16.2308 C   0  0  1  0  0  0  0  0  0  0  0  0
   -6.2519   34.6607  -12.6704 C   0  0  1  0  0  0  0  0  0  0  0  0
   -7.2215   37.9657  -16.0159 O   0  0  0  0  0  0  0  0  0  0  0  0
   -5.2486   35.0960  -11.8986 O   0  0  0  0  0  0  0  0  0  0  0  0
   -5.5280   37.7499  -17.7114 C   0  0  1  0  0  0  0  0  0  0  0  0
   -6.5163   33.1543  -12.4465 C   0  0  1  0  0  0  0  0  0  0  0  0
   -6.4663   38.7059  -18.3588 O   0  0  0  0  0  0  0  0  0  0  0  0
   -5.9349   32.7082  -11.1396 O   0  0  0  0  0  0  0  0  0  0  0  0
   -4.3301   38.2377  -17.6582 C   0  0  2  0  0  0  0  0  0  0  0  0
   -7.7999   33.0444  -12.4080 C   0  0  2  0  0  0  0  0  0  0  0  0
   -1.9579   33.4655  -18.3064 N   0  0  0  0  0  0  0  0  0  0  0  0
   -2.9934   33.7299  -17.4609 C   0  0  0  0  0  0  0  0  0  0  0  0
   -3.5322   34.9880  -17.3694 N   0  0  0  0  0  0  0  0  0  0  0  0
   -3.0133   35.9899  -18.1422 C   0  0  0  0  0  0  0  0  0  0  0  0
   -1.9902   35.7469  -18.9732 C   0  0  0  0  0  0  0  0  0  0  0  0
   -1.4548   34.4634  -19.0671 C   0  0  0  0  0  0  0  0  0  0  0  0
   -0.3842   34.0776  -19.8977 N   0  0  0  0  0  0  0  0  0  0  0  0
   -1.6888   36.9002  -19.6067 N   0  0  0  0  0  0  0  0  0  0  0  0
   -2.5377   37.8639  -19.1487 C   0  0  0  0  0  0  0  0  0  0  0  0
   -3.3661   37.3013  -18.2590 N   0  0  0  0  0  0  0  0  0  0  0  0
  -11.9061   30.7009  -14.5913 N   0  0  0  0  0  0  0  0  0  0  0  0
  -11.9057   31.4593  -13.4638 C   0  0  0  0  0  0  0  0  0  0  0  0
  -10.7341   32.0013  -13.0156 N   0  0  0  0  0  0  0  0  0  0  0  0
   -9.5759   31.7881  -13.6964 C   0  0  0  0  0  0  0  0  0  0  0  0
   -9.5695   31.0403  -14.8185 C   0  0  0  0  0  0  0  0  0  0  0  0
  -10.7666   30.4888  -15.2657 C   0  0  0  0  0  0  0  0  0  0  0  0
  -10.9882   29.6510  -16.4163 N   0  0  0  0  0  0  0  0  0  0  0  0
   -8.2935   31.0004  -15.2714 N   0  0  0  0  0  0  0  0  0  0  0  0
   -7.5160   31.7331  -14.4237 C   0  0  0  0  0  0  0  0  0  0  0  0
   -8.3187   32.2183  -13.4551 N   0  0  0  0  0  0  0  0  0  0  0  0
  1  3  1  1  0  0  0
  1  5  2  0  0  0  0
  1  9  1  0  0  0  0
  1 18  1  0  0  0  0
  2  4  1  6  0  0  0
  2  6  2  0  0  0  0
  2 10  1  0  0  0  0
  2 17  1  0  0  0  0
  7  9  1  0  0  0  0
  8 10  1  0  0  0  0
 11  7  1  1  0  0  0
 11 13  1  0  0  0  0
 11 15  1  0  0  0  0
 12  8  1  6  0  0  0
 12 14  1  0  0  0  0
 12 16  1  0  0  0  0
 13 23  1  0  0  0  0
 14 24  1  0  0  0  0
 15 17  1  6  0  0  0
 15 19  1  0  0  0  0
 16 18  1  1  0  0  0
 16 20  1  0  0  0  0
 19 21  1  1  0  0  0
 19 23  1  0  0  0  0
 20 22  1  1  0  0  0
 20 24  1  0  0  0  0
 23 34  1  1  0  0  0
 24 44  1  6  0  0  0
 25 26  2  0  0  0  0
 25 30  1  0  0  0  0
 26 27  1  0  0  0  0
 27 28  2  0  0  0  0
 28 29  1  0  0  0  0
 28 34  1  0  0  0  0
 29 30  2  0  0  0  0
 29 32  1  0  0  0  0
 30 31  1  0  0  0  0
 32 33  2  0  0  0  0
 33 34  1  0  0  0  0
 35 36  2  0  0  0  0
 35 40  1  0  0  0  0
 36 37  1  0  0  0  0
 37 38  2  0  0  0  0
 38 39  1  0  0  0  0
 38 44  1  0  0  0  0
 39 40  2  0  0  0  0
 39 42  1  0  0  0  0
 40 41  1  0  0  0  0
 42 43  2  0  0  0  0
 43 44  1  0  0  0  0
M  CHG  2   3  -1   4  -1
M  END
>  <CHROM.1>
67.66956614,-64.90868247,-6.15586894,35.02882178,-15.29579822,-0.16281634
0.72114420,1.08970419

>  <Name>
ligand

>  <RI>
0

>  <Rbt.Current_Directory>
/home/itssahil/PROJECTS/Mol_Feturizer/New_Systems/rnas/4QLM

>  <Rbt.Executable>
rbdock ($Id: //depot/dev/client3/rdock/2013.1/src/exe/rbdock.cxx#4 $)

>  <Rbt.Library>
libRbt.so (2013.1, Build901 2013/11/27)

>  <Rbt.Parameter_File>
/export/apps/rDock/src/rDock_2013.1_src/data/scripts/dock_solv.prm

>  <Rbt.Receptor>
prm/pocket_docking_3.prm

>  <SCORE>
-5.70599

>  <SCORE.INTER>
-7.14336

>  <SCORE.INTER.CONST>
1

>  <SCORE.INTER.POLAR>
0

>  <SCORE.INTER.ROT>
2

>  <SCORE.INTER.SOLV>
31.13

>  <SCORE.INTER.VDW>
-20.0722

>  <SCORE.INTER.norm>
-0.162349

>  <SCORE.INTRA>
1.04775

>  <SCORE.INTRA.DIHEDRAL>
0.0180536

>  <SCORE.INTRA.DIHEDRAL.0>
2.32994

>  <SCORE.INTRA.POLAR>
0

>  <SCORE.INTRA.POLAR.0>
0

>  <SCORE.INTRA.REPUL>
0

>  <SCORE.INTRA.REPUL.0>
0

>  <SCORE.INTRA.SOLV>
0.045279

>  <SCORE.INTRA.SOLV.lig_0>
-117.703

>  <SCORE.INTRA.VDW>
1.01608

>  <SCORE.INTRA.VDW.0>
-1.59997

>  <SCORE.INTRA.norm>
0.0238125

>  <SCORE.RESTR>
0.389625

>  <SCORE.RESTR.CAVITY>
0.389625

>  <SCORE.RESTR.norm>
0.00885511

>  <SCORE.SYSTEM>
0

>  <SCORE.SYSTEM.CONST>
0

>  <SCORE.SYSTEM.DIHEDRAL>
0

>  <SCORE.SYSTEM.SOLV>
0

>  <SCORE.SYSTEM.norm>
0

>  <SCORE.heavy>
44

>  <SCORE.norm>
-0.129682

>  <RMSD>
2.231

$$$$
ligand
 OpenBabel11021811513D
libRbt.so/2013.1/901 2013/11/27
 44 50  0  0  0  0  0  0  0  0999 V2000
   -4.1917   35.3128  -12.9996 P   0  0  2  0  0  0  0  0  0  0  0  0
   -8.5448   36.7531  -15.8600 P   0  0  1  0  0  0  0  0  0  0  0  0
   -3.2650   36.2546  -12.2348 O   0  5  0  0  0  0  0  0  0  0  0  0
   -8.4688   35.9296  -17.1226 O   0  5  0  0  0  0  0  0  0  0  0  0
   -3.3618   34.1012  -13.3498 O   0  0  0  0  0  0  0  0  0  0  0  0
   -9.9600   37.3715  -15.7973 O   0  0  0  0  0  0  0  0  0  0  0  0
   -4.7453   37.5543  -14.0534 C   0  0  0  0  0  0  0  0  0  0  0  0
   -7.9950   36.3748  -13.3654 C   0  0  0  0  0  0  0  0  0  0  0  0
   -4.6697   36.1346  -14.2401 O   0  0  0  0  0  0  0  0  0  0  0  0
   -8.0907   35.7213  -14.6624 O   0  0  0  0  0  0  0  0  0  0  0  0
   -5.1767   38.2324  -15.3494 C   0  0  1  0  0  0  0  0  0  0  0  0
   -7.6921   35.2359  -12.3201 C   0  0  1  0  0  0  0  0  0  0  0  0
   -4.1211   38.4161  -16.0804 O   0  0  0  0  0  0  0  0  0  0  0  0
   -8.5754   34.3473  -12.5301 O   0  0  0  0  0  0  0  0  0  0  0  0
   -6.1320   37.3968  -16.1700 C   0  0  1  0  0  0  0  0  0  0  0  0
   -6.3841   34.4988  -12.6706 C   0  0  1  0  0  0  0  0  0  0  0  0
   -7.3788   37.8823  -15.9292 O   0  0  0  0  0  0  0  0  0  0  0  0
   -5.3696   34.9125  -11.9015 O   0  0  0  0  0  0  0  0  0  0  0  0
   -5.7068   37.6974  -17.6496 C   0  0  1  0  0  0  0  0  0  0  0  0
   -6.6526   32.9890  -12.4774 C   0  0  1  0  0  0  0  0  0  0  0  0
   -6.6484   38.6718  -18.2639 O   0  0  0  0  0  0  0  0  0  0  0  0
   -6.0575   32.5111  -11.1879 O   0  0  0  0  0  0  0  0  0  0  0  0
   -4.5062   38.1788  -17.5999 C   0  0  2  0  0  0  0  0  0  0  0  0
   -7.9361   32.8837  -12.4257 C   0  0  2  0  0  0  0  0  0  0  0  0
   -1.9868   33.4780  -18.2140 N   0  0  0  0  0  0  0  0  0  0  0  0
   -2.9612   33.7439  -17.2990 C   0  0  0  0  0  0  0  0  0  0  0  0
   -3.5455   34.9826  -17.2234 N   0  0  0  0  0  0  0  0  0  0  0  0
   -3.1354   35.9634  -18.0836 C   0  0  0  0  0  0  0  0  0  0  0  0
   -2.1732   35.7191  -18.9841 C   0  0  0  0  0  0  0  0  0  0  0  0
   -1.5912   34.4549  -19.0606 C   0  0  0  0  0  0  0  0  0  0  0  0
   -0.5754   34.0701  -19.9577 N   0  0  0  0  0  0  0  0  0  0  0  0
   -1.9750   36.8496  -19.6947 N   0  0  0  0  0  0  0  0  0  0  0  0
   -2.8256   37.8009  -19.2144 C   0  0  0  0  0  0  0  0  0  0  0  0
   -3.5537   37.2520  -18.2332 N   0  0  0  0  0  0  0  0  0  0  0  0
  -12.1075   31.2413  -15.0755 N   0  0  0  0  0  0  0  0  0  0  0  0
  -12.0990   32.0916  -14.0157 C   0  0  0  0  0  0  0  0  0  0  0  0
  -10.9120   32.4196  -13.4233 N   0  0  0  0  0  0  0  0  0  0  0  0
   -9.7452   31.9028  -13.8945 C   0  0  0  0  0  0  0  0  0  0  0  0
   -9.7457   31.0620  -14.9487 C   0  0  0  0  0  0  0  0  0  0  0  0
  -10.9595   30.7302  -15.5436 C   0  0  0  0  0  0  0  0  0  0  0  0
  -11.1957   29.8464  -16.6562 N   0  0  0  0  0  0  0  0  0  0  0  0
   -8.4591   30.7121  -15.1882 N   0  0  0  0  0  0  0  0  0  0  0  0
   -7.6669   31.3476  -14.2781 C   0  0  0  0  0  0  0  0  0  0  0  0
   -8.4712   32.0836  -13.4847 N   0  0  0  0  0  0  0  0  0  0  0  0
  1  3  1  1  0  0  0
  1  5  2  0  0  0  0
  1  9  1  0  0  0  0
  1 18  1  0  0  0  0
  2  4  1  6  0  0  0
  2  6  2  0  0  0  0
  2 10  1  0  0  0  0
  2 17  1  0  0  0  0
  7  9  1  0  0  0  0
  8 10  1  0  0  0  0
 11  7  1  1  0  0  0
 11 13  1  0  0  0  0
 11 15  1  0  0  0  0
 12  8  1  6  0  0  0
 12 14  1  0  0  0  0
 12 16  1  0  0  0  0
 13 23  1  0  0  0  0
 14 24  1  0  0  0  0
 15 17  1  6  0  0  0
 15 19  1  0  0  0  0
 16 18  1  1  0  0  0
 16 20  1  0  0  0  0
 19 21  1  1  0  0  0
 19 23  1  0  0  0  0
 20 22  1  1  0  0  0
 20 24  1  0  0  0  0
 23 34  1  1  0  0  0
 24 44  1  6  0  0  0
 25 26  2  0  0  0  0
 25 30  1  0  0  0  0
 26 27  1  0  0  0  0
 27 28  2  0  0  0  0
 28 29  1  0  0  0  0
 28 34  1  0  0  0  0
 29 30  2  0  0  0  0
 29 32  1  0  0  0  0
 30 31  1  0  0  0  0
 32 33  2  0  0  0  0
 33 34  1  0  0  0  0
 35 36  2  0  0  0  0
 35 40  1  0  0  0  0
 36 37  1  0  0  0  0
 37 38  2  0  0  0  0
 38 39  1  0  0  0  0
 38 44  1  0  0  0  0
 39 40  2  0  0  0  0
 39 42  1  0  0  0  0
 40 41  1  0  0  0  0
 42 43  2  0  0  0  0
 43 44  1  0  0  0  0
M  CHG  2   3  -1   4  -1
M  END
>  <CHROM.1>
61.33085238,-48.30563835,-6.30784145,34.97891581,-15.31267759,-0.60170493
0.39574162,1.89973647

>  <Name>
ligand

>  <RI>
0

>  <Rbt.Current_Directory>
/home/itssahil/PROJECTS/Mol_Feturizer/New_Systems/rnas/4QLM

>  <Rbt.Executable>
rbdock ($Id: //depot/dev/client3/rdock/2013.1/src/exe/rbdock.cxx#4 $)

>  <Rbt.Library>
libRbt.so (2013.1, Build901 2013/11/27)

>  <Rbt.Parameter_File>
/export/apps/rDock/src/rDock_2013.1_src/data/scripts/dock_solv.prm

>  <Rbt.Receptor>
prm/pocket_docking_3.prm

>  <SCORE>
-5.40173

>  <SCORE.INTER>
-6.49894

>  <SCORE.INTER.CONST>
1

>  <SCORE.INTER.POLAR>
0

>  <SCORE.INTER.ROT>
2

>  <SCORE.INTER.SOLV>
31.647

>  <SCORE.INTER.VDW>
-19.815

>  <SCORE.INTER.norm>
-0.147703

>  <SCORE.INTRA>
0.864393

>  <SCORE.INTRA.DIHEDRAL>
0.0598616

>  <SCORE.INTRA.DIHEDRAL.0>
2.32994

>  <SCORE.INTRA.POLAR>
0

>  <SCORE.INTRA.POLAR.0>
0

>  <SCORE.INTRA.REPUL>
0

>  <SCORE.INTRA.REPUL.0>
0

>  <SCORE.INTRA.SOLV>
0.145438

>  <SCORE.INTRA.SOLV.lig_0>
-117.703

>  <SCORE.INTRA.VDW>
0.761744

>  <SCORE.INTRA.VDW.0>
-1.59997

>  <SCORE.INTRA.norm>
0.0196453

>  <SCORE.RESTR>
0.232809

>  <SCORE.RESTR.CAVITY>
0.232809

>  <SCORE.RESTR.norm>
0.00529112

>  <SCORE.SYSTEM>
0

>  <SCORE.SYSTEM.CONST>
0

>  <SCORE.SYSTEM.DIHEDRAL>
0

>  <SCORE.SYSTEM.SOLV>
0

>  <SCORE.SYSTEM.norm>
0

>  <SCORE.heavy>
44

>  <SCORE.norm>
-0.122767

>  <RMSD>
2.248

$$$$
ligand
 OpenBabel11021811513D
libRbt.so/2013.1/901 2013/11/27
 44 50  0  0  0  0  0  0  0  0999 V2000
   -6.7952   35.1379  -12.6503 P   0  0  2  0  0  0  0  0  0  0  0  0
  -10.5370   35.2081  -16.5489 P   0  0  1  0  0  0  0  0  0  0  0  0
   -6.3142   36.3405  -11.8424 O   0  5  0  0  0  0  0  0  0  0  0  0
   -9.9771   34.3276  -17.6394 O   0  5  0  0  0  0  0  0  0  0  0  0
   -5.6570   34.1459  -12.6432 O   0  0  0  0  0  0  0  0  0  0  0  0
  -12.0265   35.4581  -16.8774 O   0  0  0  0  0  0  0  0  0  0  0  0
   -7.5627   37.0760  -14.0980 C   0  0  0  0  0  0  0  0  0  0  0  0
  -10.5356   35.1867  -13.9667 C   0  0  0  0  0  0  0  0  0  0  0  0
   -7.1302   35.7091  -14.0659 O   0  0  0  0  0  0  0  0  0  0  0  0
  -10.1675   34.4246  -15.1509 O   0  0  0  0  0  0  0  0  0  0  0  0
   -7.8083   37.5155  -15.5375 C   0  0  1  0  0  0  0  0  0  0  0  0
  -10.2483   34.2496  -12.7335 C   0  0  1  0  0  0  0  0  0  0  0  0
   -6.6757   37.8946  -16.0432 O   0  0  0  0  0  0  0  0  0  0  0  0
  -10.8342   33.1550  -13.0030 O   0  0  0  0  0  0  0  0  0  0  0  0
   -8.3265   36.4035  -16.4202 C   0  0  1  0  0  0  0  0  0  0  0  0
   -8.7641   33.8345  -12.6898 C   0  0  1  0  0  0  0  0  0  0  0  0
   -9.6704   36.5820  -16.5220 O   0  0  0  0  0  0  0  0  0  0  0  0
   -8.0837   34.5497  -11.7858 O   0  0  0  0  0  0  0  0  0  0  0  0
   -7.6346   36.6767  -17.8011 C   0  0  1  0  0  0  0  0  0  0  0  0
   -8.7283   32.3266  -12.3516 C   0  0  1  0  0  0  0  0  0  0  0  0
   -8.5927   37.3319  -18.7319 O   0  0  0  0  0  0  0  0  0  0  0  0
   -8.3710   32.1204  -10.9111 O   0  0  0  0  0  0  0  0  0  0  0  0
   -6.6197   37.4439  -17.5622 C   0  0  2  0  0  0  0  0  0  0  0  0
   -9.9296   31.9102  -12.5624 C   0  0  2  0  0  0  0  0  0  0  0  0
   -2.8699   33.6961  -16.7168 N   0  0  0  0  0  0  0  0  0  0  0  0
   -4.0210   33.8440  -16.0024 C   0  0  0  0  0  0  0  0  0  0  0  0
   -4.9190   34.8372  -16.3000 N   0  0  0  0  0  0  0  0  0  0  0  0
   -4.6454   35.6918  -17.3320 C   0  0  0  0  0  0  0  0  0  0  0  0
   -3.5141   35.5634  -18.0392 C   0  0  0  0  0  0  0  0  0  0  0  0
   -2.6114   34.5455  -17.7362 C   0  0  0  0  0  0  0  0  0  0  0  0
   -1.3922   34.3032  -18.3994 N   0  0  0  0  0  0  0  0  0  0  0  0
   -3.5069   36.5251  -18.9864 N   0  0  0  0  0  0  0  0  0  0  0  0
   -4.6496   37.2563  -18.8496 C   0  0  0  0  0  0  0  0  0  0  0  0
   -5.3608   36.7339  -17.8420 N   0  0  0  0  0  0  0  0  0  0  0  0
  -12.0394   30.3060  -17.0452 N   0  0  0  0  0  0  0  0  0  0  0  0
  -12.3332   31.4477  -16.3695 C   0  0  0  0  0  0  0  0  0  0  0  0
  -11.6907   31.7209  -15.1948 N   0  0  0  0  0  0  0  0  0  0  0  0
  -10.7586   30.8585  -14.7070 C   0  0  0  0  0  0  0  0  0  0  0  0
  -10.4586   29.7259  -15.3745 C   0  0  0  0  0  0  0  0  0  0  0  0
  -11.1206   29.4536  -16.5682 C   0  0  0  0  0  0  0  0  0  0  0  0
  -10.9744   28.3072  -17.4281 N   0  0  0  0  0  0  0  0  0  0  0  0
   -9.5119   29.0727  -14.6589 N   0  0  0  0  0  0  0  0  0  0  0  0
   -9.2275   29.8137  -13.5499 C   0  0  0  0  0  0  0  0  0  0  0  0
  -10.0013   30.9172  -13.5904 N   0  0  0  0  0  0  0  0  0  0  0  0
  1  3  1  1  0  0  0
  1  5  2  0  0  0  0
  1  9  1  0  0  0  0
  1 18  1  0  0  0  0
  2  4  1  6  0  0  0
  2  6  2  0  0  0  0
  2 10  1  0  0  0  0
  2 17  1  0  0  0  0
  7  9  1  0  0  0  0
  8 10  1  0  0  0  0
 11  7  1  1  0  0  0
 11 13  1  0  0  0  0
 11 15  1  0  0  0  0
 12  8  1  6  0  0  0
 12 14  1  0  0  0  0
 12 16  1  0  0  0  0
 13 23  1  0  0  0  0
 14 24  1  0  0  0  0
 15 17  1  6  0  0  0
 15 19  1  0  0  0  0
 16 18  1  1  0  0  0
 16 20  1  0  0  0  0
 19 21  1  6  0  0  0
 19 23  1  0  0  0  0
 20 22  1  1  0  0  0
 20 24  1  0  0  0  0
 23 34  1  1  0  0  0
 24 44  1  6  0  0  0
 25 26  2  0  0  0  0
 25 30  1  0  0  0  0
 26 27  1  0  0  0  0
 27 28  2  0  0  0  0
 28 29  1  0  0  0  0
 28 34  1  0  0  0  0
 29 30  2  0  0  0  0
 29 32  1  0  0  0  0
 30 31  1  0  0  0  0
 32 33  2  0  0  0  0
 33 34  1  0  0  0  0
 35 36  2  0  0  0  0
 35 40  1  0  0  0  0
 36 37  1  0  0  0  0
 37 38  2  0  0  0  0
 38 39  1  0  0  0  0
 38 44  1  0  0  0  0
 39 40  2  0  0  0  0
 39 42  1  0  0  0  0
 40 41  1  0  0  0  0
 42 43  2  0  0  0  0
 43 44  1  0  0  0  0
M  CHG  2   3  -1   4  -1
M  END
>  <CHROM.1>
52.05035744,-6.45745891,-8.08544751,34.20729985,-15.37427952,-0.50271760
0.57562345,1.87117313

>  <Name>
ligand

>  <RI>
0

>  <Rbt.Current_Directory>
/home/itssahil/PROJECTS/Mol_Feturizer/New_Systems/rnas/4QLM

>  <Rbt.Executable>
rbdock ($Id: //depot/dev/client3/rdock/2013.1/src/exe/rbdock.cxx#4 $)

>  <Rbt.Library>
libRbt.so (2013.1, Build901 2013/11/27)

>  <Rbt.Parameter_File>
/export/apps/rDock/src/rDock_2013.1_src/data/scripts/dock_solv.prm

>  <Rbt.Receptor>
prm/pocket_docking_3.prm

>  <SCORE>
4.9085

>  <SCORE.INTER>
5.67402

>  <SCORE.INTER.CONST>
1

>  <SCORE.INTER.POLAR>
0

>  <SCORE.INTER.ROT>
2

>  <SCORE.INTER.SOLV>
33.6948

>  <SCORE.INTER.VDW>
-12.3823

>  <SCORE.INTER.norm>
0.128955

>  <SCORE.INTRA>
-1.13058

>  <SCORE.INTRA.DIHEDRAL>
0.107561

>  <SCORE.INTRA.DIHEDRAL.0>
2.32994

>  <SCORE.INTRA.POLAR>
0

>  <SCORE.INTRA.POLAR.0>
0

>  <SCORE.INTRA.REPUL>
0

>  <SCORE.INTRA.REPUL.0>
0

>  <SCORE.INTRA.SOLV>
0.508163

>  <SCORE.INTRA.SOLV.lig_0>
-117.703

>  <SCORE.INTRA.VDW>
-1.43844

>  <SCORE.INTRA.VDW.0>
-1.59997

>  <SCORE.INTRA.norm>
-0.025695

>  <SCORE.RESTR>
0.365057

>  <SCORE.RESTR.CAVITY>
0.365057

>  <SCORE.RESTR.norm>
0.00829676

>  <SCORE.SYSTEM>
0

>  <SCORE.SYSTEM.CONST>
0

>  <SCORE.SYSTEM.DIHEDRAL>
0

>  <SCORE.SYSTEM.SOLV>
0

>  <SCORE.SYSTEM.norm>
0

>  <SCORE.heavy>
44

>  <SCORE.norm>
0.111557

>  <RMSD>
2.305

$$$$
ligand
 OpenBabel11021811513D
libRbt.so/2013.1/901 2013/11/27
 44 50  0  0  0  0  0  0  0  0999 V2000
   -6.7844   35.1119  -12.6571 P   0  0  2  0  0  0  0  0  0  0  0  0
  -10.6378   35.2928  -16.4418 P   0  0  1  0  0  0  0  0  0  0  0  0
   -6.2312   36.3025  -11.8779 O   0  5  0  0  0  0  0  0  0  0  0  0
  -10.1471   34.3793  -17.5385 O   0  5  0  0  0  0  0  0  0  0  0  0
   -5.6871   34.0750  -12.6729 O   0  0  0  0  0  0  0  0  0  0  0  0
  -12.1254   35.5993  -16.7282 O   0  0  0  0  0  0  0  0  0  0  0  0
   -7.5177   37.0644  -14.1033 C   0  0  0  0  0  0  0  0  0  0  0  0
  -10.5584   35.2980  -13.8607 C   0  0  0  0  0  0  0  0  0  0  0  0
   -7.1394   35.6816  -14.0685 O   0  0  0  0  0  0  0  0  0  0  0  0
  -10.2573   34.5095  -15.0466 O   0  0  0  0  0  0  0  0  0  0  0  0
   -7.7894   37.4987  -15.5396 C   0  0  1  0  0  0  0  0  0  0  0  0
  -10.2712   34.3628  -12.6260 C   0  0  1  0  0  0  0  0  0  0  0  0
   -6.6585   37.8265  -16.0836 O   0  0  0  0  0  0  0  0  0  0  0  0
  -10.9084   33.2900  -12.8651 O   0  0  0  0  0  0  0  0  0  0  0  0
   -8.3783   36.3994  -16.3935 C   0  0  1  0  0  0  0  0  0  0  0  0
   -8.8042   33.8887  -12.6223 C   0  0  1  0  0  0  0  0  0  0  0  0
   -9.7165   36.6309  -16.4568 O   0  0  0  0  0  0  0  0  0  0  0  0
   -8.0684   34.5851  -11.7474 O   0  0  0  0  0  0  0  0  0  0  0  0
   -7.7186   36.6302  -17.7977 C   0  0  1  0  0  0  0  0  0  0  0  0
   -8.8183   32.3842  -12.2680 C   0  0  1  0  0  0  0  0  0  0  0  0
   -8.6776   37.3139  -18.7067 O   0  0  0  0  0  0  0  0  0  0  0  0
   -8.4258   32.1786  -10.8366 O   0  0  0  0  0  0  0  0  0  0  0  0
   -6.6670   37.3583  -17.5983 C   0  0  2  0  0  0  0  0  0  0  0  0
  -10.0412   32.0144  -12.4377 C   0  0  2  0  0  0  0  0  0  0  0  0
   -2.8830   33.6668  -16.6625 N   0  0  0  0  0  0  0  0  0  0  0  0
   -3.9586   33.9221  -15.8655 C   0  0  0  0  0  0  0  0  0  0  0  0
   -4.8732   34.8897  -16.1952 N   0  0  0  0  0  0  0  0  0  0  0  0
   -4.6936   35.6083  -17.3448 C   0  0  0  0  0  0  0  0  0  0  0  0
   -3.6368   35.3737  -18.1351 C   0  0  0  0  0  0  0  0  0  0  0  0
   -2.7173   34.3821  -17.7975 C   0  0  0  0  0  0  0  0  0  0  0  0
   -1.5697   34.0379  -18.5388 N   0  0  0  0  0  0  0  0  0  0  0  0
   -3.7135   36.2140  -19.1887 N   0  0  0  0  0  0  0  0  0  0  0  0
   -4.8318   36.9786  -19.0342 C   0  0  0  0  0  0  0  0  0  0  0  0
   -5.4467   36.5952  -17.9077 N   0  0  0  0  0  0  0  0  0  0  0  0
   -8.7425   30.2761  -17.1719 N   0  0  0  0  0  0  0  0  0  0  0  0
   -8.3063   31.4162  -16.5750 C   0  0  0  0  0  0  0  0  0  0  0  0
   -8.7512   31.7352  -15.3230 N   0  0  0  0  0  0  0  0  0  0  0  0
   -9.6210   30.9142  -14.6751 C   0  0  0  0  0  0  0  0  0  0  0  0
  -10.0546   29.7789  -15.2593 C   0  0  0  0  0  0  0  0  0  0  0  0
   -9.5995   29.4636  -16.5363 C   0  0  0  0  0  0  0  0  0  0  0  0
   -9.9415   28.3249  -17.3495 N   0  0  0  0  0  0  0  0  0  0  0  0
  -10.9014   29.1747  -14.3916 N   0  0  0  0  0  0  0  0  0  0  0  0
  -10.9815   29.9430  -13.2676 C   0  0  0  0  0  0  0  0  0  0  0  0
  -10.1839   31.0145  -13.4516 N   0  0  0  0  0  0  0  0  0  0  0  0
  1  3  1  1  0  0  0
  1  5  2  0  0  0  0
  1  9  1  0  0  0  0
  1 18  1  0  0  0  0
  2  4  1  6  0  0  0
  2  6  2  0  0  0  0
  2 10  1  0  0  0  0
  2 17  1  0  0  0  0
  7  9  1  0  0  0  0
  8 10  1  0  0  0  0
 11  7  1  1  0  0  0
 11 13  1  0  0  0  0
 11 15  1  0  0  0  0
 12  8  1  6  0  0  0
 12 14  1  0  0  0  0
 12 16  1  0  0  0  0
 13 23  1  0  0  0  0
 14 24  1  0  0  0  0
 15 17  1  6  0  0  0
 15 19  1  0  0  0  0
 16 18  1  1  0  0  0
 16 20  1  0  0  0  0
 19 21  1  6  0  0  0
 19 23  1  0  0  0  0
 20 22  1  1  0  0  0
 20 24  1  0  0  0  0
 23 34  1  1  0  0  0
 24 44  1  6  0  0  0
 25 26  2  0  0  0  0
 25 30  1  0  0  0  0
 26 27  1  0  0  0  0
 27 28  2  0  0  0  0
 28 29  1  0  0  0  0
 28 34  1  0  0  0  0
 29 30  2  0  0  0  0
 29 32  1  0  0  0  0
 30 31  1  0  0  0  0
 32 33  2  0  0  0  0
 33 34  1  0  0  0  0
 35 36  2  0  0  0  0
 35 40  1  0  0  0  0
 36 37  1  0  0  0  0
 37 38  2  0  0  0  0
 38 39  1  0  0  0  0
 38 44  1  0  0  0  0
 39 40  2  0  0  0  0
 39 42  1  0  0  0  0
 40 41  1  0  0  0  0
 42 43  2  0  0  0  0
 43 44  1  0  0  0  0
M  CHG  2   3  -1   4  -1
M  END
>  <CHROM.1>
44.52882075,77.03942978,-7.90557908,34.20563639,-15.34487951,0.43996347,0.72036418
0.28904128

>  <Name>
ligand

>  <RI>
0

>  <Rbt.Current_Directory>
/home/itssahil/PROJECTS/Mol_Feturizer/New_Systems/rnas/4QLM

>  <Rbt.Executable>
rbdock ($Id: //depot/dev/client3/rdock/2013.1/src/exe/rbdock.cxx#4 $)

>  <Rbt.Library>
libRbt.so (2013.1, Build901 2013/11/27)

>  <Rbt.Parameter_File>
/export/apps/rDock/src/rDock_2013.1_src/data/scripts/dock_solv.prm

>  <Rbt.Receptor>
prm/pocket_docking_2.prm

>  <SCORE>
6.32234

>  <SCORE.INTER>
4.81265

>  <SCORE.INTER.CONST>
1

>  <SCORE.INTER.POLAR>
0

>  <SCORE.INTER.ROT>
2

>  <SCORE.INTER.SOLV>
34.5219

>  <SCORE.INTER.VDW>
-13.2322

>  <SCORE.INTER.norm>
0.109378

>  <SCORE.INTRA>
-1.68344

>  <SCORE.INTRA.DIHEDRAL>
0.147677

>  <SCORE.INTRA.DIHEDRAL.0>
2.32994

>  <SCORE.INTRA.POLAR>
0

>  <SCORE.INTRA.POLAR.0>
0

>  <SCORE.INTRA.REPUL>
0

>  <SCORE.INTRA.REPUL.0>
0

>  <SCORE.INTRA.SOLV>
0.61192

>  <SCORE.INTRA.SOLV.lig_0>
-117.703

>  <SCORE.INTRA.VDW>
-2.06324

>  <SCORE.INTRA.VDW.0>
-1.59997

>  <SCORE.INTRA.norm>
-0.0382601

>  <SCORE.RESTR>
3.19313

>  <SCORE.RESTR.CAVITY>
3.19313

>  <SCORE.RESTR.norm>
0.0725712

>  <SCORE.SYSTEM>
0

>  <SCORE.SYSTEM.CONST>
0

>  <SCORE.SYSTEM.DIHEDRAL>
0

>  <SCORE.SYSTEM.SOLV>
0

>  <SCORE.SYSTEM.norm>
0

>  <SCORE.heavy>
44

>  <SCORE.norm>
0.14369

>  <RMSD>
2.354

$$$$
ligand
 OpenBabel11021811513D
libRbt.so/2013.1/901 2013/11/27
 44 50  0  0  0  0  0  0  0  0999 V2000
   -8.5915   36.8872  -15.4759 P   0  0  2  0  0  0  0  0  0  0  0  0
   -4.1781   35.4169  -12.7254 P   0  0  1  0  0  0  0  0  0  0  0  0
   -9.8922   37.4148  -14.8757 O   0  5  0  0  0  0  0  0  0  0  0  0
   -3.7163   34.1412  -13.3867 O   0  5  0  0  0  0  0  0  0  0  0  0
   -8.9642   36.2591  -16.7974 O   0  0  0  0  0  0  0  0  0  0  0  0
   -3.0339   35.8994  -11.8050 O   0  0  0  0  0  0  0  0  0  0  0  0
   -8.3854   36.1451  -13.0577 C   0  0  0  0  0  0  0  0  0  0  0  0
   -5.2264   37.6400  -13.5174 C   0  0  0  0  0  0  0  0  0  0  0  0
   -8.0427   35.8711  -14.4228 O   0  0  0  0  0  0  0  0  0  0  0  0
   -4.6396   36.3874  -13.9704 O   0  0  0  0  0  0  0  0  0  0  0  0
   -7.8289   35.0554  -12.1475 C   0  0  1  0  0  0  0  0  0  0  0  0
   -5.4807   38.5004  -14.8122 C   0  0  1  0  0  0  0  0  0  0  0  0
   -8.6748   34.0723  -12.1299 O   0  0  0  0  0  0  0  0  0  0  0  0
   -4.3749   38.4962  -15.4377 O   0  0  0  0  0  0  0  0  0  0  0  0
   -6.5147   34.4876  -12.6320 C   0  0  1  0  0  0  0  0  0  0  0  0
   -6.4214   37.7650  -15.7875 C   0  0  1  0  0  0  0  0  0  0  0  0
   -5.5385   35.0878  -11.9005 O   0  0  0  0  0  0  0  0  0  0  0  0
   -7.6690   38.2451  -15.7179 O   0  0  0  0  0  0  0  0  0  0  0  0
   -6.6130   32.9659  -12.2645 C   0  0  1  0  0  0  0  0  0  0  0  0
   -5.8311   37.9459  -17.2046 C   0  0  1  0  0  0  0  0  0  0  0  0
   -5.8302   32.6867  -11.0306 O   0  0  0  0  0  0  0  0  0  0  0  0
   -6.5901   38.9946  -17.9592 O   0  0  0  0  0  0  0  0  0  0  0  0
   -7.8690   32.7076  -12.0870 C   0  0  2  0  0  0  0  0  0  0  0  0
   -4.6205   38.3438  -17.0119 C   0  0  2  0  0  0  0  0  0  0  0  0
   -8.8201   31.1639  -17.1401 N   0  0  0  0  0  0  0  0  0  0  0  0
   -8.2038   32.3200  -16.7650 C   0  0  0  0  0  0  0  0  0  0  0  0
   -8.0064   32.6227  -15.4418 N   0  0  0  0  0  0  0  0  0  0  0  0
   -8.4413   31.7443  -14.4881 C   0  0  0  0  0  0  0  0  0  0  0  0
   -9.0556   30.6066  -14.8414 C   0  0  0  0  0  0  0  0  0  0  0  0
   -9.2438   30.3023  -16.1885 C   0  0  0  0  0  0  0  0  0  0  0  0
   -9.8715   29.1451  -16.6903 N   0  0  0  0  0  0  0  0  0  0  0  0
   -9.3689   29.9375  -13.7116 N   0  0  0  0  0  0  0  0  0  0  0  0
   -8.9449   30.6834  -12.6518 C   0  0  0  0  0  0  0  0  0  0  0  0
   -8.3575   31.7889  -13.1284 N   0  0  0  0  0  0  0  0  0  0  0  0
   -2.9235   33.4412  -17.4652 N   0  0  0  0  0  0  0  0  0  0  0  0
   -4.0192   33.8638  -16.7816 C   0  0  0  0  0  0  0  0  0  0  0  0
   -4.3255   35.1952  -16.7543 N   0  0  0  0  0  0  0  0  0  0  0  0
   -3.5422   36.0922  -17.4118 C   0  0  0  0  0  0  0  0  0  0  0  0
   -2.4560   35.6796  -18.0960 C   0  0  0  0  0  0  0  0  0  0  0  0
   -2.1491   34.3221  -18.1153 C   0  0  0  0  0  0  0  0  0  0  0  0
   -1.0391   33.6673  -18.7589 N   0  0  0  0  0  0  0  0  0  0  0  0
   -1.8775   36.7779  -18.6382 N   0  0  0  0  0  0  0  0  0  0  0  0
   -2.6181   37.8681  -18.2876 C   0  0  0  0  0  0  0  0  0  0  0  0
   -3.6467   37.4332  -17.5320 N   0  0  0  0  0  0  0  0  0  0  0  0
  1  3  1  1  0  0  0
  1  5  2  0  0  0  0
  1  9  1  0  0  0  0
  1 18  1  0  0  0  0
  2  4  1  6  0  0  0
  2  6  2  0  0  0  0
  2 10  1  0  0  0  0
  2 17  1  0  0  0  0
  7  9  1  0  0  0  0
  8 10  1  0  0  0  0
 11  7  1  6  0  0  0
 11 13  1  0  0  0  0
 11 15  1  0  0  0  0
 12  8  1  1  0  0  0
 12 14  1  0  0  0  0
 12 16  1  0  0  0  0
 13 23  1  0  0  0  0
 14 24  1  0  0  0  0
 15 17  1  1  0  0  0
 15 19  1  0  0  0  0
 16 18  1  6  0  0  0
 16 20  1  0  0  0  0
 19 21  1  1  0  0  0
 19 23  1  0  0  0  0
 20 22  1  6  0  0  0
 20 24  1  0  0  0  0
 23 34  1  6  0  0  0
 24 44  1  1  0  0  0
 25 26  2  0  0  0  0
 25 30  1  0  0  0  0
 26 27  1  0  0  0  0
 27 28  2  0  0  0  0
 28 29  1  0  0  0  0
 28 34  1  0  0  0  0
 29 30  2  0  0  0  0
 29 32  1  0  0  0  0
 30 31  1  0  0  0  0
 32 33  2  0  0  0  0
 33 34  1  0  0  0  0
 35 36  2  0  0  0  0
 35 40  1  0  0  0  0
 36 37  1  0  0  0  0
 37 38  2  0  0  0  0
 38 39  1  0  0  0  0
 38 44  1  0  0  0  0
 39 40  2  0  0  0  0
 39 42  1  0  0  0  0
 40 41  1  0  0  0  0
 42 43  2  0  0  0  0
 43 44  1  0  0  0  0
M  CHG  2   3  -1   4  -1
M  END
>  <CHROM.1>
62.18488999,73.08502250,-6.19598987,34.96971641,-15.03994079,2.61744997,-0.75854189
-2.79149133

>  <Name>
ligand

>  <RI>
0

>  <Rbt.Current_Directory>
/home/itssahil/PROJECTS/Mol_Feturizer/New_Systems/rnas/4QLM

>  <Rbt.Executable>
rbdock ($Id: //depot/dev/client3/rdock/2013.1/src/exe/rbdock.cxx#4 $)

>  <Rbt.Library>
libRbt.so (2013.1, Build901 2013/11/27)

>  <Rbt.Parameter_File>
/export/apps/rDock/src/rDock_2013.1_src/data/scripts/dock_solv.prm

>  <Rbt.Receptor>
prm/pocket_docking_3.prm

>  <SCORE>
1.11307

>  <SCORE.INTER>
2.54231

>  <SCORE.INTER.CONST>
1

>  <SCORE.INTER.POLAR>
0

>  <SCORE.INTER.ROT>
2

>  <SCORE.INTER.SOLV>
32.4623

>  <SCORE.INTER.VDW>
-14.0592

>  <SCORE.INTER.norm>
0.0577799

>  <SCORE.INTRA>
-1.86604

>  <SCORE.INTRA.DIHEDRAL>
0.0558921

>  <SCORE.INTRA.DIHEDRAL.0>
2.32994

>  <SCORE.INTRA.POLAR>
0

>  <SCORE.INTRA.POLAR.0>
0

>  <SCORE.INTRA.REPUL>
0

>  <SCORE.INTRA.REPUL.0>
0

>  <SCORE.INTRA.SOLV>
0.480752

>  <SCORE.INTRA.SOLV.lig_0>
-117.703

>  <SCORE.INTRA.VDW>
-2.13436

>  <SCORE.INTRA.VDW.0>
-1.59997

>  <SCORE.INTRA.norm>
-0.04241

>  <SCORE.RESTR>
0.436801

>  <SCORE.RESTR.CAVITY>
0.436801

>  <SCORE.RESTR.norm>
0.0099273

>  <SCORE.SYSTEM>
0

>  <SCORE.SYSTEM.CONST>
0

>  <SCORE.SYSTEM.DIHEDRAL>
0

>  <SCORE.SYSTEM.SOLV>
0

>  <SCORE.SYSTEM.norm>
0

>  <SCORE.heavy>
44

>  <SCORE.norm>
0.0252971

>  <RMSD>
2.613

$$$$
ligand
 OpenBabel11021811513D
libRbt.so/2013.1/901 2013/11/27
 44 50  0  0  0  0  0  0  0  0999 V2000
  -10.9788   34.6678  -15.3860 P   0  0  2  0  0  0  0  0  0  0  0  0
   -6.2669   33.9299  -12.8445 P   0  0  1  0  0  0  0  0  0  0  0  0
  -12.3384   34.8688  -14.7214 O   0  5  0  0  0  0  0  0  0  0  0  0
   -5.5780   32.8311  -13.6166 O   0  5  0  0  0  0  0  0  0  0  0  0
  -11.2608   34.0800  -16.7478 O   0  0  0  0  0  0  0  0  0  0  0  0
   -5.2141   34.5653  -11.9080 O   0  0  0  0  0  0  0  0  0  0  0  0
  -10.5432   33.8003  -13.0410 C   0  0  0  0  0  0  0  0  0  0  0  0
   -7.7725   35.9439  -13.4322 C   0  0  0  0  0  0  0  0  0  0  0  0
  -10.1988   33.7084  -14.4300 O   0  0  0  0  0  0  0  0  0  0  0  0
   -6.9587   34.8775  -13.9971 O   0  0  0  0  0  0  0  0  0  0  0  0
   -9.7457   32.7818  -12.2336 C   0  0  1  0  0  0  0  0  0  0  0  0
   -8.2408   36.8306  -14.6471 C   0  0  1  0  0  0  0  0  0  0  0  0
  -10.3726   31.6473  -12.2819 O   0  0  0  0  0  0  0  0  0  0  0  0
   -7.1794   37.1020  -15.2904 O   0  0  0  0  0  0  0  0  0  0  0  0
   -8.3608   32.5354  -12.7864 C   0  0  1  0  0  0  0  0  0  0  0  0
   -9.0448   35.9945  -15.6628 C   0  0  1  0  0  0  0  0  0  0  0  0
   -7.5028   33.2655  -12.0255 O   0  0  0  0  0  0  0  0  0  0  0  0
  -10.3609   36.2009  -15.5318 O   0  0  0  0  0  0  0  0  0  0  0  0
   -8.1345   31.0024  -12.5436 C   0  0  1  0  0  0  0  0  0  0  0  0
   -8.5526   36.4014  -17.0705 C   0  0  1  0  0  0  0  0  0  0  0  0
   -7.2695   30.7961  -11.3509 O   0  0  0  0  0  0  0  0  0  0  0  0
   -9.5347   37.3263  -17.7226 O   0  0  0  0  0  0  0  0  0  0  0  0
   -9.3048   30.4784  -12.3657 C   0  0  2  0  0  0  0  0  0  0  0  0
   -7.4426   37.0239  -16.8672 C   0  0  2  0  0  0  0  0  0  0  0  0
  -11.3676   29.1840  -17.1502 N   0  0  0  0  0  0  0  0  0  0  0  0
  -11.3570   30.4309  -16.6004 C   0  0  0  0  0  0  0  0  0  0  0  0
  -10.8018   30.6586  -15.3669 N   0  0  0  0  0  0  0  0  0  0  0  0
  -10.2535   29.6094  -14.6821 C   0  0  0  0  0  0  0  0  0  0  0  0
  -10.2628   28.3761  -15.2067 C   0  0  0  0  0  0  0  0  0  0  0  0
  -10.8206   28.1552  -16.4648 C   0  0  0  0  0  0  0  0  0  0  0  0
  -10.8935   26.9129  -17.1255 N   0  0  0  0  0  0  0  0  0  0  0  0
   -9.6587   27.5482  -14.3281 N   0  0  0  0  0  0  0  0  0  0  0  0
   -9.2814   28.2882  -13.2468 C   0  0  0  0  0  0  0  0  0  0  0  0
   -9.6313   29.5616  -13.4703 N   0  0  0  0  0  0  0  0  0  0  0  0
   -2.7032   34.9283  -16.3501 N   0  0  0  0  0  0  0  0  0  0  0  0
   -3.4538   35.4964  -15.3701 C   0  0  0  0  0  0  0  0  0  0  0  0
   -4.6829   36.0105  -15.6738 N   0  0  0  0  0  0  0  0  0  0  0  0
   -5.1553   35.9494  -16.9480 C   0  0  0  0  0  0  0  0  0  0  0  0
   -4.4179   35.3831  -17.9247 C   0  0  0  0  0  0  0  0  0  0  0  0
   -3.1655   34.8655  -17.6073 C   0  0  0  0  0  0  0  0  0  0  0  0
   -2.2100   34.2399  -18.4852 N   0  0  0  0  0  0  0  0  0  0  0  0
   -5.1325   35.4677  -19.0724 N   0  0  0  0  0  0  0  0  0  0  0  0
   -6.3165   36.0847  -18.7942 C   0  0  0  0  0  0  0  0  0  0  0  0
   -6.3221   36.3758  -17.4777 N   0  0  0  0  0  0  0  0  0  0  0  0
  1  3  1  1  0  0  0
  1  5  2  0  0  0  0
  1  9  1  0  0  0  0
  1 18  1  0  0  0  0
  2  4  1  6  0  0  0
  2  6  2  0  0  0  0
  2 10  1  0  0  0  0
  2 17  1  0  0  0  0
  7  9  1  0  0  0  0
  8 10  1  0  0  0  0
 11  7  1  6  0  0  0
 11 13  1  0  0  0  0
 11 15  1  0  0  0  0
 12  8  1  1  0  0  0
 12 14  1  0  0  0  0
 12 16  1  0  0  0  0
 13 23  1  0  0  0  0
 14 24  1  0  0  0  0
 15 17  1  1  0  0  0
 15 19  1  0  0  0  0
 16 18  1  6  0  0  0
 16 20  1  0  0  0  0
 19 21  1  1  0  0  0
 19 23  1  0  0  0  0
 20 22  1  1  0  0  0
 20 24  1  0  0  0  0
 23 34  1  6  0  0  0
 24 44  1  6  0  0  0
 25 26  2  0  0  0  0
 25 30  1  0  0  0  0
 26 27  1  0  0  0  0
 27 28  2  0  0  0  0
 28 29  1  0  0  0  0
 28 34  1  0  0  0  0
 29 30  2  0  0  0  0
 29 32  1  0  0  0  0
 30 31  1  0  0  0  0
 32 33  2  0  0  0  0
 33 34  1  0  0  0  0
 35 36  2  0  0  0  0
 35 40  1  0  0  0  0
 36 37  1  0  0  0  0
 37 38  2  0  0  0  0
 38 39  1  0  0  0  0
 38 44  1  0  0  0  0
 39 40  2  0  0  0  0
 39 42  1  0  0  0  0
 40 41  1  0  0  0  0
 42 43  2  0  0  0  0
 43 44  1  0  0  0  0
M  CHG  2   3  -1   4  -1
M  END
>  <CHROM.1>
28.65271391,-4.58750861,-8.15404138,33.43172142,-15.01745494,2.23151369,0.22046911
2.64202448

>  <Name>
ligand

>  <RI>
0

>  <Rbt.Current_Directory>
/home/itssahil/PROJECTS/Mol_Feturizer/New_Systems/rnas/4QLM

>  <Rbt.Executable>
rbdock ($Id: //depot/dev/client3/rdock/2013.1/src/exe/rbdock.cxx#4 $)

>  <Rbt.Library>
libRbt.so (2013.1, Build901 2013/11/27)

>  <Rbt.Parameter_File>
/export/apps/rDock/src/rDock_2013.1_src/data/scripts/dock_solv.prm

>  <Rbt.Receptor>
prm/pocket_docking_2.prm

>  <SCORE>
16.1702

>  <SCORE.INTER>
12.9534

>  <SCORE.INTER.CONST>
1

>  <SCORE.INTER.POLAR>
0

>  <SCORE.INTER.ROT>
2

>  <SCORE.INTER.SOLV>
35.8749

>  <SCORE.INTER.VDW>
-8.25601

>  <SCORE.INTER.norm>
0.294396

>  <SCORE.INTRA>
-1.035

>  <SCORE.INTRA.DIHEDRAL>
0.177375

>  <SCORE.INTRA.DIHEDRAL.0>
2.32994

>  <SCORE.INTRA.POLAR>
0

>  <SCORE.INTRA.POLAR.0>
0

>  <SCORE.INTRA.REPUL>
0

>  <SCORE.INTRA.REPUL.0>
0

>  <SCORE.INTRA.SOLV>
0.739398

>  <SCORE.INTRA.SOLV.lig_0>
-117.703

>  <SCORE.INTRA.VDW>
-1.49339

>  <SCORE.INTRA.VDW.0>
-1.59997

>  <SCORE.INTRA.norm>
-0.0235228

>  <SCORE.RESTR>
4.25181

>  <SCORE.RESTR.CAVITY>
4.25181

>  <SCORE.RESTR.norm>
0.096632

>  <SCORE.SYSTEM>
0

>  <SCORE.SYSTEM.CONST>
0

>  <SCORE.SYSTEM.DIHEDRAL>
0

>  <SCORE.SYSTEM.SOLV>
0

>  <SCORE.SYSTEM.norm>
0

>  <SCORE.heavy>
44

>  <SCORE.norm>
0.367505

>  <RMSD>
2.684

$$$$
ligand
 OpenBabel11021811513D
libRbt.so/2013.1/901 2013/11/27
 44 50  0  0  0  0  0  0  0  0999 V2000
  -11.5254   34.4697  -15.6764 P   0  0  2  0  0  0  0  0  0  0  0  0
   -6.8896   34.3602  -12.9010 P   0  0  1  0  0  0  0  0  0  0  0  0
  -12.9271   34.5874  -15.0834 O   0  5  0  0  0  0  0  0  0  0  0  0
   -6.0679   33.2801  -13.5614 O   0  5  0  0  0  0  0  0  0  0  0  0
  -11.6886   33.7639  -17.0011 O   0  0  0  0  0  0  0  0  0  0  0  0
   -5.9441   35.1563  -11.9729 O   0  0  0  0  0  0  0  0  0  0  0  0
  -11.1223   33.8136  -13.2581 C   0  0  0  0  0  0  0  0  0  0  0  0
   -8.5438   36.1768  -13.6960 C   0  0  0  0  0  0  0  0  0  0  0  0
  -10.7065   33.6577  -14.6216 O   0  0  0  0  0  0  0  0  0  0  0  0
   -7.6105   35.1551  -14.1474 O   0  0  0  0  0  0  0  0  0  0  0  0
  -10.2736   32.9341  -12.3462 C   0  0  1  0  0  0  0  0  0  0  0  0
   -9.0340   36.9279  -14.9910 C   0  0  1  0  0  0  0  0  0  0  0  0
  -10.7913   31.7449  -12.3353 O   0  0  0  0  0  0  0  0  0  0  0  0
   -7.9729   37.2527  -15.6097 O   0  0  0  0  0  0  0  0  0  0  0  0
   -8.8477   32.7816  -12.8235 C   0  0  1  0  0  0  0  0  0  0  0  0
   -9.7099   35.9506  -15.9733 C   0  0  1  0  0  0  0  0  0  0  0  0
   -8.0964   33.6411  -12.0850 O   0  0  0  0  0  0  0  0  0  0  0  0
  -11.0441   36.0404  -15.9106 O   0  0  0  0  0  0  0  0  0  0  0  0
   -8.4939   31.2976  -12.4589 C   0  0  1  0  0  0  0  0  0  0  0  0
   -9.1918   36.3025  -17.3864 C   0  0  1  0  0  0  0  0  0  0  0  0
   -7.6702   31.2581  -11.2206 O   0  0  0  0  0  0  0  0  0  0  0  0
  -10.2227   37.0826  -18.1440 O   0  0  0  0  0  0  0  0  0  0  0  0
   -9.6184   30.6791  -12.2896 C   0  0  2  0  0  0  0  0  0  0  0  0
   -8.1539   37.0398  -17.1856 C   0  0  2  0  0  0  0  0  0  0  0  0
   -9.3392   28.7473  -17.2907 N   0  0  0  0  0  0  0  0  0  0  0  0
   -8.8940   29.9697  -16.8850 C   0  0  0  0  0  0  0  0  0  0  0  0
   -9.0111   30.3705  -15.5784 N   0  0  0  0  0  0  0  0  0  0  0  0
   -9.5885   29.5231  -14.6736 C   0  0  0  0  0  0  0  0  0  0  0  0
  -10.0376   28.3205  -15.0591 C   0  0  0  0  0  0  0  0  0  0  0  0
   -9.9062   27.9173  -16.3868 C   0  0  0  0  0  0  0  0  0  0  0  0
  -10.3347   26.6849  -16.9183 N   0  0  0  0  0  0  0  0  0  0  0  0
  -10.5484   27.7021  -13.9733 N   0  0  0  0  0  0  0  0  0  0  0  0
  -10.4148   28.5449  -12.9097 C   0  0  0  0  0  0  0  0  0  0  0  0
   -9.8079   29.6605  -13.3354 N   0  0  0  0  0  0  0  0  0  0  0  0
   -2.9936   37.3446  -17.8170 N   0  0  0  0  0  0  0  0  0  0  0  0
   -3.7929   38.2508  -17.1955 C   0  0  0  0  0  0  0  0  0  0  0  0
   -5.1384   38.0243  -17.1202 N   0  0  0  0  0  0  0  0  0  0  0  0
   -5.6744   36.8960  -17.6590 C   0  0  0  0  0  0  0  0  0  0  0  0
   -4.8868   35.9902  -18.2733 C   0  0  0  0  0  0  0  0  0  0  0  0
   -3.5180   36.2308  -18.3488 C   0  0  0  0  0  0  0  0  0  0  0  0
   -2.5022   35.4186  -18.9680 N   0  0  0  0  0  0  0  0  0  0  0  0
   -5.6863   34.9866  -18.7075 N   0  0  0  0  0  0  0  0  0  0  0  0
   -6.9701   35.2784  -18.3515 C   0  0  0  0  0  0  0  0  0  0  0  0
   -6.9517   36.4594  -17.7011 N   0  0  0  0  0  0  0  0  0  0  0  0
  1  3  1  1  0  0  0
  1  5  2  0  0  0  0
  1  9  1  0  0  0  0
  1 18  1  0  0  0  0
  2  4  1  6  0  0  0
  2  6  2  0  0  0  0
  2 10  1  0  0  0  0
  2 17  1  0  0  0  0
  7  9  1  0  0  0  0
  8 10  1  0  0  0  0
 11  7  1  6  0  0  0
 11 13  1  0  0  0  0
 11 15  1  0  0  0  0
 12  8  1  1  0  0  0
 12 14  1  0  0  0  0
 12 16  1  0  0  0  0
 13 23  1  0  0  0  0
 14 24  1  0  0  0  0
 15 17  1  1  0  0  0
 15 19  1  0  0  0  0
 16 18  1  6  0  0  0
 16 20  1  0  0  0  0
 19 21  1  1  0  0  0
 19 23  1  0  0  0  0
 20 22  1  6  0  0  0
 20 24  1  0  0  0  0
 23 34  1  6  0  0  0
 24 44  1  1  0  0  0
 25 26  2  0  0  0  0
 25 30  1  0  0  0  0
 26 27  1  0  0  0  0
 27 28  2  0  0  0  0
 28 29  1  0  0  0  0
 28 34  1  0  0  0  0
 29 30  2  0  0  0  0
 29 32  1  0  0  0  0
 30 31  1  0  0  0  0
 32 33  2  0  0  0  0
 33 34  1  0  0  0  0
 35 36  2  0  0  0  0
 35 40  1  0  0  0  0
 36 37  1  0  0  0  0
 37 38  2  0  0  0  0
 38 39  1  0  0  0  0
 38 44  1  0  0  0  0
 39 40  2  0  0  0  0
 39 42  1  0  0  0  0
 40 41  1  0  0  0  0
 42 43  2  0  0  0  0
 43 44  1  0  0  0  0
M  CHG  2   3  -1   4  -1
M  END
>  <CHROM.1>
80.55560558,-57.64416021,-8.46407951,33.67641219,-15.23836379,2.17086217
-0.49398993,3.03129002

>  <Name>
ligand

>  <RI>
0

>  <Rbt.Current_Directory>
/home/itssahil/PROJECTS/Mol_Feturizer/New_Systems/rnas/4QLM

>  <Rbt.Executable>
rbdock ($Id: //depot/dev/client3/rdock/2013.1/src/exe/rbdock.cxx#4 $)

>  <Rbt.Library>
libRbt.so (2013.1, Build901 2013/11/27)

>  <Rbt.Parameter_File>
/export/apps/rDock/src/rDock_2013.1_src/data/scripts/dock_solv.prm

>  <Rbt.Receptor>
prm/pocket_docking_3.prm

>  <SCORE>
-0.509835

>  <SCORE.INTER>
-2.59107

>  <SCORE.INTER.CONST>
1

>  <SCORE.INTER.POLAR>
0

>  <SCORE.INTER.ROT>
2

>  <SCORE.INTER.SOLV>
29.6221

>  <SCORE.INTER.VDW>
-16.5347

>  <SCORE.INTER.norm>
-0.058888

>  <SCORE.INTRA>
1.22749

>  <SCORE.INTRA.DIHEDRAL>
-0.0247942

>  <SCORE.INTRA.DIHEDRAL.0>
2.32994

>  <SCORE.INTRA.POLAR>
0

>  <SCORE.INTRA.POLAR.0>
0

>  <SCORE.INTRA.REPUL>
0

>  <SCORE.INTRA.REPUL.0>
0

>  <SCORE.INTRA.SOLV>
0.0579897

>  <SCORE.INTRA.SOLV.lig_0>
-117.703

>  <SCORE.INTRA.VDW>
1.21089

>  <SCORE.INTRA.VDW.0>
-1.59997

>  <SCORE.INTRA.norm>
0.0278975

>  <SCORE.RESTR>
0.853747

>  <SCORE.RESTR.CAVITY>
0.853747

>  <SCORE.RESTR.norm>
0.0194033

>  <SCORE.SYSTEM>
0

>  <SCORE.SYSTEM.CONST>
0

>  <SCORE.SYSTEM.DIHEDRAL>
0

>  <SCORE.SYSTEM.SOLV>
0

>  <SCORE.SYSTEM.norm>
0

>  <SCORE.heavy>
44

>  <SCORE.norm>
-0.0115872

>  <RMSD>
2.800

$$$$
ligand
 OpenBabel11021811513D
libRbt.so/2013.1/901 2013/11/27
 44 50  0  0  0  0  0  0  0  0999 V2000
   -3.5495   35.9397  -13.0733 P   0  0  2  0  0  0  0  0  0  0  0  0
   -8.0933   36.8646  -15.8489 P   0  0  1  0  0  0  0  0  0  0  0  0
   -2.6271   37.0001  -12.4772 O   0  5  0  0  0  0  0  0  0  0  0  0
   -8.0443   35.8970  -17.0062 O   0  5  0  0  0  0  0  0  0  0  0  0
   -2.6875   34.7250  -13.3198 O   0  0  0  0  0  0  0  0  0  0  0  0
   -9.5284   37.4350  -15.7853 O   0  0  0  0  0  0  0  0  0  0  0  0
   -4.2473   38.0152  -14.3566 C   0  0  0  0  0  0  0  0  0  0  0  0
   -7.4073   36.8125  -13.3600 C   0  0  0  0  0  0  0  0  0  0  0  0
   -4.1214   36.5869  -14.3759 O   0  0  0  0  0  0  0  0  0  0  0  0
   -7.5385   36.0030  -14.5625 O   0  0  0  0  0  0  0  0  0  0  0  0
   -4.7694   38.5147  -15.6995 C   0  0  1  0  0  0  0  0  0  0  0  0
   -7.0064   35.8207  -12.2036 C   0  0  1  0  0  0  0  0  0  0  0  0
   -3.7593   38.6458  -16.5025 O   0  0  0  0  0  0  0  0  0  0  0  0
   -7.8608   34.8821  -12.2583 O   0  0  0  0  0  0  0  0  0  0  0  0
   -5.7276   37.5518  -16.3621 C   0  0  1  0  0  0  0  0  0  0  0  0
   -5.6872   35.0938  -12.5328 C   0  0  1  0  0  0  0  0  0  0  0  0
   -6.9805   38.0181  -16.1149 O   0  0  0  0  0  0  0  0  0  0  0  0
   -4.6547   35.6340  -11.8738 O   0  0  0  0  0  0  0  0  0  0  0  0
   -5.3878   37.6853  -17.8875 C   0  0  1  0  0  0  0  0  0  0  0  0
   -5.8823   33.6100  -12.1462 C   0  0  1  0  0  0  0  0  0  0  0  0
   -6.3983   38.5434  -18.5629 O   0  0  0  0  0  0  0  0  0  0  0  0
   -5.2056   33.3141  -10.8424 O   0  0  0  0  0  0  0  0  0  0  0  0
   -4.2075   38.2118  -17.9600 C   0  0  2  0  0  0  0  0  0  0  0  0
   -7.1562   33.4660  -12.0139 C   0  0  2  0  0  0  0  0  0  0  0  0
   -1.8353   33.4172  -18.4137 N   0  0  0  0  0  0  0  0  0  0  0  0
   -2.8615   33.7194  -17.5694 C   0  0  0  0  0  0  0  0  0  0  0  0
   -3.4012   34.9798  -17.5302 N   0  0  0  0  0  0  0  0  0  0  0  0
   -2.8927   35.9454  -18.3545 C   0  0  0  0  0  0  0  0  0  0  0  0
   -1.8788   35.6652  -19.1850 C   0  0  0  0  0  0  0  0  0  0  0  0
   -1.3424   34.3793  -19.2254 C   0  0  0  0  0  0  0  0  0  0  0  0
   -0.2807   33.9566  -20.0495 N   0  0  0  0  0  0  0  0  0  0  0  0
   -1.5865   36.7882  -19.8746 N   0  0  0  0  0  0  0  0  0  0  0  0
   -2.4316   37.7712  -19.4520 C   0  0  0  0  0  0  0  0  0  0  0  0
   -3.2489   37.2496  -18.5278 N   0  0  0  0  0  0  0  0  0  0  0  0
   -9.9734   32.5891  -16.3052 N   0  0  0  0  0  0  0  0  0  0  0  0
   -9.7008   33.7955  -15.7424 C   0  0  0  0  0  0  0  0  0  0  0  0
   -8.9471   33.8542  -14.6041 N   0  0  0  0  0  0  0  0  0  0  0  0
   -8.4675   32.7129  -14.0402 C   0  0  0  0  0  0  0  0  0  0  0  0
   -8.7302   31.5126  -14.5957 C   0  0  0  0  0  0  0  0  0  0  0  0
   -9.5019   31.4617  -15.7529 C   0  0  0  0  0  0  0  0  0  0  0  0
   -9.9178   30.3009  -16.4977 N   0  0  0  0  0  0  0  0  0  0  0  0
   -8.1342   30.5708  -13.8258 N   0  0  0  0  0  0  0  0  0  0  0  0
   -7.4986   31.2001  -12.7962 C   0  0  0  0  0  0  0  0  0  0  0  0
   -7.7082   32.5243  -12.9395 N   0  0  0  0  0  0  0  0  0  0  0  0
  1  3  1  1  0  0  0
  1  5  2  0  0  0  0
  1  9  1  0  0  0  0
  1 18  1  0  0  0  0
  2  4  1  6  0  0  0
  2  6  2  0  0  0  0
  2 10  1  0  0  0  0
  2 17  1  0  0  0  0
  7  9  1  0  0  0  0
  8 10  1  0  0  0  0
 11  7  1  1  0  0  0
 11 13  1  0  0  0  0
 11 15  1  0  0  0  0
 12  8  1  6  0  0  0
 12 14  1  0  0  0  0
 12 16  1  0  0  0  0
 13 23  1  0  0  0  0
 14 24  1  0  0  0  0
 15 17  1  6  0  0  0
 15 19  1  0  0  0  0
 16 18  1  1  0  0  0
 16 20  1  0  0  0  0
 19 21  1  6  0  0  0
 19 23  1  0  0  0  0
 20 22  1  1  0  0  0
 20 24  1  0  0  0  0
 23 34  1  1  0  0  0
 24 44  1  6  0  0  0
 25 26  2  0  0  0  0
 25 30  1  0  0  0  0
 26 27  1  0  0  0  0
 27 28  2  0  0  0  0
 28 29  1  0  0  0  0
 28 34  1  0  0  0  0
 29 30  2  0  0  0  0
 29 32  1  0  0  0  0
 30 31  1  0  0  0  0
 32 33  2  0  0  0  0
 33 34  1  0  0  0  0
 35 36  2  0  0  0  0
 35 40  1  0  0  0  0
 36 37  1  0  0  0  0
 37 38  2  0  0  0  0
 38 39  1  0  0  0  0
 38 44  1  0  0  0  0
 39 40  2  0  0  0  0
 39 42  1  0  0  0  0
 40 41  1  0  0  0  0
 42 43  2  0  0  0  0
 43 44  1  0  0  0  0
M  CHG  2   3  -1   4  -1
M  END
>  <CHROM.1>
72.28349979,13.45581149,-5.67249595,35.33432743,-15.39103413,-0.63152632
0.52821683,1.62242605

>  <Name>
ligand

>  <RI>
0

>  <Rbt.Current_Directory>
/home/itssahil/PROJECTS/Mol_Feturizer/New_Systems/rnas/4QLM

>  <Rbt.Executable>
rbdock ($Id: //depot/dev/client3/rdock/2013.1/src/exe/rbdock.cxx#4 $)

>  <Rbt.Library>
libRbt.so (2013.1, Build901 2013/11/27)

>  <Rbt.Parameter_File>
/export/apps/rDock/src/rDock_2013.1_src/data/scripts/dock_solv.prm

>  <Rbt.Receptor>
prm/pocket_docking_3.prm

>  <SCORE>
-3.66422

>  <SCORE.INTER>
-3.81467

>  <SCORE.INTER.CONST>
1

>  <SCORE.INTER.POLAR>
0

>  <SCORE.INTER.ROT>
2

>  <SCORE.INTER.SOLV>
28.7306

>  <SCORE.INTER.VDW>
-17.0533

>  <SCORE.INTER.norm>
-0.0866971

>  <SCORE.INTRA>
-1.0325

>  <SCORE.INTRA.DIHEDRAL>
-0.00672812

>  <SCORE.INTRA.DIHEDRAL.0>
2.32994

>  <SCORE.INTRA.POLAR>
0

>  <SCORE.INTRA.POLAR.0>
0

>  <SCORE.INTRA.REPUL>
0

>  <SCORE.INTRA.REPUL.0>
0

>  <SCORE.INTRA.SOLV>
1.36833

>  <SCORE.INTRA.SOLV.lig_0>
-117.703

>  <SCORE.INTRA.VDW>
-1.7133

>  <SCORE.INTRA.VDW.0>
-1.59997

>  <SCORE.INTRA.norm>
-0.0234659

>  <SCORE.RESTR>
1.18295

>  <SCORE.RESTR.CAVITY>
1.18295

>  <SCORE.RESTR.norm>
0.0268852

>  <SCORE.SYSTEM>
0

>  <SCORE.SYSTEM.CONST>
0

>  <SCORE.SYSTEM.DIHEDRAL>
0

>  <SCORE.SYSTEM.SOLV>
0

>  <SCORE.SYSTEM.norm>
0

>  <SCORE.heavy>
44

>  <SCORE.norm>
-0.0832778

>  <RMSD>
2.877

$$$$
ligand
 OpenBabel11021811513D
libRbt.so/2013.1/901 2013/11/27
 44 50  0  0  0  0  0  0  0  0999 V2000
  -11.2805   34.4818  -15.7859 P   0  0  2  0  0  0  0  0  0  0  0  0
   -6.8464   34.2051  -12.7088 P   0  0  1  0  0  0  0  0  0  0  0  0
  -12.7143   34.6412  -15.2866 O   0  5  0  0  0  0  0  0  0  0  0  0
   -6.0173   33.1030  -13.3220 O   0  5  0  0  0  0  0  0  0  0  0  0
  -11.3772   33.7898  -17.1243 O   0  0  0  0  0  0  0  0  0  0  0  0
   -5.9402   34.9644  -11.7132 O   0  0  0  0  0  0  0  0  0  0  0  0
  -11.0611   33.7982  -13.3516 C   0  0  0  0  0  0  0  0  0  0  0  0
   -8.3850   36.0792  -13.5971 C   0  0  0  0  0  0  0  0  0  0  0  0
  -10.5603   33.6372  -14.6856 O   0  0  0  0  0  0  0  0  0  0  0  0
   -7.4567   35.0305  -13.9938 O   0  0  0  0  0  0  0  0  0  0  0  0
  -10.3038   32.8860  -12.3925 C   0  0  1  0  0  0  0  0  0  0  0  0
   -8.7632   36.8538  -14.9157 C   0  0  1  0  0  0  0  0  0  0  0  0
  -10.8587   31.7142  -12.4260 O   0  0  0  0  0  0  0  0  0  0  0  0
   -7.6534   37.1478  -15.4596 O   0  0  0  0  0  0  0  0  0  0  0  0
   -8.8547   32.6903  -12.7750 C   0  0  1  0  0  0  0  0  0  0  0  0
   -9.4029   35.9049  -15.9488 C   0  0  1  0  0  0  0  0  0  0  0  0
   -8.1275   33.5204  -11.9810 O   0  0  0  0  0  0  0  0  0  0  0  0
  -10.7347   36.0375  -15.9744 O   0  0  0  0  0  0  0  0  0  0  0  0
   -8.5737   31.1935  -12.4000 C   0  0  1  0  0  0  0  0  0  0  0  0
   -8.7805   36.2485  -17.3213 C   0  0  1  0  0  0  0  0  0  0  0  0
   -7.8364   31.1197  -11.1099 O   0  0  0  0  0  0  0  0  0  0  0  0
   -9.7330   37.0662  -18.1394 O   0  0  0  0  0  0  0  0  0  0  0  0
   -9.7262   30.6107  -12.3111 C   0  0  2  0  0  0  0  0  0  0  0  0
   -7.7353   36.9505  -17.0458 C   0  0  2  0  0  0  0  0  0  0  0  0
   -9.3393   28.7696  -17.3392 N   0  0  0  0  0  0  0  0  0  0  0  0
   -8.9295   29.9957  -16.9081 C   0  0  0  0  0  0  0  0  0  0  0  0
   -9.0721   30.3717  -15.5967 N   0  0  0  0  0  0  0  0  0  0  0  0
   -9.6391   29.4954  -14.7130 C   0  0  0  0  0  0  0  0  0  0  0  0
  -10.0535   28.2887  -15.1235 C   0  0  0  0  0  0  0  0  0  0  0  0
   -9.8962   27.9110  -16.4559 C   0  0  0  0  0  0  0  0  0  0  0  0
  -10.2875   26.6773  -17.0127 N   0  0  0  0  0  0  0  0  0  0  0  0
  -10.5616   27.6400  -14.0544 N   0  0  0  0  0  0  0  0  0  0  0  0
  -10.4618   28.4680  -12.9756 C   0  0  0  0  0  0  0  0  0  0  0  0
   -9.8778   29.6052  -13.3755 N   0  0  0  0  0  0  0  0  0  0  0  0
   -3.3142   34.4851  -15.8227 N   0  0  0  0  0  0  0  0  0  0  0  0
   -4.2598   34.9383  -14.9585 C   0  0  0  0  0  0  0  0  0  0  0  0
   -5.3669   35.5759  -15.4433 N   0  0  0  0  0  0  0  0  0  0  0  0
   -5.5250   35.7514  -16.7829 C   0  0  0  0  0  0  0  0  0  0  0  0
   -4.5930   35.3004  -17.6467 C   0  0  0  0  0  0  0  0  0  0  0  0
   -3.4665   34.6555  -17.1441 C   0  0  0  0  0  0  0  0  0  0  0  0
   -2.3477   34.1156  -17.8734 N   0  0  0  0  0  0  0  0  0  0  0  0
   -5.0121   35.6154  -18.8957 N   0  0  0  0  0  0  0  0  0  0  0  0
   -6.2106   36.2582  -18.7949 C   0  0  0  0  0  0  0  0  0  0  0  0
   -6.5205   36.3346  -17.4848 N   0  0  0  0  0  0  0  0  0  0  0  0
  1  3  1  1  0  0  0
  1  5  2  0  0  0  0
  1  9  1  0  0  0  0
  1 18  1  0  0  0  0
  2  4  1  6  0  0  0
  2  6  2  0  0  0  0
  2 10  1  0  0  0  0
  2 17  1  0  0  0  0
  7  9  1  0  0  0  0
  8 10  1  0  0  0  0
 11  7  1  6  0  0  0
 11 13  1  0  0  0  0
 11 15  1  0  0  0  0
 12  8  1  1  0  0  0
 12 14  1  0  0  0  0
 12 16  1  0  0  0  0
 13 23  1  0  0  0  0
 14 24  1  0  0  0  0
 15 17  1  1  0  0  0
 15 19  1  0  0  0  0
 16 18  1  6  0  0  0
 16 20  1  0  0  0  0
 19 21  1  1  0  0  0
 19 23  1  0  0  0  0
 20 22  1  6  0  0  0
 20 24  1  0  0  0  0
 23 34  1  6  0  0  0
 24 44  1  1  0  0  0
 25 26  2  0  0  0  0
 25 30  1  0  0  0  0
 26 27  1  0  0  0  0
 27 28  2  0  0  0  0
 28 29  1  0  0  0  0
 28 34  1  0  0  0  0
 29 30  2  0  0  0  0
 29 32  1  0  0  0  0
 30 31  1  0  0  0  0
 32 33  2  0  0  0  0
 33 34  1  0  0  0  0
 35 36  2  0  0  0  0
 35 40  1  0  0  0  0
 36 37  1  0  0  0  0
 37 38  2  0  0  0  0
 38 39  1  0  0  0  0
 38 44  1  0  0  0  0
 39 40  2  0  0  0  0
 39 42  1  0  0  0  0
 40 41  1  0  0  0  0
 42 43  2  0  0  0  0
 43 44  1  0  0  0  0
M  CHG  2   3  -1   4  -1
M  END
>  <CHROM.1>
76.00175549,11.97928104,-8.35343404,33.39109632,-15.03898599,2.11980288,-0.07180790
2.83330724

>  <Name>
ligand

>  <RI>
0

>  <Rbt.Current_Directory>
/home/itssahil/PROJECTS/Mol_Feturizer/New_Systems/rnas/4QLM

>  <Rbt.Executable>
rbdock ($Id: //depot/dev/client3/rdock/2013.1/src/exe/rbdock.cxx#4 $)

>  <Rbt.Library>
libRbt.so (2013.1, Build901 2013/11/27)

>  <Rbt.Parameter_File>
/export/apps/rDock/src/rDock_2013.1_src/data/scripts/dock_solv.prm

>  <Rbt.Receptor>
prm/pocket_docking_3.prm

>  <SCORE>
0.767678

>  <SCORE.INTER>
1.14788

>  <SCORE.INTER.CONST>
1

>  <SCORE.INTER.POLAR>
0

>  <SCORE.INTER.ROT>
2

>  <SCORE.INTER.SOLV>
34.6458

>  <SCORE.INTER.VDW>
-15.7167

>  <SCORE.INTER.norm>
0.0260883

>  <SCORE.INTRA>
-1.06837

>  <SCORE.INTRA.DIHEDRAL>
-0.0198238

>  <SCORE.INTRA.DIHEDRAL.0>
2.32994

>  <SCORE.INTRA.POLAR>
0

>  <SCORE.INTRA.POLAR.0>
0

>  <SCORE.INTRA.REPUL>
0

>  <SCORE.INTRA.REPUL.0>
0

>  <SCORE.INTRA.SOLV>
1.30571

>  <SCORE.INTRA.SOLV.lig_0>
-117.703

>  <SCORE.INTRA.VDW>
-1.71131

>  <SCORE.INTRA.VDW.0>
-1.59997

>  <SCORE.INTRA.norm>
-0.0242812

>  <SCORE.RESTR>
0.688165

>  <SCORE.RESTR.CAVITY>
0.688165

>  <SCORE.RESTR.norm>
0.0156401

>  <SCORE.SYSTEM>
0

>  <SCORE.SYSTEM.CONST>
0

>  <SCORE.SYSTEM.DIHEDRAL>
0

>  <SCORE.SYSTEM.SOLV>
0

>  <SCORE.SYSTEM.norm>
0

>  <SCORE.heavy>
44

>  <SCORE.norm>
0.0174472

>  <RMSD>
2.909

$$$$
ligand
 OpenBabel11021811513D
libRbt.so/2013.1/901 2013/11/27
 44 50  0  0  0  0  0  0  0  0999 V2000
   -4.8530   37.8560  -13.2547 P   0  0  2  0  0  0  0  0  0  0  0  0
   -8.0007   35.7705  -17.1210 P   0  0  1  0  0  0  0  0  0  0  0  0
   -4.4070   39.3119  -13.1448 O   0  5  0  0  0  0  0  0  0  0  0  0
   -7.3567   34.4525  -17.4762 O   0  5  0  0  0  0  0  0  0  0  0  0
   -3.7986   37.0400  -12.5464 O   0  0  0  0  0  0  0  0  0  0  0  0
   -9.4088   35.7821  -17.7582 O   0  0  0  0  0  0  0  0  0  0  0  0
   -5.2747   38.7070  -15.6083 C   0  0  0  0  0  0  0  0  0  0  0  0
   -8.3609   37.1331  -14.9572 C   0  0  0  0  0  0  0  0  0  0  0  0
   -4.9469   37.5763  -14.7895 O   0  0  0  0  0  0  0  0  0  0  0  0
   -7.8850   35.8620  -15.4830 O   0  0  0  0  0  0  0  0  0  0  0  0
   -5.2862   38.3048  -17.0792 C   0  0  1  0  0  0  0  0  0  0  0  0
   -8.3140   37.0054  -13.3878 C   0  0  1  0  0  0  0  0  0  0  0  0
   -4.0705   38.3729  -17.5264 O   0  0  0  0  0  0  0  0  0  0  0  0
   -8.9311   35.9270  -13.1226 O   0  0  0  0  0  0  0  0  0  0  0  0
   -5.7521   36.8849  -17.3054 C   0  0  1  0  0  0  0  0  0  0  0  0
   -6.8829   36.7019  -12.9014 C   0  0  1  0  0  0  0  0  0  0  0  0
   -7.0530   36.9597  -17.6931 O   0  0  0  0  0  0  0  0  0  0  0  0
   -6.2871   37.8006  -12.4218 O   0  0  0  0  0  0  0  0  0  0  0  0
   -4.8572   36.3885  -18.4940 C   0  0  1  0  0  0  0  0  0  0  0  0
   -6.9993   35.6094  -11.8142 C   0  0  1  0  0  0  0  0  0  0  0  0
   -5.6283   36.4289  -19.7657 O   0  0  0  0  0  0  0  0  0  0  0  0
   -6.8616   36.2111  -10.4488 O   0  0  0  0  0  0  0  0  0  0  0  0
   -3.8347   37.1808  -18.5446 C   0  0  2  0  0  0  0  0  0  0  0  0
   -8.1854   35.1255  -11.9551 C   0  0  2  0  0  0  0  0  0  0  0  0
    0.5782   34.3314  -19.6529 N   0  0  0  0  0  0  0  0  0  0  0  0
   -0.3017   34.8227  -20.5702 C   0  0  0  0  0  0  0  0  0  0  0  0
   -1.4031   35.5429  -20.1832 N   0  0  0  0  0  0  0  0  0  0  0  0
   -1.6159   35.7651  -18.8507 C   0  0  0  0  0  0  0  0  0  0  0  0
   -0.7633   35.2821  -17.9363 C   0  0  0  0  0  0  0  0  0  0  0  0
    0.3585   34.5594  -18.3386 C   0  0  0  0  0  0  0  0  0  0  0  0
    1.3275   34.0004  -17.4821 N   0  0  0  0  0  0  0  0  0  0  0  0
   -1.2107   35.6516  -16.7175 N   0  0  0  0  0  0  0  0  0  0  0  0
   -2.3593   36.3655  -16.8916 C   0  0  0  0  0  0  0  0  0  0  0  0
   -2.6015   36.4515  -18.2062 N   0  0  0  0  0  0  0  0  0  0  0  0
  -10.8917   30.8501  -13.1870 N   0  0  0  0  0  0  0  0  0  0  0  0
  -11.3960   32.0800  -12.9050 C   0  0  0  0  0  0  0  0  0  0  0  0
  -10.5454   33.1024  -12.5912 N   0  0  0  0  0  0  0  0  0  0  0  0
   -9.2015   32.8925  -12.5666 C   0  0  0  0  0  0  0  0  0  0  0  0
   -8.6938   31.6759  -12.8498 C   0  0  0  0  0  0  0  0  0  0  0  0
   -9.5676   30.6392  -13.1645 C   0  0  0  0  0  0  0  0  0  0  0  0
   -9.2508   29.2695  -13.4783 N   0  0  0  0  0  0  0  0  0  0  0  0
   -7.3461   31.7651  -12.7452 N   0  0  0  0  0  0  0  0  0  0  0  0
   -7.0280   33.0459  -12.4013 C   0  0  0  0  0  0  0  0  0  0  0  0
   -8.1818   33.7356  -12.2963 N   0  0  0  0  0  0  0  0  0  0  0  0
  1  3  1  1  0  0  0
  1  5  2  0  0  0  0
  1  9  1  0  0  0  0
  1 18  1  0  0  0  0
  2  4  1  6  0  0  0
  2  6  2  0  0  0  0
  2 10  1  0  0  0  0
  2 17  1  0  0  0  0
  7  9  1  0  0  0  0
  8 10  1  0  0  0  0
 11  7  1  1  0  0  0
 11 13  1  0  0  0  0
 11 15  1  0  0  0  0
 12  8  1  6  0  0  0
 12 14  1  0  0  0  0
 12 16  1  0  0  0  0
 13 23  1  0  0  0  0
 14 24  1  0  0  0  0
 15 17  1  6  0  0  0
 15 19  1  0  0  0  0
 16 18  1  1  0  0  0
 16 20  1  0  0  0  0
 19 21  1  6  0  0  0
 19 23  1  0  0  0  0
 20 22  1  1  0  0  0
 20 24  1  0  0  0  0
 23 34  1  1  0  0  0
 24 44  1  6  0  0  0
 25 26  2  0  0  0  0
 25 30  1  0  0  0  0
 26 27  1  0  0  0  0
 27 28  2  0  0  0  0
 28 29  1  0  0  0  0
 28 34  1  0  0  0  0
 29 30  2  0  0  0  0
 29 32  1  0  0  0  0
 30 31  1  0  0  0  0
 32 33  2  0  0  0  0
 33 34  1  0  0  0  0
 35 36  2  0  0  0  0
 35 40  1  0  0  0  0
 36 37  1  0  0  0  0
 37 38  2  0  0  0  0
 38 39  1  0  0  0  0
 38 44  1  0  0  0  0
 39 40  2  0  0  0  0
 39 42  1  0  0  0  0
 40 41  1  0  0  0  0
 42 43  2  0  0  0  0
 43 44  1  0  0  0  0
M  CHG  2   3  -1   4  -1
M  END
>  <CHROM.1>
-148.05448021,-57.22231669,-5.83140848,35.53348204,-15.37605212,-0.09915329
0.69162689,0.58339208

>  <Name>
ligand

>  <RI>
0

>  <Rbt.Current_Directory>
/home/itssahil/PROJECTS/Mol_Feturizer/New_Systems/rnas/4QLM

>  <Rbt.Executable>
rbdock ($Id: //depot/dev/client3/rdock/2013.1/src/exe/rbdock.cxx#4 $)

>  <Rbt.Library>
libRbt.so (2013.1, Build901 2013/11/27)

>  <Rbt.Parameter_File>
/export/apps/rDock/src/rDock_2013.1_src/data/scripts/dock_solv.prm

>  <Rbt.Receptor>
prm/pocket_docking_3.prm

>  <SCORE>
-8.58055

>  <SCORE.INTER>
-12.1494

>  <SCORE.INTER.CONST>
1

>  <SCORE.INTER.POLAR>
0

>  <SCORE.INTER.ROT>
2

>  <SCORE.INTER.SOLV>
31.4045

>  <SCORE.INTER.VDW>
-23.5011

>  <SCORE.INTER.norm>
-0.276123

>  <SCORE.INTRA>
1.8814

>  <SCORE.INTRA.DIHEDRAL>
-0.0312452

>  <SCORE.INTRA.DIHEDRAL.0>
2.32994

>  <SCORE.INTRA.POLAR>
0

>  <SCORE.INTRA.POLAR.0>
0

>  <SCORE.INTRA.REPUL>
0

>  <SCORE.INTRA.REPUL.0>
0

>  <SCORE.INTRA.SOLV>
0.0619837

>  <SCORE.INTRA.SOLV.lig_0>
-117.703

>  <SCORE.INTRA.VDW>
1.86603

>  <SCORE.INTRA.VDW.0>
-1.59997

>  <SCORE.INTRA.norm>
0.0427591

>  <SCORE.RESTR>
1.68746

>  <SCORE.RESTR.CAVITY>
1.68746

>  <SCORE.RESTR.norm>
0.0383514

>  <SCORE.SYSTEM>
0

>  <SCORE.SYSTEM.CONST>
0

>  <SCORE.SYSTEM.DIHEDRAL>
0

>  <SCORE.SYSTEM.SOLV>
0

>  <SCORE.SYSTEM.norm>
0

>  <SCORE.heavy>
44

>  <SCORE.norm>
-0.195013

>  <RMSD>
2.965

$$$$
ligand
 OpenBabel11021811513D
libRbt.so/2013.1/901 2013/11/27
 44 50  0  0  0  0  0  0  0  0999 V2000
  -11.7354   34.2183  -15.7246 P   0  0  2  0  0  0  0  0  0  0  0  0
   -7.0950   34.2038  -12.9547 P   0  0  1  0  0  0  0  0  0  0  0  0
  -13.1392   34.2890  -15.1289 O   0  5  0  0  0  0  0  0  0  0  0  0
   -6.2441   33.1557  -13.6295 O   0  5  0  0  0  0  0  0  0  0  0  0
  -11.8803   33.5251  -17.0580 O   0  0  0  0  0  0  0  0  0  0  0  0
   -6.1712   35.0142  -12.0172 O   0  0  0  0  0  0  0  0  0  0  0  0
  -11.3112   33.5431  -13.3152 C   0  0  0  0  0  0  0  0  0  0  0  0
   -8.8005   35.9832  -13.7251 C   0  0  0  0  0  0  0  0  0  0  0  0
  -10.8928   33.4163  -14.6809 O   0  0  0  0  0  0  0  0  0  0  0  0
   -7.8395   34.9939  -14.1902 O   0  0  0  0  0  0  0  0  0  0  0  0
  -10.4370   32.6763  -12.4152 C   0  0  1  0  0  0  0  0  0  0  0  0
   -9.3132   36.7367  -15.0100 C   0  0  1  0  0  0  0  0  0  0  0  0
  -10.9211   31.4729  -12.4192 O   0  0  0  0  0  0  0  0  0  0  0  0
   -8.2624   37.0990  -15.6253 O   0  0  0  0  0  0  0  0  0  0  0  0
   -9.0079   32.5699  -12.8956 C   0  0  1  0  0  0  0  0  0  0  0  0
   -9.9626   35.7533  -16.0041 C   0  0  1  0  0  0  0  0  0  0  0  0
   -8.2802   33.4407  -12.1469 O   0  0  0  0  0  0  0  0  0  0  0  0
  -11.2986   35.8047  -15.9391 O   0  0  0  0  0  0  0  0  0  0  0  0
   -8.6122   31.0920  -12.5503 C   0  0  1  0  0  0  0  0  0  0  0  0
   -9.4562   36.1376  -17.4130 C   0  0  1  0  0  0  0  0  0  0  0  0
   -7.7863   31.0599  -11.3133 O   0  0  0  0  0  0  0  0  0  0  0  0
  -10.5095   36.8979  -18.1598 O   0  0  0  0  0  0  0  0  0  0  0  0
   -9.7187   30.4400  -12.3880 C   0  0  2  0  0  0  0  0  0  0  0  0
   -8.4392   36.9011  -17.2037 C   0  0  2  0  0  0  0  0  0  0  0  0
   -9.3588   28.5683  -17.4068 N   0  0  0  0  0  0  0  0  0  0  0  0
   -8.9385   29.7936  -16.9835 C   0  0  0  0  0  0  0  0  0  0  0  0
   -9.0748   30.1779  -15.6739 N   0  0  0  0  0  0  0  0  0  0  0  0
   -9.6463   29.3109  -14.7839 C   0  0  0  0  0  0  0  0  0  0  0  0
  -10.0711   28.1052  -15.1867 C   0  0  0  0  0  0  0  0  0  0  0  0
   -9.9201   27.7189  -16.5174 C   0  0  0  0  0  0  0  0  0  0  0  0
  -10.3223   26.4852  -17.0664 N   0  0  0  0  0  0  0  0  0  0  0  0
  -10.5815   27.4663  -14.1127 N   0  0  0  0  0  0  0  0  0  0  0  0
  -10.4725   28.2995  -13.0389 C   0  0  0  0  0  0  0  0  0  0  0  0
   -9.8808   29.4299  -13.4465 N   0  0  0  0  0  0  0  0  0  0  0  0
   -3.2908   37.3606  -17.8386 N   0  0  0  0  0  0  0  0  0  0  0  0
   -4.1146   38.2363  -17.2055 C   0  0  0  0  0  0  0  0  0  0  0  0
   -5.4529   37.9706  -17.1310 N   0  0  0  0  0  0  0  0  0  0  0  0
   -5.9574   36.8338  -17.6821 C   0  0  0  0  0  0  0  0  0  0  0  0
   -5.1453   35.9580  -18.3079 C   0  0  0  0  0  0  0  0  0  0  0  0
   -3.7841   36.2385  -18.3826 C   0  0  0  0  0  0  0  0  0  0  0  0
   -2.7465   35.4628  -19.0126 N   0  0  0  0  0  0  0  0  0  0  0  0
   -5.9165   34.9371  -18.7528 N   0  0  0  0  0  0  0  0  0  0  0  0
   -7.2075   35.1879  -18.3916 C   0  0  0  0  0  0  0  0  0  0  0  0
   -7.2218   36.3613  -17.7276 N   0  0  0  0  0  0  0  0  0  0  0  0
  1  3  1  1  0  0  0
  1  5  2  0  0  0  0
  1  9  1  0  0  0  0
  1 18  1  0  0  0  0
  2  4  1  6  0  0  0
  2  6  2  0  0  0  0
  2 10  1  0  0  0  0
  2 17  1  0  0  0  0
  7  9  1  0  0  0  0
  8 10  1  0  0  0  0
 11  7  1  6  0  0  0
 11 13  1  0  0  0  0
 11 15  1  0  0  0  0
 12  8  1  1  0  0  0
 12 14  1  0  0  0  0
 12 16  1  0  0  0  0
 13 23  1  0  0  0  0
 14 24  1  0  0  0  0
 15 17  1  1  0  0  0
 15 19  1  0  0  0  0
 16 18  1  6  0  0  0
 16 20  1  0  0  0  0
 19 21  1  1  0  0  0
 19 23  1  0  0  0  0
 20 22  1  1  0  0  0
 20 24  1  0  0  0  0
 23 34  1  6  0  0  0
 24 44  1  1  0  0  0
 25 26  2  0  0  0  0
 25 30  1  0  0  0  0
 26 27  1  0  0  0  0
 27 28  2  0  0  0  0
 28 29  1  0  0  0  0
 28 34  1  0  0  0  0
 29 30  2  0  0  0  0
 29 32  1  0  0  0  0
 30 31  1  0  0  0  0
 32 33  2  0  0  0  0
 33 34  1  0  0  0  0
 35 36  2  0  0  0  0
 35 40  1  0  0  0  0
 36 37  1  0  0  0  0
 37 38  2  0  0  0  0
 38 39  1  0  0  0  0
 38 44  1  0  0  0  0
 39 40  2  0  0  0  0
 39 42  1  0  0  0  0
 40 41  1  0  0  0  0
 42 43  2  0  0  0  0
 43 44  1  0  0  0  0
M  CHG  2   3  -1   4  -1
M  END
>  <CHROM.1>
81.44000912,-57.72204088,-8.65030606,33.50519047,-15.29908014,2.13923092
-0.49498995,3.03043934

>  <Name>
ligand

>  <RI>
0

>  <Rbt.Current_Directory>
/home/itssahil/PROJECTS/Mol_Feturizer/New_Systems/rnas/4QLM

>  <Rbt.Executable>
rbdock ($Id: //depot/dev/client3/rdock/2013.1/src/exe/rbdock.cxx#4 $)

>  <Rbt.Library>
libRbt.so (2013.1, Build901 2013/11/27)

>  <Rbt.Parameter_File>
/export/apps/rDock/src/rDock_2013.1_src/data/scripts/dock_solv.prm

>  <Rbt.Receptor>
prm/pocket_docking_4.prm

>  <SCORE>
-2.39274

>  <SCORE.INTER>
-4.06462

>  <SCORE.INTER.CONST>
1

>  <SCORE.INTER.POLAR>
0

>  <SCORE.INTER.ROT>
2

>  <SCORE.INTER.SOLV>
30.2109

>  <SCORE.INTER.VDW>
-17.7134

>  <SCORE.INTER.norm>
-0.0923778

>  <SCORE.INTRA>
1.23926

>  <SCORE.INTRA.DIHEDRAL>
-0.0266537

>  <SCORE.INTRA.DIHEDRAL.0>
2.32994

>  <SCORE.INTRA.POLAR>
0

>  <SCORE.INTRA.POLAR.0>
0

>  <SCORE.INTRA.REPUL>
0

>  <SCORE.INTRA.REPUL.0>
0

>  <SCORE.INTRA.SOLV>
0.0587165

>  <SCORE.INTRA.SOLV.lig_0>
-117.703

>  <SCORE.INTRA.VDW>
1.22323

>  <SCORE.INTRA.VDW.0>
-1.59997

>  <SCORE.INTRA.norm>
0.0281651

>  <SCORE.RESTR>
0.432616

>  <SCORE.RESTR.CAVITY>
0.432616

>  <SCORE.RESTR.norm>
0.00983219

>  <SCORE.SYSTEM>
0

>  <SCORE.SYSTEM.CONST>
0

>  <SCORE.SYSTEM.DIHEDRAL>
0

>  <SCORE.SYSTEM.SOLV>
0

>  <SCORE.SYSTEM.norm>
0

>  <SCORE.heavy>
44

>  <SCORE.norm>
-0.0543806

>  <RMSD>
2.989

$$$$
ligand
 OpenBabel11021811513D
libRbt.so/2013.1/901 2013/11/27
 44 50  0  0  0  0  0  0  0  0999 V2000
   -6.1478   33.5629  -12.5172 P   0  0  2  0  0  0  0  0  0  0  0  0
   -9.6128   37.4044  -14.0798 P   0  0  1  0  0  0  0  0  0  0  0  0
   -5.1118   33.6842  -11.4026 O   0  5  0  0  0  0  0  0  0  0  0  0
   -9.5963   37.3510  -15.5881 O   0  5  0  0  0  0  0  0  0  0  0  0
   -5.6171   32.5197  -13.4710 O   0  0  0  0  0  0  0  0  0  0  0  0
  -10.8211   38.2732  -13.6624 O   0  0  0  0  0  0  0  0  0  0  0  0
   -5.9818   36.0796  -12.2351 C   0  0  0  0  0  0  0  0  0  0  0  0
   -9.4831   35.6787  -12.1632 C   0  0  0  0  0  0  0  0  0  0  0  0
   -6.2476   34.9951  -13.1348 O   0  0  0  0  0  0  0  0  0  0  0  0
   -9.5842   35.8294  -13.6074 O   0  0  0  0  0  0  0  0  0  0  0  0
   -6.0667   37.4097  -12.9761 C   0  0  1  0  0  0  0  0  0  0  0  0
   -9.6084   34.1356  -11.8720 C   0  0  1  0  0  0  0  0  0  0  0  0
   -4.9186   37.6343  -13.5364 O   0  0  0  0  0  0  0  0  0  0  0  0
  -10.6565   33.7645  -12.4866 O   0  0  0  0  0  0  0  0  0  0  0  0
   -7.0964   37.4112  -14.0824 C   0  0  1  0  0  0  0  0  0  0  0  0
   -8.4982   33.3460  -12.5937 C   0  0  1  0  0  0  0  0  0  0  0  0
   -8.1986   38.0342  -13.5869 O   0  0  0  0  0  0  0  0  0  0  0  0
   -7.5127   33.0098  -11.7525 O   0  0  0  0  0  0  0  0  0  0  0  0
   -6.4330   38.2867  -15.2020 C   0  0  1  0  0  0  0  0  0  0  0  0
   -9.1630   32.0918  -13.2055 C   0  0  1  0  0  0  0  0  0  0  0  0
   -7.0146   39.6560  -15.1917 O   0  0  0  0  0  0  0  0  0  0  0  0
   -8.8694   30.8824  -12.3709 O   0  0  0  0  0  0  0  0  0  0  0  0
   -5.1645   38.3181  -14.9454 C   0  0  2  0  0  0  0  0  0  0  0  0
  -10.4275   32.3390  -13.1776 C   0  0  2  0  0  0  0  0  0  0  0  0
   -3.0300   34.0099  -17.3338 N   0  0  0  0  0  0  0  0  0  0  0  0
   -3.7725   33.9988  -16.1911 C   0  0  0  0  0  0  0  0  0  0  0  0
   -4.2760   35.1589  -15.6600 N   0  0  0  0  0  0  0  0  0  0  0  0
   -4.0214   36.3440  -16.2934 C   0  0  0  0  0  0  0  0  0  0  0  0
   -3.2868   36.3716  -17.4140 C   0  0  0  0  0  0  0  0  0  0  0  0
   -2.7869   35.1871  -17.9523 C   0  0  0  0  0  0  0  0  0  0  0  0
   -2.0049   35.0796  -19.1193 N   0  0  0  0  0  0  0  0  0  0  0  0
   -3.2007   37.6559  -17.8207 N   0  0  0  0  0  0  0  0  0  0  0  0
   -3.8884   38.4247  -16.9288 C   0  0  0  0  0  0  0  0  0  0  0  0
   -4.4095   37.6164  -15.9965 N   0  0  0  0  0  0  0  0  0  0  0  0
  -14.6999   31.9535  -16.1303 N   0  0  0  0  0  0  0  0  0  0  0  0
  -14.6286   31.8207  -14.7798 C   0  0  0  0  0  0  0  0  0  0  0  0
  -13.4210   31.9443  -14.1525 N   0  0  0  0  0  0  0  0  0  0  0  0
  -12.2974   32.2042  -14.8740 C   0  0  0  0  0  0  0  0  0  0  0  0
  -12.3613   32.3417  -16.2139 C   0  0  0  0  0  0  0  0  0  0  0  0
  -13.5948   32.2104  -16.8452 C   0  0  0  0  0  0  0  0  0  0  0  0
  -13.8909   32.2984  -18.2522 N   0  0  0  0  0  0  0  0  0  0  0  0
  -11.1051   32.5893  -16.6560 N   0  0  0  0  0  0  0  0  0  0  0  0
  -10.2690   32.6087  -15.5787 C   0  0  0  0  0  0  0  0  0  0  0  0
  -11.0163   32.3725  -14.4815 N   0  0  0  0  0  0  0  0  0  0  0  0
  1  3  1  1  0  0  0
  1  5  2  0  0  0  0
  1  9  1  0  0  0  0
  1 18  1  0  0  0  0
  2  4  1  6  0  0  0
  2  6  2  0  0  0  0
  2 10  1  0  0  0  0
  2 17  1  0  0  0  0
  7  9  1  0  0  0  0
  8 10  1  0  0  0  0
 11  7  1  6  0  0  0
 11 13  1  0  0  0  0
 11 15  1  0  0  0  0
 12  8  1  6  0  0  0
 12 14  1  0  0  0  0
 12 16  1  0  0  0  0
 13 23  1  0  0  0  0
 14 24  1  0  0  0  0
 15 17  1  1  0  0  0
 15 19  1  0  0  0  0
 16 18  1  1  0  0  0
 16 20  1  0  0  0  0
 19 21  1  1  0  0  0
 19 23  1  0  0  0  0
 20 22  1  1  0  0  0
 20 24  1  0  0  0  0
 23 34  1  6  0  0  0
 24 44  1  6  0  0  0
 25 26  2  0  0  0  0
 25 30  1  0  0  0  0
 26 27  1  0  0  0  0
 27 28  2  0  0  0  0
 28 29  1  0  0  0  0
 28 34  1  0  0  0  0
 29 30  2  0  0  0  0
 29 32  1  0  0  0  0
 30 31  1  0  0  0  0
 32 33  2  0  0  0  0
 33 34  1  0  0  0  0
 35 36  2  0  0  0  0
 35 40  1  0  0  0  0
 36 37  1  0  0  0  0
 37 38  2  0  0  0  0
 38 39  1  0  0  0  0
 38 44  1  0  0  0  0
 39 40  2  0  0  0  0
 39 42  1  0  0  0  0
 40 41  1  0  0  0  0
 42 43  2  0  0  0  0
 43 44  1  0  0  0  0
M  CHG  2   3  -1   4  -1
M  END
>  <CHROM.1>
34.45808342,-81.71298717,-7.93971358,34.93147846,-14.55551047,-0.47507006
-0.06692043,3.01385925

>  <Name>
ligand

>  <RI>
0

>  <Rbt.Current_Directory>
/home/itssahil/PROJECTS/Mol_Feturizer/New_Systems/rnas/4QLM

>  <Rbt.Executable>
rbdock ($Id: //depot/dev/client3/rdock/2013.1/src/exe/rbdock.cxx#4 $)

>  <Rbt.Library>
libRbt.so (2013.1, Build901 2013/11/27)

>  <Rbt.Parameter_File>
/export/apps/rDock/src/rDock_2013.1_src/data/scripts/dock_solv.prm

>  <Rbt.Receptor>
prm/pocket_docking_6.prm

>  <SCORE>
-8.79163

>  <SCORE.INTER>
-9.32084

>  <SCORE.INTER.CONST>
1

>  <SCORE.INTER.POLAR>
0

>  <SCORE.INTER.ROT>
2

>  <SCORE.INTER.SOLV>
25.2747

>  <SCORE.INTER.VDW>
-19.5721

>  <SCORE.INTER.norm>
-0.211837

>  <SCORE.INTRA>
0.529197

>  <SCORE.INTRA.DIHEDRAL>
0.159472

>  <SCORE.INTRA.DIHEDRAL.0>
2.32994

>  <SCORE.INTRA.POLAR>
0

>  <SCORE.INTRA.POLAR.0>
0

>  <SCORE.INTRA.REPUL>
0

>  <SCORE.INTRA.REPUL.0>
0

>  <SCORE.INTRA.SOLV>
0.389697

>  <SCORE.INTRA.SOLV.lig_0>
-117.703

>  <SCORE.INTRA.VDW>
0.254613

>  <SCORE.INTRA.VDW.0>
-1.59997

>  <SCORE.INTRA.norm>
0.0120272

>  <SCORE.RESTR>
1.82913e-05

>  <SCORE.RESTR.CAVITY>
1.82913e-05

>  <SCORE.RESTR.norm>
4.15712e-07

>  <SCORE.SYSTEM>
0

>  <SCORE.SYSTEM.CONST>
0

>  <SCORE.SYSTEM.DIHEDRAL>
0

>  <SCORE.SYSTEM.SOLV>
0

>  <SCORE.SYSTEM.norm>
0

>  <SCORE.heavy>
44

>  <SCORE.norm>
-0.19981

>  <RMSD>
3.215

$$$$
ligand
 OpenBabel11021811513D
libRbt.so/2013.1/901 2013/11/27
 44 50  0  0  0  0  0  0  0  0999 V2000
  -11.8483   34.2568  -16.2988 P   0  0  2  0  0  0  0  0  0  0  0  0
   -7.8330   34.4514  -12.6869 P   0  0  1  0  0  0  0  0  0  0  0  0
  -13.3422   34.2916  -15.9868 O   0  5  0  0  0  0  0  0  0  0  0  0
   -6.8373   33.4198  -13.1584 O   0  5  0  0  0  0  0  0  0  0  0  0
  -11.7121   33.5339  -17.6172 O   0  0  0  0  0  0  0  0  0  0  0  0
   -7.1322   35.3102  -11.6097 O   0  0  0  0  0  0  0  0  0  0  0  0
  -11.8786   33.6424  -13.8365 C   0  0  0  0  0  0  0  0  0  0  0  0
   -9.4087   36.1573  -13.8162 C   0  0  0  0  0  0  0  0  0  0  0  0
  -11.2003   33.5037  -15.0923 O   0  0  0  0  0  0  0  0  0  0  0  0
   -8.3473   35.1923  -14.0622 O   0  0  0  0  0  0  0  0  0  0  0  0
  -11.1700   32.8228  -12.7634 C   0  0  1  0  0  0  0  0  0  0  0  0
   -9.6850   36.8685  -15.1944 C   0  0  1  0  0  0  0  0  0  0  0  0
  -11.6086   31.6040  -12.8301 O   0  0  0  0  0  0  0  0  0  0  0  0
   -8.5461   37.2541  -15.6046 O   0  0  0  0  0  0  0  0  0  0  0  0
   -9.6725   32.7555  -12.9564 C   0  0  1  0  0  0  0  0  0  0  0  0
  -10.1007   35.8450  -16.2699 C   0  0  1  0  0  0  0  0  0  0  0  0
   -9.1292   33.6644  -12.1037 O   0  0  0  0  0  0  0  0  0  0  0  0
  -11.4250   35.8527  -16.4650 O   0  0  0  0  0  0  0  0  0  0  0  0
   -9.3079   31.2986  -12.5042 C   0  0  1  0  0  0  0  0  0  0  0  0
   -9.3428   36.2192  -17.5641 C   0  0  1  0  0  0  0  0  0  0  0  0
   -8.7362   31.3178  -11.1308 O   0  0  0  0  0  0  0  0  0  0  0  0
  -10.2536   36.9293  -18.5188 O   0  0  0  0  0  0  0  0  0  0  0  0
  -10.4052   30.6129  -12.5417 C   0  0  2  0  0  0  0  0  0  0  0  0
   -8.4084   37.0203  -17.1820 C   0  0  2  0  0  0  0  0  0  0  0  0
   -9.2987   28.7425  -17.4507 N   0  0  0  0  0  0  0  0  0  0  0  0
   -9.0808   30.0162  -17.0178 C   0  0  0  0  0  0  0  0  0  0  0  0
   -9.3983   30.3956  -15.7385 N   0  0  0  0  0  0  0  0  0  0  0  0
   -9.9456   29.4737  -14.8895 C   0  0  0  0  0  0  0  0  0  0  0  0
  -10.1726   28.2192  -15.3030 C   0  0  0  0  0  0  0  0  0  0  0  0
   -9.8382   27.8394  -16.6017 C   0  0  0  0  0  0  0  0  0  0  0  0
  -10.0242   26.5582  -17.1576 N   0  0  0  0  0  0  0  0  0  0  0  0
  -10.7071   27.5335  -14.2704 N   0  0  0  0  0  0  0  0  0  0  0  0
  -10.8144   28.3865  -13.2120 C   0  0  0  0  0  0  0  0  0  0  0  0
  -10.3298   29.5779  -13.5858 N   0  0  0  0  0  0  0  0  0  0  0  0
   -3.3929   36.7419  -15.8081 N   0  0  0  0  0  0  0  0  0  0  0  0
   -4.3726   37.4403  -15.1767 C   0  0  0  0  0  0  0  0  0  0  0  0
   -5.6458   37.4152  -15.6723 N   0  0  0  0  0  0  0  0  0  0  0  0
   -5.9327   36.6913  -16.7877 C   0  0  0  0  0  0  0  0  0  0  0  0
   -4.9665   35.9921  -17.4169 C   0  0  0  0  0  0  0  0  0  0  0  0
   -3.6717   36.0264  -16.9075 C   0  0  0  0  0  0  0  0  0  0  0  0
   -2.4928   35.3782  -17.4226 N   0  0  0  0  0  0  0  0  0  0  0  0
   -5.5376   35.3805  -18.4822 N   0  0  0  0  0  0  0  0  0  0  0  0
   -6.8624   35.7037  -18.5010 C   0  0  0  0  0  0  0  0  0  0  0  0
   -7.0973   36.5119  -17.4476 N   0  0  0  0  0  0  0  0  0  0  0  0
  1  3  1  1  0  0  0
  1  5  2  0  0  0  0
  1  9  1  0  0  0  0
  1 18  1  0  0  0  0
  2  4  1  6  0  0  0
  2  6  2  0  0  0  0
  2 10  1  0  0  0  0
  2 17  1  0  0  0  0
  7  9  1  0  0  0  0
  8 10  1  0  0  0  0
 11  7  1  6  0  0  0
 11 13  1  0  0  0  0
 11 15  1  0  0  0  0
 12  8  1  1  0  0  0
 12 14  1  0  0  0  0
 12 16  1  0  0  0  0
 13 23  1  0  0  0  0
 14 24  1  0  0  0  0
 15 17  1  1  0  0  0
 15 19  1  0  0  0  0
 16 18  1  6  0  0  0
 16 20  1  0  0  0  0
 19 21  1  1  0  0  0
 19 23  1  0  0  0  0
 20 22  1  6  0  0  0
 20 24  1  0  0  0  0
 23 34  1  6  0  0  0
 24 44  1  1  0  0  0
 25 26  2  0  0  0  0
 25 30  1  0  0  0  0
 26 27  1  0  0  0  0
 27 28  2  0  0  0  0
 28 29  1  0  0  0  0
 28 34  1  0  0  0  0
 29 30  2  0  0  0  0
 29 32  1  0  0  0  0
 30 31  1  0  0  0  0
 32 33  2  0  0  0  0
 33 34  1  0  0  0  0
 35 36  2  0  0  0  0
 35 40  1  0  0  0  0
 36 37  1  0  0  0  0
 37 38  2  0  0  0  0
 38 39  1  0  0  0  0
 38 44  1  0  0  0  0
 39 40  2  0  0  0  0
 39 42  1  0  0  0  0
 40 41  1  0  0  0  0
 42 43  2  0  0  0  0
 43 44  1  0  0  0  0
M  CHG  2   3  -1   4  -1
M  END
>  <CHROM.1>
73.87614984,-28.71955099,-8.91395544,33.59222173,-15.19749559,2.11844622
0.13658253,2.78560172

>  <Name>
ligand

>  <RI>
0

>  <Rbt.Current_Directory>
/home/itssahil/PROJECTS/Mol_Feturizer/New_Systems/rnas/4QLM

>  <Rbt.Executable>
rbdock ($Id: //depot/dev/client3/rdock/2013.1/src/exe/rbdock.cxx#4 $)

>  <Rbt.Library>
libRbt.so (2013.1, Build901 2013/11/27)

>  <Rbt.Parameter_File>
/export/apps/rDock/src/rDock_2013.1_src/data/scripts/dock_solv.prm

>  <Rbt.Receptor>
prm/pocket_docking_3.prm

>  <SCORE>
-4.17109

>  <SCORE.INTER>
-5.59701

>  <SCORE.INTER.CONST>
1

>  <SCORE.INTER.POLAR>
0

>  <SCORE.INTER.ROT>
2

>  <SCORE.INTER.SOLV>
27.4299

>  <SCORE.INTER.VDW>
-17.808

>  <SCORE.INTER.norm>
-0.127205

>  <SCORE.INTRA>
0.209943

>  <SCORE.INTRA.DIHEDRAL>
0.00483257

>  <SCORE.INTRA.DIHEDRAL.0>
2.32994

>  <SCORE.INTRA.POLAR>
0

>  <SCORE.INTRA.POLAR.0>
0

>  <SCORE.INTRA.REPUL>
0

>  <SCORE.INTRA.REPUL.0>
0

>  <SCORE.INTRA.SOLV>
0.0856523

>  <SCORE.INTRA.SOLV.lig_0>
-117.703

>  <SCORE.INTRA.VDW>
0.1647

>  <SCORE.INTRA.VDW.0>
-1.59997

>  <SCORE.INTRA.norm>
0.00477142

>  <SCORE.RESTR>
1.21598

>  <SCORE.RESTR.CAVITY>
1.21598

>  <SCORE.RESTR.norm>
0.0276359

>  <SCORE.SYSTEM>
0

>  <SCORE.SYSTEM.CONST>
0

>  <SCORE.SYSTEM.DIHEDRAL>
0

>  <SCORE.SYSTEM.SOLV>
0

>  <SCORE.SYSTEM.norm>
0

>  <SCORE.heavy>
44

>  <SCORE.norm>
-0.0947975

>  <RMSD>
3.236

$$$$
ligand
 OpenBabel11021811513D
libRbt.so/2013.1/901 2013/11/27
 44 50  0  0  0  0  0  0  0  0999 V2000
   -2.5285   36.3020  -13.4373 P   0  0  2  0  0  0  0  0  0  0  0  0
   -7.3061   36.8780  -15.8967 P   0  0  1  0  0  0  0  0  0  0  0  0
   -1.5815   37.4297  -13.0347 O   0  5  0  0  0  0  0  0  0  0  0  0
   -7.3340   35.7952  -16.9478 O   0  5  0  0  0  0  0  0  0  0  0  0
   -1.6654   35.0783  -13.6296 O   0  0  0  0  0  0  0  0  0  0  0  0
   -8.7424   37.4350  -15.7703 O   0  0  0  0  0  0  0  0  0  0  0  0
   -3.3735   38.2234  -14.8640 C   0  0  0  0  0  0  0  0  0  0  0  0
   -6.4139   37.0947  -13.4831 C   0  0  0  0  0  0  0  0  0  0  0  0
   -3.2203   36.8025  -14.7464 O   0  0  0  0  0  0  0  0  0  0  0  0
   -6.6284   36.1624  -14.5801 O   0  0  0  0  0  0  0  0  0  0  0  0
   -4.0160   38.5735  -16.2020 C   0  0  1  0  0  0  0  0  0  0  0  0
   -5.8975   36.2341  -12.2689 C   0  0  1  0  0  0  0  0  0  0  0  0
   -3.0793   38.6317  -17.0973 O   0  0  0  0  0  0  0  0  0  0  0  0
   -6.7341   35.2850  -12.1534 O   0  0  0  0  0  0  0  0  0  0  0  0
   -5.0061   37.5354  -16.6776 C   0  0  1  0  0  0  0  0  0  0  0  0
   -4.5958   35.4923  -12.6323 C   0  0  1  0  0  0  0  0  0  0  0  0
   -6.2433   38.0102  -16.3741 O   0  0  0  0  0  0  0  0  0  0  0  0
   -3.5232   36.1106  -12.1230 O   0  0  0  0  0  0  0  0  0  0  0  0
   -4.7977   37.5125  -18.2321 C   0  0  1  0  0  0  0  0  0  0  0  0
   -4.7275   34.0549  -12.0793 C   0  0  1  0  0  0  0  0  0  0  0  0
   -5.8785   38.2833  -18.9039 O   0  0  0  0  0  0  0  0  0  0  0  0
   -3.9384   33.9051  -10.8144 O   0  0  0  0  0  0  0  0  0  0  0  0
   -3.6386   38.0423  -18.4587 C   0  0  2  0  0  0  0  0  0  0  0  0
   -5.9827   33.9106  -11.8249 C   0  0  2  0  0  0  0  0  0  0  0  0
    0.3272   34.4354  -18.1688 N   0  0  0  0  0  0  0  0  0  0  0  0
   -0.1850   35.1393  -17.1203 C   0  0  0  0  0  0  0  0  0  0  0  0
   -1.2034   36.0406  -17.2998 N   0  0  0  0  0  0  0  0  0  0  0  0
   -1.7061   36.2321  -18.5570 C   0  0  0  0  0  0  0  0  0  0  0  0
   -1.2078   35.5525  -19.5992 C   0  0  0  0  0  0  0  0  0  0  0  0
   -0.1795   34.6315  -19.4066 C   0  0  0  0  0  0  0  0  0  0  0  0
    0.4294   33.8562  -20.4132 N   0  0  0  0  0  0  0  0  0  0  0  0
   -1.8862   35.9316  -20.7029 N   0  0  0  0  0  0  0  0  0  0  0  0
   -2.8086   36.8633  -20.3282 C   0  0  0  0  0  0  0  0  0  0  0  0
   -2.7112   37.0373  -19.0037 N   0  0  0  0  0  0  0  0  0  0  0  0
  -10.3125   31.3946  -13.2541 N   0  0  0  0  0  0  0  0  0  0  0  0
  -10.2245   32.4341  -12.3835 C   0  0  0  0  0  0  0  0  0  0  0  0
   -9.0034   32.9821  -12.1081 N   0  0  0  0  0  0  0  0  0  0  0  0
   -7.8829   32.4943  -12.7056 C   0  0  0  0  0  0  0  0  0  0  0  0
   -7.9632   31.4659  -13.5741 C   0  0  0  0  0  0  0  0  0  0  0  0
   -9.2105   30.9111  -13.8458 C   0  0  0  0  0  0  0  0  0  0  0  0
   -9.5256   29.8071  -14.7158 N   0  0  0  0  0  0  0  0  0  0  0  0
   -6.7061   31.1978  -14.0016 N   0  0  0  0  0  0  0  0  0  0  0  0
   -5.8528   32.0715  -13.3948 C   0  0  0  0  0  0  0  0  0  0  0  0
   -6.5905   32.8708  -12.5979 N   0  0  0  0  0  0  0  0  0  0  0  0
  1  3  1  1  0  0  0
  1  5  2  0  0  0  0
  1  9  1  0  0  0  0
  1 18  1  0  0  0  0
  2  4  1  6  0  0  0
  2  6  2  0  0  0  0
  2 10  1  0  0  0  0
  2 17  1  0  0  0  0
  7  9  1  0  0  0  0
  8 10  1  0  0  0  0
 11  7  1  1  0  0  0
 11 13  1  0  0  0  0
 11 15  1  0  0  0  0
 12  8  1  6  0  0  0
 12 14  1  0  0  0  0
 12 16  1  0  0  0  0
 13 23  1  0  0  0  0
 14 24  1  0  0  0  0
 15 17  1  6  0  0  0
 15 19  1  0  0  0  0
 16 18  1  1  0  0  0
 16 20  1  0  0  0  0
 19 21  1  6  0  0  0
 19 23  1  0  0  0  0
 20 22  1  1  0  0  0
 20 24  1  0  0  0  0
 23 34  1  1  0  0  0
 24 44  1  6  0  0  0
 25 26  2  0  0  0  0
 25 30  1  0  0  0  0
 26 27  1  0  0  0  0
 27 28  2  0  0  0  0
 28 29  1  0  0  0  0
 28 34  1  0  0  0  0
 29 30  2  0  0  0  0
 29 32  1  0  0  0  0
 30 31  1  0  0  0  0
 32 33  2  0  0  0  0
 33 34  1  0  0  0  0
 35 36  2  0  0  0  0
 35 40  1  0  0  0  0
 36 37  1  0  0  0  0
 37 38  2  0  0  0  0
 38 39  1  0  0  0  0
 38 44  1  0  0  0  0
 39 40  2  0  0  0  0
 39 42  1  0  0  0  0
 40 41  1  0  0  0  0
 42 43  2  0  0  0  0
 43 44  1  0  0  0  0
M  CHG  2   3  -1   4  -1
M  END
>  <CHROM.1>
20.81761902,-53.23962381,-4.81236567,35.42526409,-15.27346276,-0.80138766
0.18985877,1.97536361

>  <Name>
ligand

>  <RI>
0

>  <Rbt.Current_Directory>
/home/itssahil/PROJECTS/Mol_Feturizer/New_Systems/rnas/4QLM

>  <Rbt.Executable>
rbdock ($Id: //depot/dev/client3/rdock/2013.1/src/exe/rbdock.cxx#4 $)

>  <Rbt.Library>
libRbt.so (2013.1, Build901 2013/11/27)

>  <Rbt.Parameter_File>
/export/apps/rDock/src/rDock_2013.1_src/data/scripts/dock_solv.prm

>  <Rbt.Receptor>
prm/pocket_docking_4.prm

>  <SCORE>
-6.16786

>  <SCORE.INTER>
-7.96561

>  <SCORE.INTER.CONST>
1

>  <SCORE.INTER.POLAR>
0

>  <SCORE.INTER.ROT>
2

>  <SCORE.INTER.SOLV>
26.7343

>  <SCORE.INTER.VDW>
-19.1552

>  <SCORE.INTER.norm>
-0.181037

>  <SCORE.INTRA>
1.23912

>  <SCORE.INTRA.DIHEDRAL>
0.170386

>  <SCORE.INTRA.DIHEDRAL.0>
2.32994

>  <SCORE.INTRA.POLAR>
0

>  <SCORE.INTRA.POLAR.0>
0

>  <SCORE.INTRA.REPUL>
0

>  <SCORE.INTRA.REPUL.0>
0

>  <SCORE.INTRA.SOLV>
0.319674

>  <SCORE.INTRA.SOLV.lig_0>
-117.703

>  <SCORE.INTRA.VDW>
0.994089

>  <SCORE.INTRA.VDW.0>
-1.59997

>  <SCORE.INTRA.norm>
0.0281618

>  <SCORE.RESTR>
0.558634

>  <SCORE.RESTR.CAVITY>
0.558634

>  <SCORE.RESTR.norm>
0.0126962

>  <SCORE.SYSTEM>
0

>  <SCORE.SYSTEM.CONST>
0

>  <SCORE.SYSTEM.DIHEDRAL>
0

>  <SCORE.SYSTEM.SOLV>
0

>  <SCORE.SYSTEM.norm>
0

>  <SCORE.heavy>
44

>  <SCORE.norm>
-0.140179

>  <RMSD>
3.306

$$$$
ligand
 OpenBabel11021811513D
libRbt.so/2013.1/901 2013/11/27
 44 50  0  0  0  0  0  0  0  0999 V2000
  -11.8515   34.2609  -16.2971 P   0  0  2  0  0  0  0  0  0  0  0  0
   -7.8312   34.4558  -12.6908 P   0  0  1  0  0  0  0  0  0  0  0  0
  -13.3451   34.2923  -15.9828 O   0  5  0  0  0  0  0  0  0  0  0  0
   -6.8343   33.4270  -13.1659 O   0  5  0  0  0  0  0  0  0  0  0  0
  -11.7160   33.5409  -17.6172 O   0  0  0  0  0  0  0  0  0  0  0  0
   -7.1304   35.3137  -11.6130 O   0  0  0  0  0  0  0  0  0  0  0  0
  -11.8770   33.6416  -13.8360 C   0  0  0  0  0  0  0  0  0  0  0  0
   -9.4118   36.1610  -13.8143 C   0  0  0  0  0  0  0  0  0  0  0  0
  -11.2004   33.5066  -15.0931 O   0  0  0  0  0  0  0  0  0  0  0  0
   -8.3489   35.1984  -14.0639 O   0  0  0  0  0  0  0  0  0  0  0  0
  -11.1652   32.8211  -12.7656 C   0  0  1  0  0  0  0  0  0  0  0  0
   -9.6914   36.8744  -15.1907 C   0  0  1  0  0  0  0  0  0  0  0  0
  -11.6017   31.6016  -12.8342 O   0  0  0  0  0  0  0  0  0  0  0  0
   -8.5539   37.2630  -15.6019 O   0  0  0  0  0  0  0  0  0  0  0  0
   -9.6679   32.7570  -12.9610 C   0  0  1  0  0  0  0  0  0  0  0  0
  -10.1069   35.8523  -16.2676 C   0  0  1  0  0  0  0  0  0  0  0  0
   -9.1251   33.6652  -12.1073 O   0  0  0  0  0  0  0  0  0  0  0  0
  -11.4315   35.8579  -16.4607 O   0  0  0  0  0  0  0  0  0  0  0  0
   -9.2999   31.2998  -12.5123 C   0  0  1  0  0  0  0  0  0  0  0  0
   -9.3516   36.2305  -17.5622 C   0  0  1  0  0  0  0  0  0  0  0  0
   -8.7263   31.3174  -11.1397 O   0  0  0  0  0  0  0  0  0  0  0  0
  -10.2652   36.9408  -18.5141 O   0  0  0  0  0  0  0  0  0  0  0  0
  -10.3961   30.6122  -12.5495 C   0  0  2  0  0  0  0  0  0  0  0  0
   -8.4181   37.0326  -17.1799 C   0  0  2  0  0  0  0  0  0  0  0  0
   -9.2476   28.7418  -17.4489 N   0  0  0  0  0  0  0  0  0  0  0  0
   -9.0184   30.0111  -17.0090 C   0  0  0  0  0  0  0  0  0  0  0  0
   -9.3484   30.3909  -15.7329 N   0  0  0  0  0  0  0  0  0  0  0  0
   -9.9197   29.4740  -14.8944 C   0  0  0  0  0  0  0  0  0  0  0  0
  -10.1578   28.2239  -15.3150 C   0  0  0  0  0  0  0  0  0  0  0  0
   -9.8107   27.8435  -16.6102 C   0  0  0  0  0  0  0  0  0  0  0  0
  -10.0064   26.5667  -17.1728 N   0  0  0  0  0  0  0  0  0  0  0  0
  -10.7157   27.5424  -14.2920 N   0  0  0  0  0  0  0  0  0  0  0  0
  -10.8260   28.3935  -13.2325 C   0  0  0  0  0  0  0  0  0  0  0  0
  -10.3202   29.5794  -13.5958 N   0  0  0  0  0  0  0  0  0  0  0  0
   -3.9347   35.1233  -15.3433 N   0  0  0  0  0  0  0  0  0  0  0  0
   -5.0108   35.5188  -14.6141 C   0  0  0  0  0  0  0  0  0  0  0  0
   -6.1158   36.0074  -15.2524 N   0  0  0  0  0  0  0  0  0  0  0  0
   -6.1413   36.0924  -16.6098 C   0  0  0  0  0  0  0  0  0  0  0  0
   -5.0789   35.6975  -17.3402 C   0  0  0  0  0  0  0  0  0  0  0  0
   -3.9560   35.2048  -16.6817 C   0  0  0  0  0  0  0  0  0  0  0  0
   -2.7149   34.7488  -17.2533 N   0  0  0  0  0  0  0  0  0  0  0  0
   -5.3866   35.8980  -18.6441 N   0  0  0  0  0  0  0  0  0  0  0  0
   -6.6474   36.4136  -18.7112 C   0  0  0  0  0  0  0  0  0  0  0  0
   -7.1065   36.5272  -17.4485 N   0  0  0  0  0  0  0  0  0  0  0  0
  1  3  1  1  0  0  0
  1  5  2  0  0  0  0
  1  9  1  0  0  0  0
  1 18  1  0  0  0  0
  2  4  1  6  0  0  0
  2  6  2  0  0  0  0
  2 10  1  0  0  0  0
  2 17  1  0  0  0  0
  7  9  1  0  0  0  0
  8 10  1  0  0  0  0
 11  7  1  6  0  0  0
 11 13  1  0  0  0  0
 11 15  1  0  0  0  0
 12  8  1  1  0  0  0
 12 14  1  0  0  0  0
 12 16  1  0  0  0  0
 13 23  1  0  0  0  0
 14 24  1  0  0  0  0
 15 17  1  1  0  0  0
 15 19  1  0  0  0  0
 16 18  1  6  0  0  0
 16 20  1  0  0  0  0
 19 21  1  1  0  0  0
 19 23  1  0  0  0  0
 20 22  1  6  0  0  0
 20 24  1  0  0  0  0
 23 34  1  6  0  0  0
 24 44  1  1  0  0  0
 25 26  2  0  0  0  0
 25 30  1  0  0  0  0
 26 27  1  0  0  0  0
 27 28  2  0  0  0  0
 28 29  1  0  0  0  0
 28 34  1  0  0  0  0
 29 30  2  0  0  0  0
 29 32  1  0  0  0  0
 30 31  1  0  0  0  0
 32 33  2  0  0  0  0
 33 34  1  0  0  0  0
 35 36  2  0  0  0  0
 35 40  1  0  0  0  0
 36 37  1  0  0  0  0
 37 38  2  0  0  0  0
 38 39  1  0  0  0  0
 38 44  1  0  0  0  0
 39 40  2  0  0  0  0
 39 42  1  0  0  0  0
 40 41  1  0  0  0  0
 42 43  2  0  0  0  0
 43 44  1  0  0  0  0
M  CHG  2   3  -1   4  -1
M  END
>  <CHROM.1>
75.11763052,9.55916457,-8.95234160,33.47313503,-15.16491219,2.07632178,0.10338969
2.79854975

>  <Name>
ligand

>  <RI>
0

>  <Rbt.Current_Directory>
/home/itssahil/PROJECTS/Mol_Feturizer/New_Systems/rnas/4QLM

>  <Rbt.Executable>
rbdock ($Id: //depot/dev/client3/rdock/2013.1/src/exe/rbdock.cxx#4 $)

>  <Rbt.Library>
libRbt.so (2013.1, Build901 2013/11/27)

>  <Rbt.Parameter_File>
/export/apps/rDock/src/rDock_2013.1_src/data/scripts/dock_solv.prm

>  <Rbt.Receptor>
prm/pocket_docking_3.prm

>  <SCORE>
-4.89562

>  <SCORE.INTER>
-4.96651

>  <SCORE.INTER.CONST>
1

>  <SCORE.INTER.POLAR>
0

>  <SCORE.INTER.ROT>
2

>  <SCORE.INTER.SOLV>
29.1969

>  <SCORE.INTER.VDW>
-17.9767

>  <SCORE.INTER.norm>
-0.112875

>  <SCORE.INTRA>
-1.17198

>  <SCORE.INTRA.DIHEDRAL>
-0.0156507

>  <SCORE.INTRA.DIHEDRAL.0>
2.32994

>  <SCORE.INTRA.POLAR>
0

>  <SCORE.INTRA.POLAR.0>
0

>  <SCORE.INTRA.REPUL>
0

>  <SCORE.INTRA.REPUL.0>
0

>  <SCORE.INTRA.SOLV>
1.19108

>  <SCORE.INTRA.SOLV.lig_0>
-117.703

>  <SCORE.INTRA.VDW>
-1.75969

>  <SCORE.INTRA.VDW.0>
-1.59997

>  <SCORE.INTRA.norm>
-0.026636

>  <SCORE.RESTR>
1.24288

>  <SCORE.RESTR.CAVITY>
1.24288

>  <SCORE.RESTR.norm>
0.0282473

>  <SCORE.SYSTEM>
0

>  <SCORE.SYSTEM.CONST>
0

>  <SCORE.SYSTEM.DIHEDRAL>
0

>  <SCORE.SYSTEM.SOLV>
0

>  <SCORE.SYSTEM.norm>
0

>  <SCORE.heavy>
44

>  <SCORE.norm>
-0.111264

>  <RMSD>
3.342

$$$$
ligand
 OpenBabel11021811513D
libRbt.so/2013.1/901 2013/11/27
 44 50  0  0  0  0  0  0  0  0999 V2000
   -5.7490   33.6868  -12.6056 P   0  0  2  0  0  0  0  0  0  0  0  0
   -9.1721   37.5666  -14.1661 P   0  0  1  0  0  0  0  0  0  0  0  0
   -4.6949   33.8044  -11.5076 O   0  5  0  0  0  0  0  0  0  0  0  0
   -9.1785   37.4944  -15.6737 O   0  5  0  0  0  0  0  0  0  0  0  0
   -5.2496   32.6232  -13.5538 O   0  0  0  0  0  0  0  0  0  0  0  0
  -10.3596   38.4605  -13.7423 O   0  0  0  0  0  0  0  0  0  0  0  0
   -5.5371   36.2037  -12.3574 C   0  0  0  0  0  0  0  0  0  0  0  0
   -9.0432   35.8625  -12.2302 C   0  0  0  0  0  0  0  0  0  0  0  0
   -5.8339   35.1128  -13.2396 O   0  0  0  0  0  0  0  0  0  0  0  0
   -9.1627   35.9971  -13.6746 O   0  0  0  0  0  0  0  0  0  0  0  0
   -5.6106   37.5258  -13.1137 C   0  0  1  0  0  0  0  0  0  0  0  0
   -9.1898   34.3255  -11.9179 C   0  0  1  0  0  0  0  0  0  0  0  0
   -4.4673   37.7242  -13.6932 O   0  0  0  0  0  0  0  0  0  0  0  0
  -10.2528   33.9645  -12.5127 O   0  0  0  0  0  0  0  0  0  0  0  0
   -6.6562   37.5310  -14.2050 C   0  0  1  0  0  0  0  0  0  0  0  0
   -8.1035   33.5085  -12.6455 C   0  0  1  0  0  0  0  0  0  0  0  0
   -7.7405   38.1784  -13.7016 O   0  0  0  0  0  0  0  0  0  0  0  0
   -7.1116   33.1662  -11.8144 O   0  0  0  0  0  0  0  0  0  0  0  0
   -5.9947   38.3814  -15.3449 C   0  0  1  0  0  0  0  0  0  0  0  0
   -8.7979   32.2582  -13.2320 C   0  0  1  0  0  0  0  0  0  0  0  0
   -6.5533   39.7603  -15.3434 O   0  0  0  0  0  0  0  0  0  0  0  0
   -8.5123   31.0544  -12.3866 O   0  0  0  0  0  0  0  0  0  0  0  0
   -4.7224   38.3947  -15.1070 C   0  0  2  0  0  0  0  0  0  0  0  0
  -10.0577   32.5270  -13.1889 C   0  0  2  0  0  0  0  0  0  0  0  0
   -2.8443   34.0064  -17.5642 N   0  0  0  0  0  0  0  0  0  0  0  0
   -3.6126   34.0196  -16.4387 C   0  0  0  0  0  0  0  0  0  0  0  0
   -4.0446   35.1990  -15.8875 N   0  0  0  0  0  0  0  0  0  0  0  0
   -3.6912   36.3785  -16.4827 C   0  0  0  0  0  0  0  0  0  0  0  0
   -2.9300   36.3818  -17.5859 C   0  0  0  0  0  0  0  0  0  0  0  0
   -2.5032   35.1785  -18.1450 C   0  0  0  0  0  0  0  0  0  0  0  0
   -1.7033   35.0449  -19.2971 N   0  0  0  0  0  0  0  0  0  0  0  0
   -2.7430   37.6666  -17.9556 N   0  0  0  0  0  0  0  0  0  0  0  0
   -3.3951   38.4598  -17.0584 C   0  0  0  0  0  0  0  0  0  0  0  0
   -3.9945   37.6675  -16.1600 N   0  0  0  0  0  0  0  0  0  0  0  0
  -10.3171   34.6775  -17.9248 N   0  0  0  0  0  0  0  0  0  0  0  0
   -9.4916   35.0422  -16.9089 C   0  0  0  0  0  0  0  0  0  0  0  0
   -9.5533   34.3765  -15.7172 N   0  0  0  0  0  0  0  0  0  0  0  0
  -10.4314   33.3511  -15.5498 C   0  0  0  0  0  0  0  0  0  0  0  0
  -11.2504   32.9807  -16.5550 C   0  0  0  0  0  0  0  0  0  0  0  0
  -11.1836   33.6668  -17.7642 C   0  0  0  0  0  0  0  0  0  0  0  0
  -11.9681   33.4564  -18.9539 N   0  0  0  0  0  0  0  0  0  0  0  0
  -12.0043   31.9495  -16.1041 N   0  0  0  0  0  0  0  0  0  0  0  0
  -11.6398   31.6845  -14.8169 C   0  0  0  0  0  0  0  0  0  0  0  0
  -10.6647   32.5544  -14.4846 N   0  0  0  0  0  0  0  0  0  0  0  0
  1  3  1  1  0  0  0
  1  5  2  0  0  0  0
  1  9  1  0  0  0  0
  1 18  1  0  0  0  0
  2  4  1  6  0  0  0
  2  6  2  0  0  0  0
  2 10  1  0  0  0  0
  2 17  1  0  0  0  0
  7  9  1  0  0  0  0
  8 10  1  0  0  0  0
 11  7  1  6  0  0  0
 11 13  1  0  0  0  0
 11 15  1  0  0  0  0
 12  8  1  6  0  0  0
 12 14  1  0  0  0  0
 12 16  1  0  0  0  0
 13 23  1  0  0  0  0
 14 24  1  0  0  0  0
 15 17  1  1  0  0  0
 15 19  1  0  0  0  0
 16 18  1  1  0  0  0
 16 20  1  0  0  0  0
 19 21  1  1  0  0  0
 19 23  1  0  0  0  0
 20 22  1  1  0  0  0
 20 24  1  0  0  0  0
 23 34  1  6  0  0  0
 24 44  1  6  0  0  0
 25 26  2  0  0  0  0
 25 30  1  0  0  0  0
 26 27  1  0  0  0  0
 27 28  2  0  0  0  0
 28 29  1  0  0  0  0
 28 34  1  0  0  0  0
 29 30  2  0  0  0  0
 29 32  1  0  0  0  0
 30 31  1  0  0  0  0
 32 33  2  0  0  0  0
 33 34  1  0  0  0  0
 35 36  2  0  0  0  0
 35 40  1  0  0  0  0
 36 37  1  0  0  0  0
 37 38  2  0  0  0  0
 38 39  1  0  0  0  0
 38 44  1  0  0  0  0
 39 40  2  0  0  0  0
 39 42  1  0  0  0  0
 40 41  1  0  0  0  0
 42 43  2  0  0  0  0
 43 44  1  0  0  0  0
M  CHG  2   3  -1   4  -1
M  END
>  <CHROM.1>
38.86448523,58.13349583,-7.24537953,35.24950347,-14.78318415,-0.39745489
0.32409122,2.02643274

>  <Name>
ligand

>  <RI>
0

>  <Rbt.Current_Directory>
/home/itssahil/PROJECTS/Mol_Feturizer/New_Systems/rnas/4QLM

>  <Rbt.Executable>
rbdock ($Id: //depot/dev/client3/rdock/2013.1/src/exe/rbdock.cxx#4 $)

>  <Rbt.Library>
libRbt.so (2013.1, Build901 2013/11/27)

>  <Rbt.Parameter_File>
/export/apps/rDock/src/rDock_2013.1_src/data/scripts/dock_solv.prm

>  <Rbt.Receptor>
prm/pocket_docking_3.prm

>  <SCORE>
-6.6751

>  <SCORE.INTER>
-6.48122

>  <SCORE.INTER.CONST>
1

>  <SCORE.INTER.POLAR>
0

>  <SCORE.INTER.ROT>
2

>  <SCORE.INTER.SOLV>
29.1956

>  <SCORE.INTER.VDW>
-18.986

>  <SCORE.INTER.norm>
-0.147301

>  <SCORE.INTRA>
-1.58387

>  <SCORE.INTRA.DIHEDRAL>
0.158038

>  <SCORE.INTRA.DIHEDRAL.0>
2.32994

>  <SCORE.INTRA.POLAR>
0

>  <SCORE.INTRA.POLAR.0>
0

>  <SCORE.INTRA.REPUL>
0

>  <SCORE.INTRA.REPUL.0>
0

>  <SCORE.INTRA.SOLV>
1.43723

>  <SCORE.INTRA.SOLV.lig_0>
-117.703

>  <SCORE.INTRA.VDW>
-2.38151

>  <SCORE.INTRA.VDW.0>
-1.59997

>  <SCORE.INTRA.norm>
-0.0359971

>  <SCORE.RESTR>
1.39

>  <SCORE.RESTR.CAVITY>
1.39

>  <SCORE.RESTR.norm>
0.0315909

>  <SCORE.SYSTEM>
0

>  <SCORE.SYSTEM.CONST>
0

>  <SCORE.SYSTEM.DIHEDRAL>
0

>  <SCORE.SYSTEM.SOLV>
0

>  <SCORE.SYSTEM.norm>
0

>  <SCORE.heavy>
44

>  <SCORE.norm>
-0.151707

>  <RMSD>
3.435

$$$$
ligand
 OpenBabel11021811513D
libRbt.so/2013.1/901 2013/11/27
 44 50  0  0  0  0  0  0  0  0999 V2000
   -6.3478   33.6421  -12.7388 P   0  0  2  0  0  0  0  0  0  0  0  0
   -9.8865   37.5668  -13.8703 P   0  0  1  0  0  0  0  0  0  0  0  0
   -5.2552   33.6946  -11.6740 O   0  5  0  0  0  0  0  0  0  0  0  0
   -9.9485   37.6100  -15.3777 O   0  5  0  0  0  0  0  0  0  0  0  0
   -5.8682   32.6635  -13.7837 O   0  0  0  0  0  0  0  0  0  0  0  0
  -11.0709   38.4039  -13.3359 O   0  0  0  0  0  0  0  0  0  0  0  0
   -6.1655   36.1361  -12.3051 C   0  0  0  0  0  0  0  0  0  0  0  0
   -9.6587   35.7223  -12.0775 C   0  0  0  0  0  0  0  0  0  0  0  0
   -6.4785   35.1106  -13.2574 O   0  0  0  0  0  0  0  0  0  0  0  0
   -9.8345   35.9648  -13.5019 O   0  0  0  0  0  0  0  0  0  0  0  0
   -6.2878   37.5106  -12.9540 C   0  0  1  0  0  0  0  0  0  0  0  0
   -9.7698   34.1634  -11.8795 C   0  0  1  0  0  0  0  0  0  0  0  0
   -5.1703   37.7735  -13.5577 O   0  0  0  0  0  0  0  0  0  0  0  0
  -10.8487   33.8297  -12.4614 O   0  0  0  0  0  0  0  0  0  0  0  0
   -7.3736   37.5802  -14.0031 C   0  0  1  0  0  0  0  0  0  0  0  0
   -8.6992   33.4244  -12.7069 C   0  0  1  0  0  0  0  0  0  0  0  0
   -8.4481   38.1673  -13.4122 O   0  0  0  0  0  0  0  0  0  0  0  0
   -7.6715   33.0377  -11.9412 O   0  0  0  0  0  0  0  0  0  0  0  0
   -6.7686   38.5272  -15.0972 C   0  0  1  0  0  0  0  0  0  0  0  0
   -9.3958   32.2102  -13.3624 C   0  0  1  0  0  0  0  0  0  0  0  0
   -7.3479   39.8916  -14.9691 O   0  0  0  0  0  0  0  0  0  0  0  0
   -9.0601   30.9508  -12.6233 O   0  0  0  0  0  0  0  0  0  0  0  0
   -5.4886   38.5455  -14.9054 C   0  0  2  0  0  0  0  0  0  0  0  0
  -10.6570   32.4519  -13.2531 C   0  0  2  0  0  0  0  0  0  0  0  0
   -1.6865   35.5143  -17.1809 N   0  0  0  0  0  0  0  0  0  0  0  0
   -1.8413   35.7235  -15.8432 C   0  0  0  0  0  0  0  0  0  0  0  0
   -2.8501   36.5177  -15.3605 N   0  0  0  0  0  0  0  0  0  0  0  0
   -3.7101   37.1086  -16.2445 C   0  0  0  0  0  0  0  0  0  0  0  0
   -3.5662   36.9181  -17.5634 C   0  0  0  0  0  0  0  0  0  0  0  0
   -2.5441   36.1019  -18.0450 C   0  0  0  0  0  0  0  0  0  0  0  0
   -2.2857   35.8212  -19.4013 N   0  0  0  0  0  0  0  0  0  0  0  0
   -4.5432   37.6074  -18.1900 N   0  0  0  0  0  0  0  0  0  0  0  0
   -5.2906   38.2343  -17.2373 C   0  0  0  0  0  0  0  0  0  0  0  0
   -4.7897   37.9144  -16.0370 N   0  0  0  0  0  0  0  0  0  0  0  0
  -10.5656   34.2076  -18.1551 N   0  0  0  0  0  0  0  0  0  0  0  0
   -9.6015   34.3746  -17.2122 C   0  0  0  0  0  0  0  0  0  0  0  0
   -9.7832   33.8541  -15.9619 N   0  0  0  0  0  0  0  0  0  0  0  0
  -10.9194   33.1681  -15.6637 C   0  0  0  0  0  0  0  0  0  0  0  0
  -11.8783   32.9946  -16.5957 C   0  0  0  0  0  0  0  0  0  0  0  0
  -11.6868   33.5314  -17.8655 C   0  0  0  0  0  0  0  0  0  0  0  0
  -12.5765   33.4847  -18.9974 N   0  0  0  0  0  0  0  0  0  0  0  0
  -12.8792   32.2863  -16.0199 N   0  0  0  0  0  0  0  0  0  0  0  0
  -12.5272   32.0204  -14.7295 C   0  0  0  0  0  0  0  0  0  0  0  0
  -11.3127   32.5673  -14.5200 N   0  0  0  0  0  0  0  0  0  0  0  0
  1  3  1  1  0  0  0
  1  5  2  0  0  0  0
  1  9  1  0  0  0  0
  1 18  1  0  0  0  0
  2  4  1  6  0  0  0
  2  6  2  0  0  0  0
  2 10  1  0  0  0  0
  2 17  1  0  0  0  0
  7  9  1  0  0  0  0
  8 10  1  0  0  0  0
 11  7  1  6  0  0  0
 11 13  1  0  0  0  0
 11 15  1  0  0  0  0
 12  8  1  6  0  0  0
 12 14  1  0  0  0  0
 12 16  1  0  0  0  0
 13 23  1  0  0  0  0
 14 24  1  0  0  0  0
 15 17  1  1  0  0  0
 15 19  1  0  0  0  0
 16 18  1  1  0  0  0
 16 20  1  0  0  0  0
 19 21  1  1  0  0  0
 19 23  1  0  0  0  0
 20 22  1  1  0  0  0
 20 24  1  0  0  0  0
 23 34  1  6  0  0  0
 24 44  1  6  0  0  0
 25 26  2  0  0  0  0
 25 30  1  0  0  0  0
 26 27  1  0  0  0  0
 27 28  2  0  0  0  0
 28 29  1  0  0  0  0
 28 34  1  0  0  0  0
 29 30  2  0  0  0  0
 29 32  1  0  0  0  0
 30 31  1  0  0  0  0
 32 33  2  0  0  0  0
 33 34  1  0  0  0  0
 35 36  2  0  0  0  0
 35 40  1  0  0  0  0
 36 37  1  0  0  0  0
 37 38  2  0  0  0  0
 38 39  1  0  0  0  0
 38 44  1  0  0  0  0
 39 40  2  0  0  0  0
 39 42  1  0  0  0  0
 40 41  1  0  0  0  0
 42 43  2  0  0  0  0
 43 44  1  0  0  0  0
M  CHG  2   3  -1   4  -1
M  END
>  <CHROM.1>
-21.95721513,79.29439150,-7.77573446,35.36126225,-14.72497839,-0.34303937
0.37183623,1.93964487

>  <Name>
ligand

>  <RI>
0

>  <Rbt.Current_Directory>
/home/itssahil/PROJECTS/Mol_Feturizer/New_Systems/rnas/4QLM

>  <Rbt.Executable>
rbdock ($Id: //depot/dev/client3/rdock/2013.1/src/exe/rbdock.cxx#4 $)

>  <Rbt.Library>
libRbt.so (2013.1, Build901 2013/11/27)

>  <Rbt.Parameter_File>
/export/apps/rDock/src/rDock_2013.1_src/data/scripts/dock_solv.prm

>  <Rbt.Receptor>
prm/pocket_docking_4.prm

>  <SCORE>
-7.29118

>  <SCORE.INTER>
-8.41897

>  <SCORE.INTER.CONST>
1

>  <SCORE.INTER.POLAR>
0

>  <SCORE.INTER.ROT>
2

>  <SCORE.INTER.SOLV>
25.1594

>  <SCORE.INTER.VDW>
-18.9324

>  <SCORE.INTER.norm>
-0.19134

>  <SCORE.INTRA>
1.12778

>  <SCORE.INTRA.DIHEDRAL>
-0.0122016

>  <SCORE.INTRA.DIHEDRAL.0>
2.32994

>  <SCORE.INTRA.POLAR>
0

>  <SCORE.INTRA.POLAR.0>
0

>  <SCORE.INTRA.REPUL>
0

>  <SCORE.INTRA.REPUL.0>
0

>  <SCORE.INTRA.SOLV>
0.283386

>  <SCORE.INTRA.SOLV.lig_0>
-117.703

>  <SCORE.INTRA.VDW>
0.992193

>  <SCORE.INTRA.VDW.0>
-1.59997

>  <SCORE.INTRA.norm>
0.0256315

>  <SCORE.RESTR>
0

>  <SCORE.RESTR.CAVITY>
0

>  <SCORE.RESTR.norm>
0

>  <SCORE.SYSTEM>
0

>  <SCORE.SYSTEM.CONST>
0

>  <SCORE.SYSTEM.DIHEDRAL>
0

>  <SCORE.SYSTEM.SOLV>
0

>  <SCORE.SYSTEM.norm>
0

>  <SCORE.heavy>
44

>  <SCORE.norm>
-0.165709

>  <RMSD>
3.559

$$$$
ligand
 OpenBabel11021811513D
libRbt.so/2013.1/901 2013/11/27
 44 50  0  0  0  0  0  0  0  0999 V2000
   -6.2295   33.5425  -12.4954 P   0  0  2  0  0  0  0  0  0  0  0  0
   -9.7418   37.3471  -14.0431 P   0  0  1  0  0  0  0  0  0  0  0  0
   -5.1955   33.6721  -11.3799 O   0  5  0  0  0  0  0  0  0  0  0  0
   -9.7241   37.3003  -15.5516 O   0  5  0  0  0  0  0  0  0  0  0  0
   -5.6854   32.5102  -13.4534 O   0  0  0  0  0  0  0  0  0  0  0  0
  -10.9610   38.1988  -13.6225 O   0  0  0  0  0  0  0  0  0  0  0  0
   -6.0951   36.0599  -12.2025 C   0  0  0  0  0  0  0  0  0  0  0  0
   -9.5912   35.6149  -12.1338 C   0  0  0  0  0  0  0  0  0  0  0  0
   -6.3470   34.9760  -13.1069 O   0  0  0  0  0  0  0  0  0  0  0  0
   -9.6936   35.7705  -13.5774 O   0  0  0  0  0  0  0  0  0  0  0  0
   -6.1964   37.3920  -12.9379 C   0  0  1  0  0  0  0  0  0  0  0  0
   -9.6973   34.0692  -11.8492 C   0  0  1  0  0  0  0  0  0  0  0  0
   -5.0510   37.6333  -13.4967 O   0  0  0  0  0  0  0  0  0  0  0  0
  -10.7404   33.6876  -12.4658 O   0  0  0  0  0  0  0  0  0  0  0  0
   -7.2256   37.3853  -14.0446 C   0  0  1  0  0  0  0  0  0  0  0  0
   -8.5770   33.2966  -12.5738 C   0  0  1  0  0  0  0  0  0  0  0  0
   -8.3357   37.9923  -13.5470 O   0  0  0  0  0  0  0  0  0  0  0  0
   -7.5877   32.9692  -11.7336 O   0  0  0  0  0  0  0  0  0  0  0  0
   -6.5728   38.2738  -15.1602 C   0  0  1  0  0  0  0  0  0  0  0  0
   -9.2258   32.0368  -13.1912 C   0  0  1  0  0  0  0  0  0  0  0  0
   -7.1715   39.6357  -15.1443 O   0  0  0  0  0  0  0  0  0  0  0  0
   -8.9174   30.8277  -12.3616 O   0  0  0  0  0  0  0  0  0  0  0  0
   -5.3050   38.3200  -14.9030 C   0  0  2  0  0  0  0  0  0  0  0  0
  -10.4934   32.2681  -13.1627 C   0  0  2  0  0  0  0  0  0  0  0  0
   -3.0658   34.0579  -17.2783 N   0  0  0  0  0  0  0  0  0  0  0  0
   -3.7942   34.0344  -16.1267 C   0  0  0  0  0  0  0  0  0  0  0  0
   -4.3272   35.1833  -15.6000 N   0  0  0  0  0  0  0  0  0  0  0  0
   -4.1170   36.3697  -16.2469 C   0  0  0  0  0  0  0  0  0  0  0  0
   -3.3966   36.4097  -17.3764 C   0  0  0  0  0  0  0  0  0  0  0  0
   -2.8665   35.2363  -17.9100 C   0  0  0  0  0  0  0  0  0  0  0  0
   -2.0952   35.1422  -19.0853 N   0  0  0  0  0  0  0  0  0  0  0  0
   -3.3552   37.6923  -17.7955 N   0  0  0  0  0  0  0  0  0  0  0  0
   -4.0559   38.4476  -16.9024 C   0  0  0  0  0  0  0  0  0  0  0  0
   -4.5408   37.6323  -15.9567 N   0  0  0  0  0  0  0  0  0  0  0  0
  -12.7313   35.0465  -16.9564 N   0  0  0  0  0  0  0  0  0  0  0  0
  -12.2997   35.5095  -15.7541 C   0  0  0  0  0  0  0  0  0  0  0  0
  -11.7368   34.6431  -14.8598 N   0  0  0  0  0  0  0  0  0  0  0  0
  -11.6038   33.3259  -15.1729 C   0  0  0  0  0  0  0  0  0  0  0  0
  -12.0256   32.8602  -16.3659 C   0  0  0  0  0  0  0  0  0  0  0  0
  -12.6013   33.7490  -17.2692 C   0  0  0  0  0  0  0  0  0  0  0  0
  -13.1333   33.4708  -18.5786 N   0  0  0  0  0  0  0  0  0  0  0  0
  -11.7699   31.5302  -16.3949 N   0  0  0  0  0  0  0  0  0  0  0  0
  -11.1830   31.1820  -15.2141 C   0  0  0  0  0  0  0  0  0  0  0  0
  -11.0820   32.2998  -14.4668 N   0  0  0  0  0  0  0  0  0  0  0  0
  1  3  1  1  0  0  0
  1  5  2  0  0  0  0
  1  9  1  0  0  0  0
  1 18  1  0  0  0  0
  2  4  1  6  0  0  0
  2  6  2  0  0  0  0
  2 10  1  0  0  0  0
  2 17  1  0  0  0  0
  7  9  1  0  0  0  0
  8 10  1  0  0  0  0
 11  7  1  6  0  0  0
 11 13  1  0  0  0  0
 11 15  1  0  0  0  0
 12  8  1  6  0  0  0
 12 14  1  0  0  0  0
 12 16  1  0  0  0  0
 13 23  1  0  0  0  0
 14 24  1  0  0  0  0
 15 17  1  1  0  0  0
 15 19  1  0  0  0  0
 16 18  1  1  0  0  0
 16 20  1  0  0  0  0
 19 21  1  1  0  0  0
 19 23  1  0  0  0  0
 20 22  1  1  0  0  0
 20 24  1  0  0  0  0
 23 34  1  6  0  0  0
 24 44  1  6  0  0  0
 25 26  2  0  0  0  0
 25 30  1  0  0  0  0
 26 27  1  0  0  0  0
 27 28  2  0  0  0  0
 28 29  1  0  0  0  0
 28 34  1  0  0  0  0
 29 30  2  0  0  0  0
 29 32  1  0  0  0  0
 30 31  1  0  0  0  0
 32 33  2  0  0  0  0
 33 34  1  0  0  0  0
 35 36  2  0  0  0  0
 35 40  1  0  0  0  0
 36 37  1  0  0  0  0
 37 38  2  0  0  0  0
 38 39  1  0  0  0  0
 38 44  1  0  0  0  0
 39 40  2  0  0  0  0
 39 42  1  0  0  0  0
 40 41  1  0  0  0  0
 42 43  2  0  0  0  0
 43 44  1  0  0  0  0
M  CHG  2   3  -1   4  -1
M  END
>  <CHROM.1>
32.97770614,9.26721007,-7.87790725,35.14333915,-14.59123548,-0.42293591,0.08223939
2.57489439

>  <Name>
ligand

>  <RI>
0

>  <Rbt.Current_Directory>
/home/itssahil/PROJECTS/Mol_Feturizer/New_Systems/rnas/4QLM

>  <Rbt.Executable>
rbdock ($Id: //depot/dev/client3/rdock/2013.1/src/exe/rbdock.cxx#4 $)

>  <Rbt.Library>
libRbt.so (2013.1, Build901 2013/11/27)

>  <Rbt.Parameter_File>
/export/apps/rDock/src/rDock_2013.1_src/data/scripts/dock_solv.prm

>  <Rbt.Receptor>
prm/pocket_docking_5.prm

>  <SCORE>
-8.77995

>  <SCORE.INTER>
-7.5067

>  <SCORE.INTER.CONST>
1

>  <SCORE.INTER.POLAR>
0

>  <SCORE.INTER.ROT>
2

>  <SCORE.INTER.SOLV>
23.756

>  <SCORE.INTER.VDW>
-17.8565

>  <SCORE.INTER.norm>
-0.170607

>  <SCORE.INTRA>
-1.27325

>  <SCORE.INTRA.DIHEDRAL>
0.166648

>  <SCORE.INTRA.DIHEDRAL.0>
2.32994

>  <SCORE.INTRA.POLAR>
0

>  <SCORE.INTRA.POLAR.0>
0

>  <SCORE.INTRA.REPUL>
0

>  <SCORE.INTRA.REPUL.0>
0

>  <SCORE.INTRA.SOLV>
1.5454

>  <SCORE.INTRA.SOLV.lig_0>
-117.703

>  <SCORE.INTRA.VDW>
-2.12928

>  <SCORE.INTRA.VDW.0>
-1.59997

>  <SCORE.INTRA.norm>
-0.0289376

>  <SCORE.RESTR>
0

>  <SCORE.RESTR.CAVITY>
0

>  <SCORE.RESTR.norm>
0

>  <SCORE.SYSTEM>
0

>  <SCORE.SYSTEM.CONST>
0

>  <SCORE.SYSTEM.DIHEDRAL>
0

>  <SCORE.SYSTEM.SOLV>
0

>  <SCORE.SYSTEM.norm>
0

>  <SCORE.heavy>
44

>  <SCORE.norm>
-0.199544

>  <RMSD>
3.595

$$$$
ligand
 OpenBabel11021811513D
libRbt.so/2013.1/901 2013/11/27
 44 50  0  0  0  0  0  0  0  0999 V2000
   -6.2741   33.5309  -12.5282 P   0  0  2  0  0  0  0  0  0  0  0  0
   -9.7057   37.4688  -13.9149 P   0  0  1  0  0  0  0  0  0  0  0  0
   -5.2446   33.5889  -11.4025 O   0  5  0  0  0  0  0  0  0  0  0  0
   -9.6797   37.4920  -15.4238 O   0  5  0  0  0  0  0  0  0  0  0  0
   -5.7434   32.5342  -13.5305 O   0  0  0  0  0  0  0  0  0  0  0  0
  -10.9115   38.3228  -13.4613 O   0  0  0  0  0  0  0  0  0  0  0  0
   -6.0948   36.0289  -12.1174 C   0  0  0  0  0  0  0  0  0  0  0  0
   -9.5989   35.6471  -12.0878 C   0  0  0  0  0  0  0  0  0  0  0  0
   -6.3612   34.9933  -13.0728 O   0  0  0  0  0  0  0  0  0  0  0  0
   -9.6896   35.8716  -13.5231 O   0  0  0  0  0  0  0  0  0  0  0  0
   -6.1668   37.3955  -12.7903 C   0  0  1  0  0  0  0  0  0  0  0  0
   -9.7353   34.0920  -11.8762 C   0  0  1  0  0  0  0  0  0  0  0  0
   -5.0138   37.6410  -13.3314 O   0  0  0  0  0  0  0  0  0  0  0  0
  -10.7816   33.7592  -12.5154 O   0  0  0  0  0  0  0  0  0  0  0  0
   -7.1893   37.4597  -13.9015 C   0  0  1  0  0  0  0  0  0  0  0  0
   -8.6252   33.3330  -12.6302 C   0  0  1  0  0  0  0  0  0  0  0  0
   -8.2909   38.0637  -13.3819 O   0  0  0  0  0  0  0  0  0  0  0  0
   -7.6472   32.9484  -11.8011 O   0  0  0  0  0  0  0  0  0  0  0  0
   -6.5133   38.3867  -14.9710 C   0  0  1  0  0  0  0  0  0  0  0  0
   -9.2935   32.1158  -13.3091 C   0  0  1  0  0  0  0  0  0  0  0  0
   -7.0868   39.7574  -14.8947 O   0  0  0  0  0  0  0  0  0  0  0  0
   -9.0126   30.8638  -12.5353 O   0  0  0  0  0  0  0  0  0  0  0  0
   -5.2464   38.3970  -14.7053 C   0  0  2  0  0  0  0  0  0  0  0  0
  -10.5567   32.3693  -13.2765 C   0  0  2  0  0  0  0  0  0  0  0  0
   -3.2207   34.1934  -17.3600 N   0  0  0  0  0  0  0  0  0  0  0  0
   -3.9986   34.1280  -16.2430 C   0  0  0  0  0  0  0  0  0  0  0  0
   -4.4694   35.2654  -15.6378 N   0  0  0  0  0  0  0  0  0  0  0  0
   -4.1454   36.4829  -16.1698 C   0  0  0  0  0  0  0  0  0  0  0  0
   -3.3753   36.5635  -17.2637 C   0  0  0  0  0  0  0  0  0  0  0  0
   -2.9089   35.4025  -17.8781 C   0  0  0  0  0  0  0  0  0  0  0  0
   -2.0957   35.3499  -19.0274 N   0  0  0  0  0  0  0  0  0  0  0  0
   -3.2225   37.8700  -17.5668 N   0  0  0  0  0  0  0  0  0  0  0  0
   -3.9050   38.5981  -16.6377 C   0  0  0  0  0  0  0  0  0  0  0  0
   -4.4888   37.7449  -15.7860 N   0  0  0  0  0  0  0  0  0  0  0  0
  -10.4576   34.5134  -18.0213 N   0  0  0  0  0  0  0  0  0  0  0  0
   -9.6043   34.7676  -16.9949 C   0  0  0  0  0  0  0  0  0  0  0  0
   -9.7719   34.1218  -15.8023 N   0  0  0  0  0  0  0  0  0  0  0  0
  -10.7831   33.2256  -15.6447 C   0  0  0  0  0  0  0  0  0  0  0  0
  -11.6309   32.9650  -16.6603 C   0  0  0  0  0  0  0  0  0  0  0  0
  -11.4553   33.6302  -17.8702 C   0  0  0  0  0  0  0  0  0  0  0  0
  -12.2447   33.5226  -19.0704 N   0  0  0  0  0  0  0  0  0  0  0  0
  -12.5237   32.0475  -16.2173 N   0  0  0  0  0  0  0  0  0  0  0  0
  -12.2161   31.7415  -14.9244 C   0  0  0  0  0  0  0  0  0  0  0  0
  -11.1367   32.4728  -14.5807 N   0  0  0  0  0  0  0  0  0  0  0  0
  1  3  1  1  0  0  0
  1  5  2  0  0  0  0
  1  9  1  0  0  0  0
  1 18  1  0  0  0  0
  2  4  1  6  0  0  0
  2  6  2  0  0  0  0
  2 10  1  0  0  0  0
  2 17  1  0  0  0  0
  7  9  1  0  0  0  0
  8 10  1  0  0  0  0
 11  7  1  6  0  0  0
 11 13  1  0  0  0  0
 11 15  1  0  0  0  0
 12  8  1  6  0  0  0
 12 14  1  0  0  0  0
 12 16  1  0  0  0  0
 13 23  1  0  0  0  0
 14 24  1  0  0  0  0
 15 17  1  1  0  0  0
 15 19  1  0  0  0  0
 16 18  1  1  0  0  0
 16 20  1  0  0  0  0
 19 21  1  1  0  0  0
 19 23  1  0  0  0  0
 20 22  1  1  0  0  0
 20 24  1  0  0  0  0
 23 34  1  6  0  0  0
 24 44  1  6  0  0  0
 25 26  2  0  0  0  0
 25 30  1  0  0  0  0
 26 27  1  0  0  0  0
 27 28  2  0  0  0  0
 28 29  1  0  0  0  0
 28 34  1  0  0  0  0
 29 30  2  0  0  0  0
 29 32  1  0  0  0  0
 30 31  1  0  0  0  0
 32 33  2  0  0  0  0
 33 34  1  0  0  0  0
 35 36  2  0  0  0  0
 35 40  1  0  0  0  0
 36 37  1  0  0  0  0
 37 38  2  0  0  0  0
 38 39  1  0  0  0  0
 38 44  1  0  0  0  0
 39 40  2  0  0  0  0
 39 42  1  0  0  0  0
 40 41  1  0  0  0  0
 42 43  2  0  0  0  0
 43 44  1  0  0  0  0
M  CHG  2   3  -1   4  -1
M  END
>  <CHROM.1>
37.39094248,67.34981722,-7.71643146,35.19106517,-14.64415519,-0.26440015
0.45032343,1.76937834

>  <Name>
ligand

>  <RI>
0

>  <Rbt.Current_Directory>
/home/itssahil/PROJECTS/Mol_Feturizer/New_Systems/rnas/4QLM

>  <Rbt.Executable>
rbdock ($Id: //depot/dev/client3/rdock/2013.1/src/exe/rbdock.cxx#4 $)

>  <Rbt.Library>
libRbt.so (2013.1, Build901 2013/11/27)

>  <Rbt.Parameter_File>
/export/apps/rDock/src/rDock_2013.1_src/data/scripts/dock_solv.prm

>  <Rbt.Receptor>
prm/pocket_docking_4.prm

>  <SCORE>
-9.53361

>  <SCORE.INTER>
-7.70817

>  <SCORE.INTER.CONST>
1

>  <SCORE.INTER.POLAR>
0

>  <SCORE.INTER.ROT>
2

>  <SCORE.INTER.SOLV>
27.8145

>  <SCORE.INTER.VDW>
-19.3436

>  <SCORE.INTER.norm>
-0.175186

>  <SCORE.INTRA>
-1.82544

>  <SCORE.INTRA.DIHEDRAL>
0.167145

>  <SCORE.INTRA.DIHEDRAL.0>
2.32994

>  <SCORE.INTRA.POLAR>
0

>  <SCORE.INTRA.POLAR.0>
0

>  <SCORE.INTRA.REPUL>
0

>  <SCORE.INTRA.REPUL.0>
0

>  <SCORE.INTRA.SOLV>
1.02495

>  <SCORE.INTRA.SOLV.lig_0>
-117.703

>  <SCORE.INTRA.VDW>
-2.42149

>  <SCORE.INTRA.VDW.0>
-1.59997

>  <SCORE.INTRA.norm>
-0.0414873

>  <SCORE.RESTR>
0

>  <SCORE.RESTR.CAVITY>
0

>  <SCORE.RESTR.norm>
0

>  <SCORE.SYSTEM>
0

>  <SCORE.SYSTEM.CONST>
0

>  <SCORE.SYSTEM.DIHEDRAL>
0

>  <SCORE.SYSTEM.SOLV>
0

>  <SCORE.SYSTEM.norm>
0

>  <SCORE.heavy>
44

>  <SCORE.norm>
-0.216673

>  <RMSD>
3.601

$$$$
ligand
 OpenBabel11021811513D
libRbt.so/2013.1/901 2013/11/27
 44 50  0  0  0  0  0  0  0  0999 V2000
   -6.2375   33.5447  -12.5196 P   0  0  2  0  0  0  0  0  0  0  0  0
   -9.7209   37.4508  -13.8664 P   0  0  1  0  0  0  0  0  0  0  0  0
   -5.2041   33.6076  -11.3978 O   0  5  0  0  0  0  0  0  0  0  0  0
   -9.7016   37.4840  -15.3752 O   0  5  0  0  0  0  0  0  0  0  0  0
   -5.6995   32.5608  -13.5305 O   0  0  0  0  0  0  0  0  0  0  0  0
  -10.9347   38.2877  -13.4023 O   0  0  0  0  0  0  0  0  0  0  0  0
   -6.0858   36.0420  -12.0933 C   0  0  0  0  0  0  0  0  0  0  0  0
   -9.5850   35.6188  -12.0516 C   0  0  0  0  0  0  0  0  0  0  0  0
   -6.3441   35.0094  -13.0543 O   0  0  0  0  0  0  0  0  0  0  0  0
   -9.6845   35.8514  -13.4850 O   0  0  0  0  0  0  0  0  0  0  0  0
   -6.1767   37.4119  -12.7571 C   0  0  1  0  0  0  0  0  0  0  0  0
   -9.7023   34.0609  -11.8495 C   0  0  1  0  0  0  0  0  0  0  0  0
   -5.0290   37.6744  -13.3013 O   0  0  0  0  0  0  0  0  0  0  0  0
  -10.7473   33.7200  -12.4865 O   0  0  0  0  0  0  0  0  0  0  0  0
   -7.2046   37.4712  -13.8636 C   0  0  1  0  0  0  0  0  0  0  0  0
   -8.5866   33.3199  -12.6130 C   0  0  1  0  0  0  0  0  0  0  0  0
   -8.3110   38.0589  -13.3354 O   0  0  0  0  0  0  0  0  0  0  0  0
   -7.6007   32.9414  -11.7905 O   0  0  0  0  0  0  0  0  0  0  0  0
   -6.5441   38.4130  -14.9298 C   0  0  1  0  0  0  0  0  0  0  0  0
   -9.2435   32.0993  -13.2970 C   0  0  1  0  0  0  0  0  0  0  0  0
   -7.1332   39.7763  -14.8423 O   0  0  0  0  0  0  0  0  0  0  0  0
   -8.9446   30.8457  -12.5325 O   0  0  0  0  0  0  0  0  0  0  0  0
   -5.2763   38.4365  -14.6694 C   0  0  2  0  0  0  0  0  0  0  0  0
  -10.5094   32.3377  -13.2574 C   0  0  2  0  0  0  0  0  0  0  0  0
   -3.3662   34.2700  -17.4645 N   0  0  0  0  0  0  0  0  0  0  0  0
   -4.1822   34.1896  -16.3760 C   0  0  0  0  0  0  0  0  0  0  0  0
   -4.6181   35.3185  -15.7303 N   0  0  0  0  0  0  0  0  0  0  0  0
   -4.2200   36.5427  -16.1920 C   0  0  0  0  0  0  0  0  0  0  0  0
   -3.4118   36.6375  -17.2570 C   0  0  0  0  0  0  0  0  0  0  0  0
   -2.9811   35.4857  -17.9132 C   0  0  0  0  0  0  0  0  0  0  0  0
   -2.1344   35.4481  -19.0387 N   0  0  0  0  0  0  0  0  0  0  0  0
   -3.1878   37.9479  -17.4910 N   0  0  0  0  0  0  0  0  0  0  0  0
   -3.8650   38.6635  -16.5483 C   0  0  0  0  0  0  0  0  0  0  0  0
   -4.5156   37.8003  -15.7574 N   0  0  0  0  0  0  0  0  0  0  0  0
  -10.4457   34.5012  -17.9941 N   0  0  0  0  0  0  0  0  0  0  0  0
   -9.5892   34.7566  -16.9706 C   0  0  0  0  0  0  0  0  0  0  0  0
   -9.7473   34.1050  -15.7799 N   0  0  0  0  0  0  0  0  0  0  0  0
  -10.7521   33.2019  -15.6211 C   0  0  0  0  0  0  0  0  0  0  0  0
  -11.6030   32.9401  -16.6338 C   0  0  0  0  0  0  0  0  0  0  0  0
  -11.4372   33.6111  -17.8419 C   0  0  0  0  0  0  0  0  0  0  0  0
  -12.2315   33.5034  -19.0388 N   0  0  0  0  0  0  0  0  0  0  0  0
  -12.4880   32.0153  -16.1904 N   0  0  0  0  0  0  0  0  0  0  0  0
  -12.1725   31.7061  -14.9002 C   0  0  0  0  0  0  0  0  0  0  0  0
  -11.0961   32.4427  -14.5585 N   0  0  0  0  0  0  0  0  0  0  0  0
  1  3  1  1  0  0  0
  1  5  2  0  0  0  0
  1  9  1  0  0  0  0
  1 18  1  0  0  0  0
  2  4  1  6  0  0  0
  2  6  2  0  0  0  0
  2 10  1  0  0  0  0
  2 17  1  0  0  0  0
  7  9  1  0  0  0  0
  8 10  1  0  0  0  0
 11  7  1  6  0  0  0
 11 13  1  0  0  0  0
 11 15  1  0  0  0  0
 12  8  1  6  0  0  0
 12 14  1  0  0  0  0
 12 16  1  0  0  0  0
 13 23  1  0  0  0  0
 14 24  1  0  0  0  0
 15 17  1  1  0  0  0
 15 19  1  0  0  0  0
 16 18  1  1  0  0  0
 16 20  1  0  0  0  0
 19 21  1  1  0  0  0
 19 23  1  0  0  0  0
 20 22  1  1  0  0  0
 20 24  1  0  0  0  0
 23 34  1  6  0  0  0
 24 44  1  6  0  0  0
 25 26  2  0  0  0  0
 25 30  1  0  0  0  0
 26 27  1  0  0  0  0
 27 28  2  0  0  0  0
 28 29  1  0  0  0  0
 28 34  1  0  0  0  0
 29 30  2  0  0  0  0
 29 32  1  0  0  0  0
 30 31  1  0  0  0  0
 32 33  2  0  0  0  0
 33 34  1  0  0  0  0
 35 36  2  0  0  0  0
 35 40  1  0  0  0  0
 36 37  1  0  0  0  0
 37 38  2  0  0  0  0
 38 39  1  0  0  0  0
 38 44  1  0  0  0  0
 39 40  2  0  0  0  0
 39 42  1  0  0  0  0
 40 41  1  0  0  0  0
 42 43  2  0  0  0  0
 43 44  1  0  0  0  0
M  CHG  2   3  -1   4  -1
M  END
>  <CHROM.1>
42.03656013,67.69632122,-7.71793309,35.19980633,-14.62599742,-0.22727502
0.49092515,1.67498068

>  <Name>
ligand

>  <RI>
0

>  <Rbt.Current_Directory>
/home/itssahil/PROJECTS/Mol_Feturizer/New_Systems/rnas/4QLM

>  <Rbt.Executable>
rbdock ($Id: //depot/dev/client3/rdock/2013.1/src/exe/rbdock.cxx#4 $)

>  <Rbt.Library>
libRbt.so (2013.1, Build901 2013/11/27)

>  <Rbt.Parameter_File>
/export/apps/rDock/src/rDock_2013.1_src/data/scripts/dock_solv.prm

>  <Rbt.Receptor>
prm/pocket_docking_4.prm

>  <SCORE>
-9.4745

>  <SCORE.INTER>
-7.61715

>  <SCORE.INTER.CONST>
1

>  <SCORE.INTER.POLAR>
0

>  <SCORE.INTER.ROT>
2

>  <SCORE.INTER.SOLV>
27.4755

>  <SCORE.INTER.VDW>
-19.1699

>  <SCORE.INTER.norm>
-0.173117

>  <SCORE.INTRA>
-1.85735

>  <SCORE.INTRA.DIHEDRAL>
0.153075

>  <SCORE.INTRA.DIHEDRAL.0>
2.32994

>  <SCORE.INTRA.POLAR>
0

>  <SCORE.INTRA.POLAR.0>
0

>  <SCORE.INTRA.REPUL>
0

>  <SCORE.INTRA.REPUL.0>
0

>  <SCORE.INTRA.SOLV>
0.987728

>  <SCORE.INTRA.SOLV.lig_0>
-117.703

>  <SCORE.INTRA.VDW>
-2.42775

>  <SCORE.INTRA.VDW.0>
-1.59997

>  <SCORE.INTRA.norm>
-0.0422125

>  <SCORE.RESTR>
0

>  <SCORE.RESTR.CAVITY>
0

>  <SCORE.RESTR.norm>
0

>  <SCORE.SYSTEM>
0

>  <SCORE.SYSTEM.CONST>
0

>  <SCORE.SYSTEM.DIHEDRAL>
0

>  <SCORE.SYSTEM.SOLV>
0

>  <SCORE.SYSTEM.norm>
0

>  <SCORE.heavy>
44

>  <SCORE.norm>
-0.21533

>  <RMSD>
3.603

$$$$
ligand
 OpenBabel11021811513D
libRbt.so/2013.1/901 2013/11/27
 44 50  0  0  0  0  0  0  0  0999 V2000
   -6.4568   33.4513  -12.5134 P   0  0  2  0  0  0  0  0  0  0  0  0
   -9.8085   37.4259  -13.9881 P   0  0  1  0  0  0  0  0  0  0  0  0
   -5.4262   33.5136  -11.3889 O   0  5  0  0  0  0  0  0  0  0  0  0
   -9.7823   37.4151  -15.4971 O   0  5  0  0  0  0  0  0  0  0  0  0
   -5.9465   32.4222  -13.4931 O   0  0  0  0  0  0  0  0  0  0  0  0
  -10.9968   38.3139  -13.5539 O   0  0  0  0  0  0  0  0  0  0  0  0
   -6.2271   35.9538  -12.1580 C   0  0  0  0  0  0  0  0  0  0  0  0
   -9.7382   35.6434  -12.1209 C   0  0  0  0  0  0  0  0  0  0  0  0
   -6.5145   34.9027  -13.0902 O   0  0  0  0  0  0  0  0  0  0  0  0
   -9.8246   35.8377  -13.5609 O   0  0  0  0  0  0  0  0  0  0  0  0
   -6.2717   37.3063  -12.8611 C   0  0  1  0  0  0  0  0  0  0  0  0
   -9.9059   34.0965  -11.8750 C   0  0  1  0  0  0  0  0  0  0  0  0
   -5.1141   37.5164  -13.4071 O   0  0  0  0  0  0  0  0  0  0  0  0
  -10.9588   33.7707  -12.5069 O   0  0  0  0  0  0  0  0  0  0  0  0
   -7.2928   37.3664  -13.9737 C   0  0  1  0  0  0  0  0  0  0  0  0
   -8.8114   33.2987  -12.6116 C   0  0  1  0  0  0  0  0  0  0  0  0
   -8.3819   38.0038  -13.4679 O   0  0  0  0  0  0  0  0  0  0  0  0
   -7.8413   32.9129  -11.7738 O   0  0  0  0  0  0  0  0  0  0  0  0
   -6.5985   38.2556  -15.0633 C   0  0  1  0  0  0  0  0  0  0  0  0
   -9.5042   32.0804  -13.2635 C   0  0  1  0  0  0  0  0  0  0  0  0
   -7.1441   39.6390  -15.0176 O   0  0  0  0  0  0  0  0  0  0  0  0
   -9.2485   30.8405  -12.4621 O   0  0  0  0  0  0  0  0  0  0  0  0
   -5.3316   38.2463  -14.7976 C   0  0  2  0  0  0  0  0  0  0  0  0
  -10.7621   32.3600  -13.2369 C   0  0  2  0  0  0  0  0  0  0  0  0
   -3.0670   33.9912  -17.1613 N   0  0  0  0  0  0  0  0  0  0  0  0
   -3.7534   33.9746  -15.9841 C   0  0  0  0  0  0  0  0  0  0  0  0
   -4.2973   35.1209  -15.4629 N   0  0  0  0  0  0  0  0  0  0  0  0
   -4.1412   36.2978  -16.1418 C   0  0  0  0  0  0  0  0  0  0  0  0
   -3.4625   36.3312  -17.2971 C   0  0  0  0  0  0  0  0  0  0  0  0
   -2.9210   35.1601  -17.8245 C   0  0  0  0  0  0  0  0  0  0  0  0
   -2.1895   35.0599  -19.0244 N   0  0  0  0  0  0  0  0  0  0  0  0
   -3.4694   37.6048  -17.7443 N   0  0  0  0  0  0  0  0  0  0  0  0
   -4.1577   38.3616  -16.8427 C   0  0  0  0  0  0  0  0  0  0  0  0
   -4.5874   37.5552  -15.8633 N   0  0  0  0  0  0  0  0  0  0  0  0
  -10.7710   34.5760  -17.9496 N   0  0  0  0  0  0  0  0  0  0  0  0
   -9.9411   34.8679  -16.9141 C   0  0  0  0  0  0  0  0  0  0  0  0
  -10.0746   34.1953  -15.7321 N   0  0  0  0  0  0  0  0  0  0  0  0
  -11.0284   33.2353  -15.5940 C   0  0  0  0  0  0  0  0  0  0  0  0
  -11.8524   32.9371  -16.6188 C   0  0  0  0  0  0  0  0  0  0  0  0
  -11.7121   33.6298  -17.8178 C   0  0  0  0  0  0  0  0  0  0  0  0
  -12.4864   33.4907  -19.0245 N   0  0  0  0  0  0  0  0  0  0  0  0
  -12.6884   31.9591  -16.1949 N   0  0  0  0  0  0  0  0  0  0  0  0
  -12.3695   31.6538  -14.9046 C   0  0  0  0  0  0  0  0  0  0  0  0
  -11.3401   32.4462  -14.5433 N   0  0  0  0  0  0  0  0  0  0  0  0
  1  3  1  1  0  0  0
  1  5  2  0  0  0  0
  1  9  1  0  0  0  0
  1 18  1  0  0  0  0
  2  4  1  6  0  0  0
  2  6  2  0  0  0  0
  2 10  1  0  0  0  0
  2 17  1  0  0  0  0
  7  9  1  0  0  0  0
  8 10  1  0  0  0  0
 11  7  1  6  0  0  0
 11 13  1  0  0  0  0
 11 15  1  0  0  0  0
 12  8  1  6  0  0  0
 12 14  1  0  0  0  0
 12 16  1  0  0  0  0
 13 23  1  0  0  0  0
 14 24  1  0  0  0  0
 15 17  1  1  0  0  0
 15 19  1  0  0  0  0
 16 18  1  1  0  0  0
 16 20  1  0  0  0  0
 19 21  1  1  0  0  0
 19 23  1  0  0  0  0
 20 22  1  1  0  0  0
 20 24  1  0  0  0  0
 23 34  1  6  0  0  0
 24 44  1  6  0  0  0
 25 26  2  0  0  0  0
 25 30  1  0  0  0  0
 26 27  1  0  0  0  0
 27 28  2  0  0  0  0
 28 29  1  0  0  0  0
 28 34  1  0  0  0  0
 29 30  2  0  0  0  0
 29 32  1  0  0  0  0
 30 31  1  0  0  0  0
 32 33  2  0  0  0  0
 33 34  1  0  0  0  0
 35 36  2  0  0  0  0
 35 40  1  0  0  0  0
 36 37  1  0  0  0  0
 37 38  2  0  0  0  0
 38 39  1  0  0  0  0
 38 44  1  0  0  0  0
 39 40  2  0  0  0  0
 39 42  1  0  0  0  0
 40 41  1  0  0  0  0
 42 43  2  0  0  0  0
 43 44  1  0  0  0  0
M  CHG  2   3  -1   4  -1
M  END
>  <CHROM.1>
27.83910041,62.14090582,-7.85519371,35.11061268,-14.64712974,-0.38820509
0.28698070,2.14288589

>  <Name>
ligand

>  <RI>
0

>  <Rbt.Current_Directory>
/home/itssahil/PROJECTS/Mol_Feturizer/New_Systems/rnas/4QLM

>  <Rbt.Executable>
rbdock ($Id: //depot/dev/client3/rdock/2013.1/src/exe/rbdock.cxx#4 $)

>  <Rbt.Library>
libRbt.so (2013.1, Build901 2013/11/27)

>  <Rbt.Parameter_File>
/export/apps/rDock/src/rDock_2013.1_src/data/scripts/dock_solv.prm

>  <Rbt.Receptor>
prm/pocket_docking_5.prm

>  <SCORE>
-9.39274

>  <SCORE.INTER>
-7.75487

>  <SCORE.INTER.CONST>
1

>  <SCORE.INTER.POLAR>
0

>  <SCORE.INTER.ROT>
2

>  <SCORE.INTER.SOLV>
28.0377

>  <SCORE.INTER.VDW>
-19.4492

>  <SCORE.INTER.norm>
-0.176247

>  <SCORE.INTRA>
-1.63787

>  <SCORE.INTRA.DIHEDRAL>
0.175792

>  <SCORE.INTRA.DIHEDRAL.0>
2.32994

>  <SCORE.INTRA.POLAR>
0

>  <SCORE.INTRA.POLAR.0>
0

>  <SCORE.INTRA.REPUL>
0

>  <SCORE.INTRA.REPUL.0>
0

>  <SCORE.INTRA.SOLV>
1.24328

>  <SCORE.INTRA.SOLV.lig_0>
-117.703

>  <SCORE.INTRA.VDW>
-2.34741

>  <SCORE.INTRA.VDW.0>
-1.59997

>  <SCORE.INTRA.norm>
-0.0372243

>  <SCORE.RESTR>
0

>  <SCORE.RESTR.CAVITY>
0

>  <SCORE.RESTR.norm>
0

>  <SCORE.SYSTEM>
0

>  <SCORE.SYSTEM.CONST>
0

>  <SCORE.SYSTEM.DIHEDRAL>
0

>  <SCORE.SYSTEM.SOLV>
0

>  <SCORE.SYSTEM.norm>
0

>  <SCORE.heavy>
44

>  <SCORE.norm>
-0.213471

>  <RMSD>
3.614

$$$$
ligand
 OpenBabel11021811513D
libRbt.so/2013.1/901 2013/11/27
 44 50  0  0  0  0  0  0  0  0999 V2000
   -6.4185   33.4713  -12.5146 P   0  0  2  0  0  0  0  0  0  0  0  0
   -9.8180   37.3898  -14.0294 P   0  0  1  0  0  0  0  0  0  0  0  0
   -5.3847   33.5595  -11.3948 O   0  5  0  0  0  0  0  0  0  0  0  0
   -9.7970   37.3593  -15.5383 O   0  5  0  0  0  0  0  0  0  0  0  0
   -5.9006   32.4349  -13.4825 O   0  0  0  0  0  0  0  0  0  0  0  0
  -11.0143   38.2707  -13.6027 O   0  0  0  0  0  0  0  0  0  0  0  0
   -6.2146   35.9806  -12.1932 C   0  0  0  0  0  0  0  0  0  0  0  0
   -9.7219   35.6330  -12.1392 C   0  0  0  0  0  0  0  0  0  0  0  0
   -6.4939   34.9143  -13.1104 O   0  0  0  0  0  0  0  0  0  0  0  0
   -9.8155   35.8074  -13.5813 O   0  0  0  0  0  0  0  0  0  0  0  0
   -6.2762   37.3231  -12.9139 C   0  0  1  0  0  0  0  0  0  0  0  0
   -9.8721   34.0878  -11.8722 C   0  0  1  0  0  0  0  0  0  0  0  0
   -5.1228   37.5383  -13.4669 O   0  0  0  0  0  0  0  0  0  0  0  0
  -10.9236   33.7425  -12.4960 O   0  0  0  0  0  0  0  0  0  0  0  0
   -7.3018   37.3575  -14.0235 C   0  0  1  0  0  0  0  0  0  0  0  0
   -8.7717   33.2922  -12.6022 C   0  0  1  0  0  0  0  0  0  0  0  0
   -8.3960   37.9898  -13.5222 O   0  0  0  0  0  0  0  0  0  0  0  0
   -7.7945   32.9279  -11.7630 O   0  0  0  0  0  0  0  0  0  0  0  0
   -6.6209   38.2396  -15.1273 C   0  0  1  0  0  0  0  0  0  0  0  0
   -9.4536   32.0580  -13.2355 C   0  0  1  0  0  0  0  0  0  0  0  0
   -7.1813   39.6175  -15.0979 O   0  0  0  0  0  0  0  0  0  0  0  0
   -9.1818   30.8316  -12.4186 O   0  0  0  0  0  0  0  0  0  0  0  0
   -5.3531   38.2474  -14.8661 C   0  0  2  0  0  0  0  0  0  0  0  0
  -10.7143   32.3244  -13.2080 C   0  0  2  0  0  0  0  0  0  0  0  0
   -3.1164   33.9710  -17.2179 N   0  0  0  0  0  0  0  0  0  0  0  0
   -3.8172   33.9594  -16.0492 C   0  0  0  0  0  0  0  0  0  0  0  0
   -4.3523   35.1109  -15.5304 N   0  0  0  0  0  0  0  0  0  0  0  0
   -4.1723   36.2880  -16.2030 C   0  0  0  0  0  0  0  0  0  0  0  0
   -3.4793   36.3165  -17.3499 C   0  0  0  0  0  0  0  0  0  0  0  0
   -2.9470   35.1402  -17.8750 C   0  0  0  0  0  0  0  0  0  0  0  0
   -2.2024   35.0345  -19.0664 N   0  0  0  0  0  0  0  0  0  0  0  0
   -3.4640   37.5917  -17.7924 N   0  0  0  0  0  0  0  0  0  0  0  0
   -4.1531   38.3543  -16.8964 C   0  0  0  0  0  0  0  0  0  0  0  0
   -4.6052   37.5503  -15.9253 N   0  0  0  0  0  0  0  0  0  0  0  0
  -12.9323   35.1932  -16.9457 N   0  0  0  0  0  0  0  0  0  0  0  0
  -12.5046   35.6277  -15.7314 C   0  0  0  0  0  0  0  0  0  0  0  0
  -11.9468   34.7400  -14.8551 N   0  0  0  0  0  0  0  0  0  0  0  0
  -11.8149   33.4301  -15.1976 C   0  0  0  0  0  0  0  0  0  0  0  0
  -12.2329   32.9926  -16.4027 C   0  0  0  0  0  0  0  0  0  0  0  0
  -12.8035   33.9029  -17.2876 C   0  0  0  0  0  0  0  0  0  0  0  0
  -13.3308   33.6558  -18.6051 N   0  0  0  0  0  0  0  0  0  0  0  0
  -11.9795   31.6632  -16.4611 N   0  0  0  0  0  0  0  0  0  0  0  0
  -11.3979   31.2869  -15.2864 C   0  0  0  0  0  0  0  0  0  0  0  0
  -11.2978   32.3870  -14.5132 N   0  0  0  0  0  0  0  0  0  0  0  0
  1  3  1  1  0  0  0
  1  5  2  0  0  0  0
  1  9  1  0  0  0  0
  1 18  1  0  0  0  0
  2  4  1  6  0  0  0
  2  6  2  0  0  0  0
  2 10  1  0  0  0  0
  2 17  1  0  0  0  0
  7  9  1  0  0  0  0
  8 10  1  0  0  0  0
 11  7  1  6  0  0  0
 11 13  1  0  0  0  0
 11 15  1  0  0  0  0
 12  8  1  6  0  0  0
 12 14  1  0  0  0  0
 12 16  1  0  0  0  0
 13 23  1  0  0  0  0
 14 24  1  0  0  0  0
 15 17  1  1  0  0  0
 15 19  1  0  0  0  0
 16 18  1  1  0  0  0
 16 20  1  0  0  0  0
 19 21  1  1  0  0  0
 19 23  1  0  0  0  0
 20 22  1  1  0  0  0
 20 24  1  0  0  0  0
 23 34  1  6  0  0  0
 24 44  1  6  0  0  0
 25 26  2  0  0  0  0
 25 30  1  0  0  0  0
 26 27  1  0  0  0  0
 27 28  2  0  0  0  0
 28 29  1  0  0  0  0
 28 34  1  0  0  0  0
 29 30  2  0  0  0  0
 29 32  1  0  0  0  0
 30 31  1  0  0  0  0
 32 33  2  0  0  0  0
 33 34  1  0  0  0  0
 35 36  2  0  0  0  0
 35 40  1  0  0  0  0
 36 37  1  0  0  0  0
 37 38  2  0  0  0  0
 38 39  1  0  0  0  0
 38 44  1  0  0  0  0
 39 40  2  0  0  0  0
 39 42  1  0  0  0  0
 40 41  1  0  0  0  0
 42 43  2  0  0  0  0
 43 44  1  0  0  0  0
M  CHG  2   3  -1   4  -1
M  END
>  <CHROM.1>
29.74479638,7.62270711,-8.01286460,35.14149083,-14.59038367,-0.39123089,0.06610876
2.59144454

>  <Name>
ligand

>  <RI>
0

>  <Rbt.Current_Directory>
/home/itssahil/PROJECTS/Mol_Feturizer/New_Systems/rnas/4QLM

>  <Rbt.Executable>
rbdock ($Id: //depot/dev/client3/rdock/2013.1/src/exe/rbdock.cxx#4 $)

>  <Rbt.Library>
libRbt.so (2013.1, Build901 2013/11/27)

>  <Rbt.Parameter_File>
/export/apps/rDock/src/rDock_2013.1_src/data/scripts/dock_solv.prm

>  <Rbt.Receptor>
prm/pocket_docking_5.prm

>  <SCORE>
-8.79284

>  <SCORE.INTER>
-7.55986

>  <SCORE.INTER.CONST>
1

>  <SCORE.INTER.POLAR>
0

>  <SCORE.INTER.ROT>
2

>  <SCORE.INTER.SOLV>
23.1437

>  <SCORE.INTER.VDW>
-17.6878

>  <SCORE.INTER.norm>
-0.171815

>  <SCORE.INTRA>
-1.23298

>  <SCORE.INTRA.DIHEDRAL>
0.170291

>  <SCORE.INTRA.DIHEDRAL.0>
2.32994

>  <SCORE.INTRA.POLAR>
0

>  <SCORE.INTRA.POLAR.0>
0

>  <SCORE.INTRA.REPUL>
0

>  <SCORE.INTRA.REPUL.0>
0

>  <SCORE.INTRA.SOLV>
1.44398

>  <SCORE.INTRA.SOLV.lig_0>
-117.703

>  <SCORE.INTRA.VDW>
-2.04012

>  <SCORE.INTRA.VDW.0>
-1.59997

>  <SCORE.INTRA.norm>
-0.0280224

>  <SCORE.RESTR>
0

>  <SCORE.RESTR.CAVITY>
0

>  <SCORE.RESTR.norm>
0

>  <SCORE.SYSTEM>
0

>  <SCORE.SYSTEM.CONST>
0

>  <SCORE.SYSTEM.DIHEDRAL>
0

>  <SCORE.SYSTEM.SOLV>
0

>  <SCORE.SYSTEM.norm>
0

>  <SCORE.heavy>
44

>  <SCORE.norm>
-0.199837

>  <RMSD>
3.692

$$$$
ligand
 OpenBabel11021811513D
libRbt.so/2013.1/901 2013/11/27
 44 50  0  0  0  0  0  0  0  0999 V2000
   -8.7876   36.1044  -17.2090 P   0  0  2  0  0  0  0  0  0  0  0  0
   -6.7068   37.8897  -12.5519 P   0  0  1  0  0  0  0  0  0  0  0  0
  -10.1465   36.4838  -17.7920 O   0  5  0  0  0  0  0  0  0  0  0  0
   -6.0942   36.6697  -11.9082 O   0  5  0  0  0  0  0  0  0  0  0  0
   -8.4561   34.7426  -17.7704 O   0  0  0  0  0  0  0  0  0  0  0  0
   -6.1912   39.1259  -11.7806 O   0  0  0  0  0  0  0  0  0  0  0  0
   -9.9840   37.0347  -15.1732 C   0  0  0  0  0  0  0  0  0  0  0  0
   -6.9379   38.7957  -14.9590 C   0  0  0  0  0  0  0  0  0  0  0  0
   -8.9934   36.1191  -15.6598 O   0  0  0  0  0  0  0  0  0  0  0  0
   -6.3295   37.7522  -14.1468 O   0  0  0  0  0  0  0  0  0  0  0  0
  -10.1143   36.9116  -13.6588 C   0  0  1  0  0  0  0  0  0  0  0  0
   -6.3714   38.6052  -16.4165 C   0  0  1  0  0  0  0  0  0  0  0  0
  -10.9322   35.9384  -13.4012 O   0  0  0  0  0  0  0  0  0  0  0  0
   -5.1096   38.5494  -16.2790 O   0  0  0  0  0  0  0  0  0  0  0  0
   -8.8100   36.5742  -12.9737 C   0  0  1  0  0  0  0  0  0  0  0  0
   -6.7123   37.2043  -16.9624 C   0  0  1  0  0  0  0  0  0  0  0  0
   -8.3224   37.7392  -12.4705 O   0  0  0  0  0  0  0  0  0  0  0  0
   -7.7475   37.2493  -17.8099 O   0  0  0  0  0  0  0  0  0  0  0  0
   -9.2426   35.6167  -11.8091 C   0  0  1  0  0  0  0  0  0  0  0  0
   -5.4405   36.6718  -17.6612 C   0  0  1  0  0  0  0  0  0  0  0  0
   -9.2748   36.3607  -10.5211 O   0  0  0  0  0  0  0  0  0  0  0  0
   -5.5675   36.7980  -19.1489 O   0  0  0  0  0  0  0  0  0  0  0  0
  -10.4170   35.1666  -12.1158 C   0  0  2  0  0  0  0  0  0  0  0  0
   -4.4883   37.4330  -17.2430 C   0  0  2  0  0  0  0  0  0  0  0  0
   -7.9557   30.4321  -12.7053 N   0  0  0  0  0  0  0  0  0  0  0  0
   -7.3477   31.6099  -12.3887 C   0  0  0  0  0  0  0  0  0  0  0  0
   -8.0691   32.7693  -12.2594 N   0  0  0  0  0  0  0  0  0  0  0  0
   -9.4220   32.7346  -12.4561 C   0  0  0  0  0  0  0  0  0  0  0  0
  -10.0332   31.5852  -12.7751 C   0  0  0  0  0  0  0  0  0  0  0  0
   -9.2940   30.4097  -12.8952 C   0  0  0  0  0  0  0  0  0  0  0  0
   -9.8130   29.1417  -13.2238 N   0  0  0  0  0  0  0  0  0  0  0  0
  -11.3526   31.8401  -12.9036 N   0  0  0  0  0  0  0  0  0  0  0  0
  -11.5477   33.1685  -12.6661 C   0  0  0  0  0  0  0  0  0  0  0  0
  -10.3619   33.7182  -12.3731 N   0  0  0  0  0  0  0  0  0  0  0  0
   -3.2748   34.3198  -13.2486 N   0  0  0  0  0  0  0  0  0  0  0  0
   -4.5076   34.7957  -13.5647 C   0  0  0  0  0  0  0  0  0  0  0  0
   -4.6574   35.6138  -14.6490 N   0  0  0  0  0  0  0  0  0  0  0  0
   -3.5805   35.9457  -15.4109 C   0  0  0  0  0  0  0  0  0  0  0  0
   -2.3549   35.4734  -15.1059 C   0  0  0  0  0  0  0  0  0  0  0  0
   -2.2107   34.6439  -13.9975 C   0  0  0  0  0  0  0  0  0  0  0  0
   -1.0059   34.0467  -13.4808 N   0  0  0  0  0  0  0  0  0  0  0  0
   -1.4905   35.9663  -16.0251 N   0  0  0  0  0  0  0  0  0  0  0  0
   -2.1934   36.7402  -16.9008 C   0  0  0  0  0  0  0  0  0  0  0  0
   -3.4850   36.7186  -16.5142 N   0  0  0  0  0  0  0  0  0  0  0  0
  1  3  1  6  0  0  0
  1  5  2  0  0  0  0
  1  9  1  0  0  0  0
  1 18  1  0  0  0  0
  2  4  1  1  0  0  0
  2  6  2  0  0  0  0
  2 10  1  0  0  0  0
  2 17  1  0  0  0  0
  7  9  1  0  0  0  0
  8 10  1  0  0  0  0
 11  7  1  6  0  0  0
 11 13  1  0  0  0  0
 11 15  1  0  0  0  0
 12  8  1  1  0  0  0
 12 14  1  0  0  0  0
 12 16  1  0  0  0  0
 13 23  1  0  0  0  0
 14 24  1  0  0  0  0
 15 17  1  1  0  0  0
 15 19  1  0  0  0  0
 16 18  1  6  0  0  0
 16 20  1  0  0  0  0
 19 21  1  1  0  0  0
 19 23  1  0  0  0  0
 20 22  1  6  0  0  0
 20 24  1  0  0  0  0
 23 34  1  6  0  0  0
 24 44  1  1  0  0  0
 25 26  2  0  0  0  0
 25 30  1  0  0  0  0
 26 27  1  0  0  0  0
 27 28  2  0  0  0  0
 28 29  1  0  0  0  0
 28 34  1  0  0  0  0
 29 30  2  0  0  0  0
 29 32  1  0  0  0  0
 30 31  1  0  0  0  0
 32 33  2  0  0  0  0
 33 34  1  0  0  0  0
 35 36  2  0  0  0  0
 35 40  1  0  0  0  0
 36 37  1  0  0  0  0
 37 38  2  0  0  0  0
 38 39  1  0  0  0  0
 38 44  1  0  0  0  0
 39 40  2  0  0  0  0
 39 42  1  0  0  0  0
 40 41  1  0  0  0  0
 42 43  2  0  0  0  0
 43 44  1  0  0  0  0
M  CHG  2   3  -1   4  -1
M  END
>  <CHROM.1>
115.17436213,63.17260324,-7.15015143,35.61201569,-14.44214477,0.70413072
0.05724466,-0.65335382

>  <Name>
ligand

>  <RI>
0

>  <Rbt.Current_Directory>
/home/itssahil/PROJECTS/Mol_Feturizer/New_Systems/rnas/4QLM

>  <Rbt.Executable>
rbdock ($Id: //depot/dev/client3/rdock/2013.1/src/exe/rbdock.cxx#4 $)

>  <Rbt.Library>
libRbt.so (2013.1, Build901 2013/11/27)

>  <Rbt.Parameter_File>
/export/apps/rDock/src/rDock_2013.1_src/data/scripts/dock_solv.prm

>  <Rbt.Receptor>
prm/pocket_docking_5.prm

>  <SCORE>
-14.765

>  <SCORE.INTER>
-13.611

>  <SCORE.INTER.CONST>
1

>  <SCORE.INTER.POLAR>
0

>  <SCORE.INTER.ROT>
2

>  <SCORE.INTER.SOLV>
26.9851

>  <SCORE.INTER.VDW>
-23.0024

>  <SCORE.INTER.norm>
-0.309342

>  <SCORE.INTRA>
-1.15396

>  <SCORE.INTRA.DIHEDRAL>
0.0545342

>  <SCORE.INTRA.DIHEDRAL.0>
2.32994

>  <SCORE.INTRA.POLAR>
0

>  <SCORE.INTRA.POLAR.0>
0

>  <SCORE.INTRA.REPUL>
0

>  <SCORE.INTRA.REPUL.0>
0

>  <SCORE.INTRA.SOLV>
0.866154

>  <SCORE.INTRA.SOLV.lig_0>
-117.703

>  <SCORE.INTRA.VDW>
-1.61431

>  <SCORE.INTRA.VDW.0>
-1.59997

>  <SCORE.INTRA.norm>
-0.0262264

>  <SCORE.RESTR>
0

>  <SCORE.RESTR.CAVITY>
0

>  <SCORE.RESTR.norm>
0

>  <SCORE.SYSTEM>
0

>  <SCORE.SYSTEM.CONST>
0

>  <SCORE.SYSTEM.DIHEDRAL>
0

>  <SCORE.SYSTEM.SOLV>
0

>  <SCORE.SYSTEM.norm>
0

>  <SCORE.heavy>
44

>  <SCORE.norm>
-0.335568

>  <RMSD>
3.717

$$$$
ligand
 OpenBabel11021811513D
libRbt.so/2013.1/901 2013/11/27
 44 50  0  0  0  0  0  0  0  0999 V2000
   -8.8295   35.9952  -17.2761 P   0  0  2  0  0  0  0  0  0  0  0  0
   -6.9507   37.7806  -12.5339 P   0  0  1  0  0  0  0  0  0  0  0  0
  -10.1666   36.3666  -17.9121 O   0  5  0  0  0  0  0  0  0  0  0  0
   -6.3555   36.5630  -11.8697 O   0  5  0  0  0  0  0  0  0  0  0  0
   -8.4656   34.6377  -17.8277 O   0  0  0  0  0  0  0  0  0  0  0  0
   -6.4758   39.0181  -11.7389 O   0  0  0  0  0  0  0  0  0  0  0  0
  -10.1136   36.9101  -15.2874 C   0  0  0  0  0  0  0  0  0  0  0  0
   -7.0917   38.6926  -14.9457 C   0  0  0  0  0  0  0  0  0  0  0  0
   -9.0975   36.0034  -15.7364 O   0  0  0  0  0  0  0  0  0  0  0  0
   -6.5087   37.6510  -14.1128 O   0  0  0  0  0  0  0  0  0  0  0  0
  -10.3037   36.7812  -13.7798 C   0  0  1  0  0  0  0  0  0  0  0  0
   -6.4657   38.5110  -16.3798 C   0  0  1  0  0  0  0  0  0  0  0  0
  -11.1241   35.8013  -13.5582 O   0  0  0  0  0  0  0  0  0  0  0  0
   -5.2101   38.4639  -16.1919 O   0  0  0  0  0  0  0  0  0  0  0  0
   -9.0256   36.4511  -13.0438 C   0  0  1  0  0  0  0  0  0  0  0  0
   -6.7740   37.1093  -16.9431 C   0  0  1  0  0  0  0  0  0  0  0  0
   -8.5672   37.6181  -12.5180 O   0  0  0  0  0  0  0  0  0  0  0  0
   -7.7746   37.1496  -17.8314 O   0  0  0  0  0  0  0  0  0  0  0  0
   -9.4975   35.4868  -11.9004 C   0  0  1  0  0  0  0  0  0  0  0  0
   -5.4713   36.5884  -17.5917 C   0  0  1  0  0  0  0  0  0  0  0  0
   -9.5869   36.2263  -10.6125 O   0  0  0  0  0  0  0  0  0  0  0  0
   -5.5393   36.7185  -19.0829 O   0  0  0  0  0  0  0  0  0  0  0  0
  -10.6552   35.0292  -12.2553 C   0  0  2  0  0  0  0  0  0  0  0  0
   -4.5423   37.3552  -17.1334 C   0  0  2  0  0  0  0  0  0  0  0  0
   -8.1326   30.3207  -12.7917 N   0  0  0  0  0  0  0  0  0  0  0  0
   -7.5446   31.5036  -12.4567 C   0  0  0  0  0  0  0  0  0  0  0  0
   -8.2806   32.6555  -12.3435 N   0  0  0  0  0  0  0  0  0  0  0  0
   -9.6276   32.6079  -12.5753 C   0  0  0  0  0  0  0  0  0  0  0  0
  -10.2189   31.4534  -12.9126 C   0  0  0  0  0  0  0  0  0  0  0  0
   -9.4652   30.2855  -13.0162 C   0  0  0  0  0  0  0  0  0  0  0  0
   -9.9629   29.0133  -13.3611 N   0  0  0  0  0  0  0  0  0  0  0  0
  -11.5369   31.6955  -13.0747 N   0  0  0  0  0  0  0  0  0  0  0  0
  -11.7513   33.0213  -12.8393 C   0  0  0  0  0  0  0  0  0  0  0  0
  -10.5790   33.5820  -12.5144 N   0  0  0  0  0  0  0  0  0  0  0  0
   -3.4427   34.3765  -13.0056 N   0  0  0  0  0  0  0  0  0  0  0  0
   -4.6602   34.8703  -13.3524 C   0  0  0  0  0  0  0  0  0  0  0  0
   -4.7798   35.6473  -14.4700 N   0  0  0  0  0  0  0  0  0  0  0  0
   -3.6884   35.9208  -15.2344 C   0  0  0  0  0  0  0  0  0  0  0  0
   -2.4779   35.4305  -14.8990 C   0  0  0  0  0  0  0  0  0  0  0  0
   -2.3643   34.6432  -13.7568 C   0  0  0  0  0  0  0  0  0  0  0  0
   -1.1797   34.0372  -13.2051 N   0  0  0  0  0  0  0  0  0  0  0  0
   -1.5935   35.8638  -15.8291 N   0  0  0  0  0  0  0  0  0  0  0  0
   -2.2688   36.6192  -16.7418 C   0  0  0  0  0  0  0  0  0  0  0  0
   -3.5638   36.6458  -16.3670 N   0  0  0  0  0  0  0  0  0  0  0  0
  1  3  1  6  0  0  0
  1  5  2  0  0  0  0
  1  9  1  0  0  0  0
  1 18  1  0  0  0  0
  2  4  1  1  0  0  0
  2  6  2  0  0  0  0
  2 10  1  0  0  0  0
  2 17  1  0  0  0  0
  7  9  1  0  0  0  0
  8 10  1  0  0  0  0
 11  7  1  6  0  0  0
 11 13  1  0  0  0  0
 11 15  1  0  0  0  0
 12  8  1  1  0  0  0
 12 14  1  0  0  0  0
 12 16  1  0  0  0  0
 13 23  1  0  0  0  0
 14 24  1  0  0  0  0
 15 17  1  1  0  0  0
 15 19  1  0  0  0  0
 16 18  1  6  0  0  0
 16 20  1  0  0  0  0
 19 21  1  1  0  0  0
 19 23  1  0  0  0  0
 20 22  1  6  0  0  0
 20 24  1  0  0  0  0
 23 34  1  6  0  0  0
 24 44  1  1  0  0  0
 25 26  2  0  0  0  0
 25 30  1  0  0  0  0
 26 27  1  0  0  0  0
 27 28  2  0  0  0  0
 28 29  1  0  0  0  0
 28 34  1  0  0  0  0
 29 30  2  0  0  0  0
 29 32  1  0  0  0  0
 30 31  1  0  0  0  0
 32 33  2  0  0  0  0
 33 34  1  0  0  0  0
 35 36  2  0  0  0  0
 35 40  1  0  0  0  0
 36 37  1  0  0  0  0
 37 38  2  0  0  0  0
 38 39  1  0  0  0  0
 38 44  1  0  0  0  0
 39 40  2  0  0  0  0
 39 42  1  0  0  0  0
 40 41  1  0  0  0  0
 42 43  2  0  0  0  0
 43 44  1  0  0  0  0
M  CHG  2   3  -1   4  -1
M  END
>  <CHROM.1>
114.34257922,59.57882331,-7.29883504,35.51685782,-14.44187738,0.68227801
0.00253635,-0.66566532

>  <Name>
ligand

>  <RI>
0

>  <Rbt.Current_Directory>
/home/itssahil/PROJECTS/Mol_Feturizer/New_Systems/rnas/4QLM

>  <Rbt.Executable>
rbdock ($Id: //depot/dev/client3/rdock/2013.1/src/exe/rbdock.cxx#4 $)

>  <Rbt.Library>
libRbt.so (2013.1, Build901 2013/11/27)

>  <Rbt.Parameter_File>
/export/apps/rDock/src/rDock_2013.1_src/data/scripts/dock_solv.prm

>  <Rbt.Receptor>
prm/pocket_docking_4.prm

>  <SCORE>
-13.6301

>  <SCORE.INTER>
-12.918

>  <SCORE.INTER.CONST>
1

>  <SCORE.INTER.POLAR>
0

>  <SCORE.INTER.ROT>
2

>  <SCORE.INTER.SOLV>
26.5657

>  <SCORE.INTER.VDW>
-22.4006

>  <SCORE.INTER.norm>
-0.29359

>  <SCORE.INTRA>
-1.00928

>  <SCORE.INTRA.DIHEDRAL>
0.0480188

>  <SCORE.INTRA.DIHEDRAL.0>
2.32994

>  <SCORE.INTRA.POLAR>
0

>  <SCORE.INTRA.POLAR.0>
0

>  <SCORE.INTRA.REPUL>
0

>  <SCORE.INTRA.REPUL.0>
0

>  <SCORE.INTRA.SOLV>
1.02169

>  <SCORE.INTRA.SOLV.lig_0>
-117.703

>  <SCORE.INTRA.VDW>
-1.54413

>  <SCORE.INTRA.VDW.0>
-1.59997

>  <SCORE.INTRA.norm>
-0.0229382

>  <SCORE.RESTR>
0.297153

>  <SCORE.RESTR.CAVITY>
0.297153

>  <SCORE.RESTR.norm>
0.00675347

>  <SCORE.SYSTEM>
0

>  <SCORE.SYSTEM.CONST>
0

>  <SCORE.SYSTEM.DIHEDRAL>
0

>  <SCORE.SYSTEM.SOLV>
0

>  <SCORE.SYSTEM.norm>
0

>  <SCORE.heavy>
44

>  <SCORE.norm>
-0.309775

>  <RMSD>
3.724

$$$$
ligand
 OpenBabel11021811513D
libRbt.so/2013.1/901 2013/11/27
 44 50  0  0  0  0  0  0  0  0999 V2000
   -5.8342   33.7975  -13.0826 P   0  0  2  0  0  0  0  0  0  0  0  0
   -9.8420   37.3754  -13.6663 P   0  0  1  0  0  0  0  0  0  0  0  0
   -4.7105   33.8646  -12.0514 O   0  5  0  0  0  0  0  0  0  0  0  0
   -9.9724   37.5716  -15.1572 O   0  5  0  0  0  0  0  0  0  0  0  0
   -5.2907   32.9994  -14.2433 O   0  0  0  0  0  0  0  0  0  0  0  0
  -11.0904   38.0051  -13.0075 O   0  0  0  0  0  0  0  0  0  0  0  0
   -5.9192   36.2349  -12.3806 C   0  0  0  0  0  0  0  0  0  0  0  0
   -9.3296   35.3900  -12.0966 C   0  0  0  0  0  0  0  0  0  0  0  0
   -6.1533   35.2873  -13.4310 O   0  0  0  0  0  0  0  0  0  0  0  0
   -9.5922   35.7606  -13.4795 O   0  0  0  0  0  0  0  0  0  0  0  0
   -6.2248   37.6468  -12.8692 C   0  0  1  0  0  0  0  0  0  0  0  0
   -9.2537   33.8168  -12.0696 C   0  0  1  0  0  0  0  0  0  0  0  0
   -5.1712   38.1026  -13.4728 O   0  0  0  0  0  0  0  0  0  0  0  0
  -10.3112   33.4221  -12.6526 O   0  0  0  0  0  0  0  0  0  0  0  0
   -7.3550   37.6993  -13.8713 C   0  0  1  0  0  0  0  0  0  0  0  0
   -8.1419   33.3018  -13.0052 C   0  0  1  0  0  0  0  0  0  0  0  0
   -8.4634   38.0892  -13.1874 O   0  0  0  0  0  0  0  0  0  0  0  0
   -7.0453   32.9596  -12.3180 O   0  0  0  0  0  0  0  0  0  0  0  0
   -6.9089   38.8224  -14.8712 C   0  0  1  0  0  0  0  0  0  0  0  0
   -8.7226   32.0908  -13.7704 C   0  0  1  0  0  0  0  0  0  0  0  0
   -7.6340   40.0874  -14.5755 O   0  0  0  0  0  0  0  0  0  0  0  0
   -8.2145   30.8081  -13.1858 O   0  0  0  0  0  0  0  0  0  0  0  0
   -5.6323   38.9709  -14.7166 C   0  0  2  0  0  0  0  0  0  0  0  0
   -9.9974   32.1689  -13.5976 C   0  0  2  0  0  0  0  0  0  0  0  0
   -5.1211   36.4295  -19.4178 N   0  0  0  0  0  0  0  0  0  0  0  0
   -6.2475   36.4642  -18.6515 C   0  0  0  0  0  0  0  0  0  0  0  0
   -6.2763   37.1458  -17.4615 N   0  0  0  0  0  0  0  0  0  0  0  0
   -5.1492   37.7973  -17.0426 C   0  0  0  0  0  0  0  0  0  0  0  0
   -4.0316   37.7662  -17.7818 C   0  0  0  0  0  0  0  0  0  0  0  0
   -4.0138   37.0791  -18.9944 C   0  0  0  0  0  0  0  0  0  0  0  0
   -2.9089   36.9701  -19.8617 N   0  0  0  0  0  0  0  0  0  0  0  0
   -3.0898   38.4881  -17.1384 N   0  0  0  0  0  0  0  0  0  0  0  0
   -3.6405   38.9610  -15.9841 C   0  0  0  0  0  0  0  0  0  0  0  0
   -4.9146   38.5511  -15.9314 N   0  0  0  0  0  0  0  0  0  0  0  0
  -10.5778   34.7638  -18.0753 N   0  0  0  0  0  0  0  0  0  0  0  0
   -9.6499   35.0006  -17.1113 C   0  0  0  0  0  0  0  0  0  0  0  0
   -9.6358   34.2283  -15.9840 N   0  0  0  0  0  0  0  0  0  0  0  0
  -10.5412   33.2249  -15.8296 C   0  0  0  0  0  0  0  0  0  0  0  0
  -11.4620   32.9812  -16.7841 C   0  0  0  0  0  0  0  0  0  0  0  0
  -11.4717   33.7752  -17.9272 C   0  0  0  0  0  0  0  0  0  0  0  0
  -12.3672   33.7069  -19.0535 N   0  0  0  0  0  0  0  0  0  0  0  0
  -12.2189   31.9407  -16.3605 N   0  0  0  0  0  0  0  0  0  0  0  0
  -11.7542   31.5424  -15.1418 C   0  0  0  0  0  0  0  0  0  0  0  0
  -10.7150   32.3406  -14.8238 N   0  0  0  0  0  0  0  0  0  0  0  0
  1  3  1  1  0  0  0
  1  5  2  0  0  0  0
  1  9  1  0  0  0  0
  1 18  1  0  0  0  0
  2  4  1  6  0  0  0
  2  6  2  0  0  0  0
  2 10  1  0  0  0  0
  2 17  1  0  0  0  0
  7  9  1  0  0  0  0
  8 10  1  0  0  0  0
 11  7  1  6  0  0  0
 11 13  1  0  0  0  0
 11 15  1  0  0  0  0
 12  8  1  6  0  0  0
 12 14  1  0  0  0  0
 12 16  1  0  0  0  0
 13 23  1  0  0  0  0
 14 24  1  0  0  0  0
 15 17  1  1  0  0  0
 15 19  1  0  0  0  0
 16 18  1  1  0  0  0
 16 20  1  0  0  0  0
 19 21  1  1  0  0  0
 19 23  1  0  0  0  0
 20 22  1  1  0  0  0
 20 24  1  0  0  0  0
 23 34  1  6  0  0  0
 24 44  1  6  0  0  0
 25 26  2  0  0  0  0
 25 30  1  0  0  0  0
 26 27  1  0  0  0  0
 27 28  2  0  0  0  0
 28 29  1  0  0  0  0
 28 34  1  0  0  0  0
 29 30  2  0  0  0  0
 29 32  1  0  0  0  0
 30 31  1  0  0  0  0
 32 33  2  0  0  0  0
 33 34  1  0  0  0  0
 35 36  2  0  0  0  0
 35 40  1  0  0  0  0
 36 37  1  0  0  0  0
 37 38  2  0  0  0  0
 38 39  1  0  0  0  0
 38 44  1  0  0  0  0
 39 40  2  0  0  0  0
 39 42  1  0  0  0  0
 40 41  1  0  0  0  0
 42 43  2  0  0  0  0
 43 44  1  0  0  0  0
M  CHG  2   3  -1   4  -1
M  END
>  <CHROM.1>
101.64732484,69.48832477,-7.78946162,35.53897920,-14.93924626,-2.75678817
-0.65696687,-1.32872609

>  <Name>
ligand

>  <RI>
0

>  <Rbt.Current_Directory>
/home/itssahil/PROJECTS/Mol_Feturizer/New_Systems/rnas/4QLM

>  <Rbt.Executable>
rbdock ($Id: //depot/dev/client3/rdock/2013.1/src/exe/rbdock.cxx#4 $)

>  <Rbt.Library>
libRbt.so (2013.1, Build901 2013/11/27)

>  <Rbt.Parameter_File>
/export/apps/rDock/src/rDock_2013.1_src/data/scripts/dock_solv.prm

>  <Rbt.Receptor>
prm/pocket_docking_4.prm

>  <SCORE>
-14.3696

>  <SCORE.INTER>
-12.9169

>  <SCORE.INTER.CONST>
1

>  <SCORE.INTER.POLAR>
0

>  <SCORE.INTER.ROT>
2

>  <SCORE.INTER.SOLV>
25.4462

>  <SCORE.INTER.VDW>
-22.0267

>  <SCORE.INTER.norm>
-0.293567

>  <SCORE.INTRA>
-1.45266

>  <SCORE.INTRA.DIHEDRAL>
-0.00507863

>  <SCORE.INTRA.DIHEDRAL.0>
2.32994

>  <SCORE.INTRA.POLAR>
0

>  <SCORE.INTRA.POLAR.0>
0

>  <SCORE.INTRA.REPUL>
0

>  <SCORE.INTRA.REPUL.0>
0

>  <SCORE.INTRA.SOLV>
0.549089

>  <SCORE.INTRA.SOLV.lig_0>
-117.703

>  <SCORE.INTRA.VDW>
-1.72467

>  <SCORE.INTRA.VDW.0>
-1.59997

>  <SCORE.INTRA.norm>
-0.0330151

>  <SCORE.RESTR>
0

>  <SCORE.RESTR.CAVITY>
0

>  <SCORE.RESTR.norm>
0

>  <SCORE.SYSTEM>
0

>  <SCORE.SYSTEM.CONST>
0

>  <SCORE.SYSTEM.DIHEDRAL>
0

>  <SCORE.SYSTEM.SOLV>
0

>  <SCORE.SYSTEM.norm>
0

>  <SCORE.heavy>
44

>  <SCORE.norm>
-0.326582

>  <RMSD>
3.750

$$$$
ligand
 OpenBabel11021811513D
libRbt.so/2013.1/901 2013/11/27
 44 50  0  0  0  0  0  0  0  0999 V2000
   -1.8608   36.3555  -13.8566 P   0  0  2  0  0  0  0  0  0  0  0  0
   -6.7766   36.9374  -16.0250 P   0  0  1  0  0  0  0  0  0  0  0  0
   -0.8820   37.4805  -13.5300 O   0  5  0  0  0  0  0  0  0  0  0  0
   -6.8778   35.8399  -17.0562 O   0  5  0  0  0  0  0  0  0  0  0  0
   -1.0207   35.1217  -14.0835 O   0  0  0  0  0  0  0  0  0  0  0  0
   -8.1979   37.5086  -15.8187 O   0  0  0  0  0  0  0  0  0  0  0  0
   -2.7773   38.2634  -15.2570 C   0  0  0  0  0  0  0  0  0  0  0  0
   -5.7353   37.1811  -13.6746 C   0  0  0  0  0  0  0  0  0  0  0  0
   -2.6282   36.8431  -15.1278 O   0  0  0  0  0  0  0  0  0  0  0  0
   -6.0244   36.2349  -14.7422 O   0  0  0  0  0  0  0  0  0  0  0  0
   -3.4985   38.5997  -16.5579 C   0  0  1  0  0  0  0  0  0  0  0  0
   -5.1516   36.3336  -12.4818 C   0  0  1  0  0  0  0  0  0  0  0  0
   -2.6185   38.6369  -17.5100 O   0  0  0  0  0  0  0  0  0  0  0  0
   -5.9868   35.3936  -12.3008 O   0  0  0  0  0  0  0  0  0  0  0  0
   -4.5242   37.5635  -16.9560 C   0  0  1  0  0  0  0  0  0  0  0  0
   -3.8806   35.5754  -12.9137 C   0  0  1  0  0  0  0  0  0  0  0  0
   -5.7366   38.0534  -16.5839 O   0  0  0  0  0  0  0  0  0  0  0  0
   -2.7739   36.1916  -12.4808 O   0  0  0  0  0  0  0  0  0  0  0  0
   -4.4124   37.5164  -18.5198 C   0  0  1  0  0  0  0  0  0  0  0  0
   -3.9891   34.1473  -12.3323 C   0  0  1  0  0  0  0  0  0  0  0  0
   -5.5265   38.2868  -19.1352 O   0  0  0  0  0  0  0  0  0  0  0  0
   -3.1245   34.0088  -11.1163 O   0  0  0  0  0  0  0  0  0  0  0  0
   -3.2654   38.0329  -18.8254 C   0  0  2  0  0  0  0  0  0  0  0  0
   -5.2272   34.0175  -11.9988 C   0  0  2  0  0  0  0  0  0  0  0  0
    0.5299   34.2386  -18.6825 N   0  0  0  0  0  0  0  0  0  0  0  0
    0.0435   34.9171  -17.6054 C   0  0  0  0  0  0  0  0  0  0  0  0
   -0.9315   35.8712  -17.7481 N   0  0  0  0  0  0  0  0  0  0  0  0
   -1.4169   36.1423  -18.9975 C   0  0  0  0  0  0  0  0  0  0  0  0
   -0.9433   35.4884  -20.0674 C   0  0  0  0  0  0  0  0  0  0  0  0
    0.0407   34.5136  -19.9124 C   0  0  0  0  0  0  0  0  0  0  0  0
    0.6202   33.7575  -20.9505 N   0  0  0  0  0  0  0  0  0  0  0  0
   -1.5966   35.9478  -21.1556 N   0  0  0  0  0  0  0  0  0  0  0  0
   -2.4779   36.9029  -20.7430 C   0  0  0  0  0  0  0  0  0  0  0  0
   -2.3812   37.0121  -19.4115 N   0  0  0  0  0  0  0  0  0  0  0  0
   -9.6058   31.3575  -12.9325 N   0  0  0  0  0  0  0  0  0  0  0  0
   -9.4458   32.3786  -12.0505 C   0  0  0  0  0  0  0  0  0  0  0  0
   -8.2212   32.9705  -11.9185 N   0  0  0  0  0  0  0  0  0  0  0  0
   -7.1697   32.5444  -12.6690 C   0  0  0  0  0  0  0  0  0  0  0  0
   -7.3223   31.5347  -13.5495 C   0  0  0  0  0  0  0  0  0  0  0  0
   -8.5720   30.9349  -13.6748 C   0  0  0  0  0  0  0  0  0  0  0  0
   -8.9546   29.8398  -14.5289 N   0  0  0  0  0  0  0  0  0  0  0  0
   -6.1218   31.3297  -14.1427 N   0  0  0  0  0  0  0  0  0  0  0  0
   -5.2313   32.2237  -13.6253 C   0  0  0  0  0  0  0  0  0  0  0  0
   -5.8897   32.9721  -12.7173 N   0  0  0  0  0  0  0  0  0  0  0  0
  1  3  1  1  0  0  0
  1  5  2  0  0  0  0
  1  9  1  0  0  0  0
  1 18  1  0  0  0  0
  2  4  1  6  0  0  0
  2  6  2  0  0  0  0
  2 10  1  0  0  0  0
  2 17  1  0  0  0  0
  7  9  1  0  0  0  0
  8 10  1  0  0  0  0
 11  7  1  1  0  0  0
 11 13  1  0  0  0  0
 11 15  1  0  0  0  0
 12  8  1  6  0  0  0
 12 14  1  0  0  0  0
 12 16  1  0  0  0  0
 13 23  1  0  0  0  0
 14 24  1  0  0  0  0
 15 17  1  6  0  0  0
 15 19  1  0  0  0  0
 16 18  1  1  0  0  0
 16 20  1  0  0  0  0
 19 21  1  6  0  0  0
 19 23  1  0  0  0  0
 20 22  1  1  0  0  0
 20 24  1  0  0  0  0
 23 34  1  1  0  0  0
 24 44  1  6  0  0  0
 25 26  2  0  0  0  0
 25 30  1  0  0  0  0
 26 27  1  0  0  0  0
 27 28  2  0  0  0  0
 28 29  1  0  0  0  0
 28 34  1  0  0  0  0
 29 30  2  0  0  0  0
 29 32  1  0  0  0  0
 30 31  1  0  0  0  0
 32 33  2  0  0  0  0
 33 34  1  0  0  0  0
 35 36  2  0  0  0  0
 35 40  1  0  0  0  0
 36 37  1  0  0  0  0
 37 38  2  0  0  0  0
 38 39  1  0  0  0  0
 38 44  1  0  0  0  0
 39 40  2  0  0  0  0
 39 42  1  0  0  0  0
 40 41  1  0  0  0  0
 42 43  2  0  0  0  0
 43 44  1  0  0  0  0
M  CHG  2   3  -1   4  -1
M  END
>  <CHROM.1>
26.41050429,-58.56394208,-4.26672120,35.44912855,-15.51730662,-0.87279946
0.13937394,1.99424873

>  <Name>
ligand

>  <RI>
0

>  <Rbt.Current_Directory>
/home/itssahil/PROJECTS/Mol_Feturizer/New_Systems/rnas/4QLM

>  <Rbt.Executable>
rbdock ($Id: //depot/dev/client3/rdock/2013.1/src/exe/rbdock.cxx#4 $)

>  <Rbt.Library>
libRbt.so (2013.1, Build901 2013/11/27)

>  <Rbt.Parameter_File>
/export/apps/rDock/src/rDock_2013.1_src/data/scripts/dock_solv.prm

>  <Rbt.Receptor>
prm/pocket_docking_5.prm

>  <SCORE>
-12.95

>  <SCORE.INTER>
-14.3819

>  <SCORE.INTER.CONST>
1

>  <SCORE.INTER.POLAR>
0

>  <SCORE.INTER.ROT>
2

>  <SCORE.INTER.SOLV>
31.3661

>  <SCORE.INTER.VDW>
-24.9766

>  <SCORE.INTER.norm>
-0.326862

>  <SCORE.INTRA>
1.16376

>  <SCORE.INTRA.DIHEDRAL>
0.174898

>  <SCORE.INTRA.DIHEDRAL.0>
2.32994

>  <SCORE.INTRA.POLAR>
0

>  <SCORE.INTRA.POLAR.0>
0

>  <SCORE.INTRA.REPUL>
0

>  <SCORE.INTRA.REPUL.0>
0

>  <SCORE.INTRA.SOLV>
0.382293

>  <SCORE.INTRA.SOLV.lig_0>
-117.703

>  <SCORE.INTRA.VDW>
0.885169

>  <SCORE.INTRA.VDW.0>
-1.59997

>  <SCORE.INTRA.norm>
0.0264492

>  <SCORE.RESTR>
0.268194

>  <SCORE.RESTR.CAVITY>
0.268194

>  <SCORE.RESTR.norm>
0.00609533

>  <SCORE.SYSTEM>
0

>  <SCORE.SYSTEM.CONST>
0

>  <SCORE.SYSTEM.DIHEDRAL>
0

>  <SCORE.SYSTEM.SOLV>
0

>  <SCORE.SYSTEM.norm>
0

>  <SCORE.heavy>
44

>  <SCORE.norm>
-0.294317

>  <RMSD>
3.751

$$$$
ligand
 OpenBabel11021811513D
libRbt.so/2013.1/901 2013/11/27
 44 50  0  0  0  0  0  0  0  0999 V2000
   -9.6980   37.1870  -13.0565 P   0  0  2  0  0  0  0  0  0  0  0  0
   -5.7977   33.5395  -13.8864 P   0  0  1  0  0  0  0  0  0  0  0  0
  -10.5638   37.3104  -11.8051 O   0  5  0  0  0  0  0  0  0  0  0  0
   -5.9926   33.0811  -15.3111 O   0  5  0  0  0  0  0  0  0  0  0  0
  -10.5109   37.7694  -14.1876 O   0  0  0  0  0  0  0  0  0  0  0  0
   -4.4141   33.0297  -13.4232 O   0  0  0  0  0  0  0  0  0  0  0  0
   -9.3772   34.9125  -11.9773 C   0  0  0  0  0  0  0  0  0  0  0  0
   -6.0190   35.7750  -12.6127 C   0  0  0  0  0  0  0  0  0  0  0  0
   -9.4129   35.6573  -13.2021 O   0  0  0  0  0  0  0  0  0  0  0  0
   -6.0552   35.1632  -13.9330 O   0  0  0  0  0  0  0  0  0  0  0  0
   -9.1388   33.4346  -12.2679 C   0  0  1  0  0  0  0  0  0  0  0  0
   -6.1406   37.3284  -12.8441 C   0  0  1  0  0  0  0  0  0  0  0  0
  -10.2834   32.8848  -12.5324 O   0  0  0  0  0  0  0  0  0  0  0  0
   -5.2518   37.6074  -13.7079 O   0  0  0  0  0  0  0  0  0  0  0  0
   -8.2562   33.1986  -13.4720 C   0  0  1  0  0  0  0  0  0  0  0  0
   -7.4484   37.6755  -13.5833 C   0  0  1  0  0  0  0  0  0  0  0  0
   -7.0117   32.9300  -12.9952 O   0  0  0  0  0  0  0  0  0  0  0  0
   -8.3775   38.1405  -12.7392 O   0  0  0  0  0  0  0  0  0  0  0  0
   -8.8732   31.9184  -14.1357 C   0  0  1  0  0  0  0  0  0  0  0  0
   -7.0922   38.7280  -14.6577 C   0  0  1  0  0  0  0  0  0  0  0  0
   -8.0580   30.7219  -13.7932 O   0  0  0  0  0  0  0  0  0  0  0  0
   -7.5025   40.0970  -14.2073 O   0  0  0  0  0  0  0  0  0  0  0  0
  -10.0785   31.8069  -13.6768 C   0  0  2  0  0  0  0  0  0  0  0  0
   -5.8088   38.6746  -14.7626 C   0  0  2  0  0  0  0  0  0  0  0  0
  -11.7642   33.6756  -18.4190 N   0  0  0  0  0  0  0  0  0  0  0  0
  -10.5121   33.8301  -17.9035 C   0  0  0  0  0  0  0  0  0  0  0  0
  -10.1796   33.3111  -16.6781 N   0  0  0  0  0  0  0  0  0  0  0  0
  -11.1281   32.6301  -15.9662 C   0  0  0  0  0  0  0  0  0  0  0  0
  -12.3658   32.4762  -16.4569 C   0  0  0  0  0  0  0  0  0  0  0  0
  -12.6928   32.9985  -17.7071 C   0  0  0  0  0  0  0  0  0  0  0  0
  -13.9514   32.9063  -18.3334 N   0  0  0  0  0  0  0  0  0  0  0  0
  -13.0825   31.7693  -15.5575 N   0  0  0  0  0  0  0  0  0  0  0  0
  -12.2699   31.4940  -14.4977 C   0  0  0  0  0  0  0  0  0  0  0  0
  -11.0602   32.0085  -14.7551 N   0  0  0  0  0  0  0  0  0  0  0  0
   -2.1505   36.4837  -17.7522 N   0  0  0  0  0  0  0  0  0  0  0  0
   -2.1037   36.6602  -16.4057 C   0  0  0  0  0  0  0  0  0  0  0  0
   -3.1506   37.2634  -15.7674 N   0  0  0  0  0  0  0  0  0  0  0  0
   -4.2358   37.6799  -16.4741 C   0  0  0  0  0  0  0  0  0  0  0  0
   -4.2912   37.5040  -17.8098 C   0  0  0  0  0  0  0  0  0  0  0  0
   -3.2188   36.8922  -18.4524 C   0  0  0  0  0  0  0  0  0  0  0  0
   -3.0570   36.6225  -19.8582 N   0  0  0  0  0  0  0  0  0  0  0  0
   -5.4721   38.0122  -18.2367 N   0  0  0  0  0  0  0  0  0  0  0  0
   -6.1451   38.4968  -17.1540 C   0  0  0  0  0  0  0  0  0  0  0  0
   -5.3737   38.2839  -16.0688 N   0  0  0  0  0  0  0  0  0  0  0  0
  1  3  1  1  0  0  0
  1  5  2  0  0  0  0
  1  9  1  0  0  0  0
  1 18  1  0  0  0  0
  2  4  1  6  0  0  0
  2  6  2  0  0  0  0
  2 10  1  0  0  0  0
  2 17  1  0  0  0  0
  7  9  1  0  0  0  0
  8 10  1  0  0  0  0
 11  7  1  6  0  0  0
 11 13  1  0  0  0  0
 11 15  1  0  0  0  0
 12  8  1  6  0  0  0
 12 14  1  0  0  0  0
 12 16  1  0  0  0  0
 13 23  1  0  0  0  0
 14 24  1  0  0  0  0
 15 17  1  1  0  0  0
 15 19  1  0  0  0  0
 16 18  1  1  0  0  0
 16 20  1  0  0  0  0
 19 21  1  1  0  0  0
 19 23  1  0  0  0  0
 20 22  1  1  0  0  0
 20 24  1  0  0  0  0
 23 34  1  6  0  0  0
 24 44  1  6  0  0  0
 25 26  2  0  0  0  0
 25 30  1  0  0  0  0
 26 27  1  0  0  0  0
 27 28  2  0  0  0  0
 28 29  1  0  0  0  0
 28 34  1  0  0  0  0
 29 30  2  0  0  0  0
 29 32  1  0  0  0  0
 30 31  1  0  0  0  0
 32 33  2  0  0  0  0
 33 34  1  0  0  0  0
 35 36  2  0  0  0  0
 35 40  1  0  0  0  0
 36 37  1  0  0  0  0
 37 38  2  0  0  0  0
 38 39  1  0  0  0  0
 38 44  1  0  0  0  0
 39 40  2  0  0  0  0
 39 42  1  0  0  0  0
 40 41  1  0  0  0  0
 42 43  2  0  0  0  0
 43 44  1  0  0  0  0
M  CHG  2   3  -1   4  -1
M  END
>  <CHROM.1>
95.89486305,-33.79709117,-7.84008308,35.23376872,-14.88717638,2.88561905
-0.55194676,-2.24546555

>  <Name>
ligand

>  <RI>
0

>  <Rbt.Current_Directory>
/home/itssahil/PROJECTS/Mol_Feturizer/New_Systems/rnas/4QLM

>  <Rbt.Executable>
rbdock ($Id: //depot/dev/client3/rdock/2013.1/src/exe/rbdock.cxx#4 $)

>  <Rbt.Library>
libRbt.so (2013.1, Build901 2013/11/27)

>  <Rbt.Parameter_File>
/export/apps/rDock/src/rDock_2013.1_src/data/scripts/dock_solv.prm

>  <Rbt.Receptor>
prm/pocket_docking_4.prm

>  <SCORE>
-9.54814

>  <SCORE.INTER>
-11.6062

>  <SCORE.INTER.CONST>
1

>  <SCORE.INTER.POLAR>
0

>  <SCORE.INTER.ROT>
2

>  <SCORE.INTER.SOLV>
19.5773

>  <SCORE.INTER.VDW>
-19.1966

>  <SCORE.INTER.norm>
-0.263777

>  <SCORE.INTRA>
0.843582

>  <SCORE.INTRA.DIHEDRAL>
-0.0158598

>  <SCORE.INTRA.DIHEDRAL.0>
2.32994

>  <SCORE.INTRA.POLAR>
0

>  <SCORE.INTRA.POLAR.0>
0

>  <SCORE.INTRA.REPUL>
0

>  <SCORE.INTRA.REPUL.0>
0

>  <SCORE.INTRA.SOLV>
0.090769

>  <SCORE.INTRA.SOLV.lig_0>
-117.703

>  <SCORE.INTRA.VDW>
0.806127

>  <SCORE.INTRA.VDW.0>
-1.59997

>  <SCORE.INTRA.norm>
0.0191723

>  <SCORE.RESTR>
1.21447

>  <SCORE.RESTR.CAVITY>
1.21447

>  <SCORE.RESTR.norm>
0.0276016

>  <SCORE.SYSTEM>
0

>  <SCORE.SYSTEM.CONST>
0

>  <SCORE.SYSTEM.DIHEDRAL>
0

>  <SCORE.SYSTEM.SOLV>
0

>  <SCORE.SYSTEM.norm>
0

>  <SCORE.heavy>
44

>  <SCORE.norm>
-0.217003

>  <RMSD>
3.764

$$$$
ligand
 OpenBabel11021811513D
libRbt.so/2013.1/901 2013/11/27
 44 50  0  0  0  0  0  0  0  0999 V2000
   -5.8786   33.7717  -13.0337 P   0  0  2  0  0  0  0  0  0  0  0  0
   -9.8552   37.3838  -13.6204 P   0  0  1  0  0  0  0  0  0  0  0  0
   -4.7565   33.8279  -12.0002 O   0  5  0  0  0  0  0  0  0  0  0  0
   -9.9809   37.5833  -15.1112 O   0  5  0  0  0  0  0  0  0  0  0  0
   -5.3395   32.9707  -14.1945 O   0  0  0  0  0  0  0  0  0  0  0  0
  -11.0997   38.0230  -12.9632 O   0  0  0  0  0  0  0  0  0  0  0  0
   -5.9447   36.2087  -12.3284 C   0  0  0  0  0  0  0  0  0  0  0  0
   -9.3626   35.3920  -12.0526 C   0  0  0  0  0  0  0  0  0  0  0  0
   -6.1846   35.2645  -13.3806 O   0  0  0  0  0  0  0  0  0  0  0  0
   -9.6192   35.7668  -13.4354 O   0  0  0  0  0  0  0  0  0  0  0  0
   -6.2375   37.6238  -12.8155 C   0  0  1  0  0  0  0  0  0  0  0  0
   -9.3000   33.8181  -12.0276 C   0  0  1  0  0  0  0  0  0  0  0  0
   -5.1788   38.0717  -13.4163 O   0  0  0  0  0  0  0  0  0  0  0  0
  -10.3595   33.4331  -12.6134 O   0  0  0  0  0  0  0  0  0  0  0  0
   -7.3652   37.6872  -13.8199 C   0  0  1  0  0  0  0  0  0  0  0  0
   -8.1905   33.2952  -12.9618 C   0  0  1  0  0  0  0  0  0  0  0  0
   -8.4716   38.0853  -13.1376 O   0  0  0  0  0  0  0  0  0  0  0  0
   -7.0983   32.9428  -12.2728 O   0  0  0  0  0  0  0  0  0  0  0  0
   -6.9076   38.8079  -14.8172 C   0  0  1  0  0  0  0  0  0  0  0  0
   -8.7799   32.0902  -13.7299 C   0  0  1  0  0  0  0  0  0  0  0  0
   -7.6227   40.0785  -14.5211 O   0  0  0  0  0  0  0  0  0  0  0  0
   -8.2837   30.8024  -13.1461 O   0  0  0  0  0  0  0  0  0  0  0  0
   -5.6301   38.9456  -14.6598 C   0  0  2  0  0  0  0  0  0  0  0  0
  -10.0543   32.1788  -13.5595 C   0  0  2  0  0  0  0  0  0  0  0  0
   -5.1654   36.5023  -19.4175 N   0  0  0  0  0  0  0  0  0  0  0  0
   -6.3016   36.5738  -18.6684 C   0  0  0  0  0  0  0  0  0  0  0  0
   -6.3168   37.2254  -17.4615 N   0  0  0  0  0  0  0  0  0  0  0  0
   -5.1662   37.8089  -17.0079 C   0  0  0  0  0  0  0  0  0  0  0  0
   -4.0391   37.7409  -17.7299 C   0  0  0  0  0  0  0  0  0  0  0  0
   -4.0346   37.0849  -18.9597 C   0  0  0  0  0  0  0  0  0  0  0  0
   -2.9218   36.9429  -19.8121 N   0  0  0  0  0  0  0  0  0  0  0  0
   -3.0737   38.3982  -17.0530 N   0  0  0  0  0  0  0  0  0  0  0  0
   -3.6199   38.8685  -15.8955 C   0  0  0  0  0  0  0  0  0  0  0  0
   -4.9135   38.5215  -15.8738 N   0  0  0  0  0  0  0  0  0  0  0  0
  -10.5978   34.7785  -18.0390 N   0  0  0  0  0  0  0  0  0  0  0  0
   -9.6688   35.0050  -17.0736 C   0  0  0  0  0  0  0  0  0  0  0  0
   -9.6653   34.2330  -15.9461 N   0  0  0  0  0  0  0  0  0  0  0  0
  -10.5824   33.2400  -15.7928 C   0  0  0  0  0  0  0  0  0  0  0  0
  -11.5044   33.0066  -16.7487 C   0  0  0  0  0  0  0  0  0  0  0  0
  -11.5031   33.8002  -17.8921 C   0  0  0  0  0  0  0  0  0  0  0  0
  -12.3976   33.7418  -19.0197 N   0  0  0  0  0  0  0  0  0  0  0  0
  -12.2739   31.9750  -16.3259 N   0  0  0  0  0  0  0  0  0  0  0  0
  -11.8157   31.5718  -15.1063 C   0  0  0  0  0  0  0  0  0  0  0  0
  -10.7679   32.3582  -14.7869 N   0  0  0  0  0  0  0  0  0  0  0  0
  1  3  1  1  0  0  0
  1  5  2  0  0  0  0
  1  9  1  0  0  0  0
  1 18  1  0  0  0  0
  2  4  1  6  0  0  0
  2  6  2  0  0  0  0
  2 10  1  0  0  0  0
  2 17  1  0  0  0  0
  7  9  1  0  0  0  0
  8 10  1  0  0  0  0
 11  7  1  6  0  0  0
 11 13  1  0  0  0  0
 11 15  1  0  0  0  0
 12  8  1  6  0  0  0
 12 14  1  0  0  0  0
 12 16  1  0  0  0  0
 13 23  1  0  0  0  0
 14 24  1  0  0  0  0
 15 17  1  1  0  0  0
 15 19  1  0  0  0  0
 16 18  1  1  0  0  0
 16 20  1  0  0  0  0
 19 21  1  1  0  0  0
 19 23  1  0  0  0  0
 20 22  1  1  0  0  0
 20 24  1  0  0  0  0
 23 34  1  6  0  0  0
 24 44  1  6  0  0  0
 25 26  2  0  0  0  0
 25 30  1  0  0  0  0
 26 27  1  0  0  0  0
 27 28  2  0  0  0  0
 28 29  1  0  0  0  0
 28 34  1  0  0  0  0
 29 30  2  0  0  0  0
 29 32  1  0  0  0  0
 30 31  1  0  0  0  0
 32 33  2  0  0  0  0
 33 34  1  0  0  0  0
 35 36  2  0  0  0  0
 35 40  1  0  0  0  0
 36 37  1  0  0  0  0
 37 38  2  0  0  0  0
 38 39  1  0  0  0  0
 38 44  1  0  0  0  0
 39 40  2  0  0  0  0
 39 42  1  0  0  0  0
 40 41  1  0  0  0  0
 42 43  2  0  0  0  0
 43 44  1  0  0  0  0
M  CHG  2   3  -1   4  -1
M  END
>  <CHROM.1>
104.52297668,69.69480639,-7.81756130,35.53796274,-14.89584654,-2.75008636
-0.64786955,-1.31876910

>  <Name>
ligand

>  <RI>
0

>  <Rbt.Current_Directory>
/home/itssahil/PROJECTS/Mol_Feturizer/New_Systems/rnas/4QLM

>  <Rbt.Executable>
rbdock ($Id: //depot/dev/client3/rdock/2013.1/src/exe/rbdock.cxx#4 $)

>  <Rbt.Library>
libRbt.so (2013.1, Build901 2013/11/27)

>  <Rbt.Parameter_File>
/export/apps/rDock/src/rDock_2013.1_src/data/scripts/dock_solv.prm

>  <Rbt.Receptor>
prm/pocket_docking_4.prm

>  <SCORE>
-14.4441

>  <SCORE.INTER>
-13.0643

>  <SCORE.INTER.CONST>
1

>  <SCORE.INTER.POLAR>
0

>  <SCORE.INTER.ROT>
2

>  <SCORE.INTER.SOLV>
24.9637

>  <SCORE.INTER.VDW>
-21.9641

>  <SCORE.INTER.norm>
-0.296915

>  <SCORE.INTRA>
-1.37982

>  <SCORE.INTRA.DIHEDRAL>
0.00601117

>  <SCORE.INTRA.DIHEDRAL.0>
2.32994

>  <SCORE.INTRA.POLAR>
0

>  <SCORE.INTRA.POLAR.0>
0

>  <SCORE.INTRA.REPUL>
0

>  <SCORE.INTRA.REPUL.0>
0

>  <SCORE.INTRA.SOLV>
0.538548

>  <SCORE.INTRA.SOLV.lig_0>
-117.703

>  <SCORE.INTRA.VDW>
-1.6521

>  <SCORE.INTRA.VDW.0>
-1.59997

>  <SCORE.INTRA.norm>
-0.0313595

>  <SCORE.RESTR>
0

>  <SCORE.RESTR.CAVITY>
0

>  <SCORE.RESTR.norm>
0

>  <SCORE.SYSTEM>
0

>  <SCORE.SYSTEM.CONST>
0

>  <SCORE.SYSTEM.DIHEDRAL>
0

>  <SCORE.SYSTEM.SOLV>
0

>  <SCORE.SYSTEM.norm>
0

>  <SCORE.heavy>
44

>  <SCORE.norm>
-0.328275

>  <RMSD>
3.767

$$$$
ligand
 OpenBabel11021811513D
libRbt.so/2013.1/901 2013/11/27
 44 50  0  0  0  0  0  0  0  0999 V2000
   -8.7855   35.9990  -17.2665 P   0  0  2  0  0  0  0  0  0  0  0  0
   -6.8759   37.8608  -12.5662 P   0  0  1  0  0  0  0  0  0  0  0  0
  -10.1176   36.3761  -17.9098 O   0  5  0  0  0  0  0  0  0  0  0  0
   -6.2983   36.6495  -11.8755 O   0  5  0  0  0  0  0  0  0  0  0  0
   -8.4424   34.6243  -17.7881 O   0  0  0  0  0  0  0  0  0  0  0  0
   -6.3819   39.1083  -11.7991 O   0  0  0  0  0  0  0  0  0  0  0  0
  -10.0539   36.9768  -15.2978 C   0  0  0  0  0  0  0  0  0  0  0  0
   -7.0056   38.7211  -14.9975 C   0  0  0  0  0  0  0  0  0  0  0  0
   -9.0519   36.0453  -15.7272 O   0  0  0  0  0  0  0  0  0  0  0  0
   -6.4374   37.6896  -14.1420 O   0  0  0  0  0  0  0  0  0  0  0  0
  -10.2446   36.8842  -13.7876 C   0  0  1  0  0  0  0  0  0  0  0  0
   -6.3836   38.4985  -16.4276 C   0  0  1  0  0  0  0  0  0  0  0  0
  -11.0793   35.9218  -13.5438 O   0  0  0  0  0  0  0  0  0  0  0  0
   -5.1287   38.4368  -16.2394 O   0  0  0  0  0  0  0  0  0  0  0  0
   -8.9708   36.5515  -13.0452 C   0  0  1  0  0  0  0  0  0  0  0  0
   -6.7133   37.0894  -16.9595 C   0  0  1  0  0  0  0  0  0  0  0  0
   -8.4946   37.7228  -12.5457 O   0  0  0  0  0  0  0  0  0  0  0  0
   -7.7140   37.1249  -17.8479 O   0  0  0  0  0  0  0  0  0  0  0  0
   -9.4560   35.6198  -11.8804 C   0  0  1  0  0  0  0  0  0  0  0  0
   -5.4191   36.5349  -17.5972 C   0  0  1  0  0  0  0  0  0  0  0  0
   -9.5332   36.3890  -10.6093 O   0  0  0  0  0  0  0  0  0  0  0  0
   -5.4865   36.6328  -19.0909 O   0  0  0  0  0  0  0  0  0  0  0  0
  -10.6208   35.1718  -12.2244 C   0  0  2  0  0  0  0  0  0  0  0  0
   -4.4783   37.2976  -17.1565 C   0  0  2  0  0  0  0  0  0  0  0  0
   -8.1654   30.4201  -12.6869 N   0  0  0  0  0  0  0  0  0  0  0  0
   -7.5581   31.6026  -12.3868 C   0  0  0  0  0  0  0  0  0  0  0  0
   -8.2778   32.7663  -12.2901 N   0  0  0  0  0  0  0  0  0  0  0  0
   -9.6283   32.7308  -12.5027 C   0  0  0  0  0  0  0  0  0  0  0  0
  -10.2387   31.5767  -12.8057 C   0  0  0  0  0  0  0  0  0  0  0  0
   -9.5013   30.3971  -12.8927 C   0  0  0  0  0  0  0  0  0  0  0  0
  -10.0197   29.1240  -13.2018 N   0  0  0  0  0  0  0  0  0  0  0  0
  -11.5557   31.8322  -12.9557 N   0  0  0  0  0  0  0  0  0  0  0  0
  -11.7500   33.1656  -12.7478 C   0  0  0  0  0  0  0  0  0  0  0  0
  -10.5665   33.7183  -12.4514 N   0  0  0  0  0  0  0  0  0  0  0  0
   -3.4257   34.3652  -12.9836 N   0  0  0  0  0  0  0  0  0  0  0  0
   -4.6373   34.8637  -13.3439 C   0  0  0  0  0  0  0  0  0  0  0  0
   -4.7445   35.6269  -14.4724 N   0  0  0  0  0  0  0  0  0  0  0  0
   -3.6466   35.8818  -15.2339 C   0  0  0  0  0  0  0  0  0  0  0  0
   -2.4419   35.3867  -14.8850 C   0  0  0  0  0  0  0  0  0  0  0  0
   -2.3410   34.6136  -13.7320 C   0  0  0  0  0  0  0  0  0  0  0  0
   -1.1644   34.0058  -13.1654 N   0  0  0  0  0  0  0  0  0  0  0  0
   -1.5488   35.8008  -15.8155 N   0  0  0  0  0  0  0  0  0  0  0  0
   -2.2130   36.5493  -16.7421 C   0  0  0  0  0  0  0  0  0  0  0  0
   -3.5098   36.5909  -16.3752 N   0  0  0  0  0  0  0  0  0  0  0  0
  1  3  1  6  0  0  0
  1  5  2  0  0  0  0
  1  9  1  0  0  0  0
  1 18  1  0  0  0  0
  2  4  1  1  0  0  0
  2  6  2  0  0  0  0
  2 10  1  0  0  0  0
  2 17  1  0  0  0  0
  7  9  1  0  0  0  0
  8 10  1  0  0  0  0
 11  7  1  6  0  0  0
 11 13  1  0  0  0  0
 11 15  1  0  0  0  0
 12  8  1  1  0  0  0
 12 14  1  0  0  0  0
 12 16  1  0  0  0  0
 13 23  1  0  0  0  0
 14 24  1  0  0  0  0
 15 17  1  1  0  0  0
 15 19  1  0  0  0  0
 16 18  1  6  0  0  0
 16 20  1  0  0  0  0
 19 21  1  1  0  0  0
 19 23  1  0  0  0  0
 20 22  1  6  0  0  0
 20 24  1  0  0  0  0
 23 34  1  6  0  0  0
 24 44  1  1  0  0  0
 25 26  2  0  0  0  0
 25 30  1  0  0  0  0
 26 27  1  0  0  0  0
 27 28  2  0  0  0  0
 28 29  1  0  0  0  0
 28 34  1  0  0  0  0
 29 30  2  0  0  0  0
 29 32  1  0  0  0  0
 30 31  1  0  0  0  0
 32 33  2  0  0  0  0
 33 34  1  0  0  0  0
 35 36  2  0  0  0  0
 35 40  1  0  0  0  0
 36 37  1  0  0  0  0
 37 38  2  0  0  0  0
 38 39  1  0  0  0  0
 38 44  1  0  0  0  0
 39 40  2  0  0  0  0
 39 42  1  0  0  0  0
 40 41  1  0  0  0  0
 42 43  2  0  0  0  0
 43 44  1  0  0  0  0
M  CHG  2   3  -1   4  -1
M  END
>  <CHROM.1>
113.60193578,60.33825559,-7.25980957,35.55878499,-14.42672243,0.66995954
0.01772105,-0.68166072

>  <Name>
ligand

>  <RI>
0

>  <Rbt.Current_Directory>
/home/itssahil/PROJECTS/Mol_Feturizer/New_Systems/rnas/4QLM

>  <Rbt.Executable>
rbdock ($Id: //depot/dev/client3/rdock/2013.1/src/exe/rbdock.cxx#4 $)

>  <Rbt.Library>
libRbt.so (2013.1, Build901 2013/11/27)

>  <Rbt.Parameter_File>
/export/apps/rDock/src/rDock_2013.1_src/data/scripts/dock_solv.prm

>  <Rbt.Receptor>
prm/pocket_docking_4.prm

>  <SCORE>
-13.7075

>  <SCORE.INTER>
-12.9512

>  <SCORE.INTER.CONST>
1

>  <SCORE.INTER.POLAR>
0

>  <SCORE.INTER.ROT>
2

>  <SCORE.INTER.SOLV>
26.7246

>  <SCORE.INTER.VDW>
-22.4757

>  <SCORE.INTER.norm>
-0.294346

>  <SCORE.INTRA>
-1.05504

>  <SCORE.INTRA.DIHEDRAL>
0.044498

>  <SCORE.INTRA.DIHEDRAL.0>
2.32994

>  <SCORE.INTRA.POLAR>
0

>  <SCORE.INTRA.POLAR.0>
0

>  <SCORE.INTRA.REPUL>
0

>  <SCORE.INTRA.REPUL.0>
0

>  <SCORE.INTRA.SOLV>
0.990243

>  <SCORE.INTRA.SOLV.lig_0>
-117.703

>  <SCORE.INTRA.VDW>
-1.57241

>  <SCORE.INTRA.VDW.0>
-1.59997

>  <SCORE.INTRA.norm>
-0.0239781

>  <SCORE.RESTR>
0.298765

>  <SCORE.RESTR.CAVITY>
0.298765

>  <SCORE.RESTR.norm>
0.00679012

>  <SCORE.SYSTEM>
0

>  <SCORE.SYSTEM.CONST>
0

>  <SCORE.SYSTEM.DIHEDRAL>
0

>  <SCORE.SYSTEM.SOLV>
0

>  <SCORE.SYSTEM.norm>
0

>  <SCORE.heavy>
44

>  <SCORE.norm>
-0.311534

>  <RMSD>
3.779

$$$$
ligand
 OpenBabel11021811513D
libRbt.so/2013.1/901 2013/11/27
 44 50  0  0  0  0  0  0  0  0999 V2000
   -5.9785   33.8953  -12.8744 P   0  0  2  0  0  0  0  0  0  0  0  0
  -10.0422   37.3794  -13.6177 P   0  0  1  0  0  0  0  0  0  0  0  0
   -4.8785   34.0064  -11.8217 O   0  5  0  0  0  0  0  0  0  0  0  0
  -10.1446   37.5417  -15.1148 O   0  5  0  0  0  0  0  0  0  0  0  0
   -5.3950   33.0841  -14.0062 O   0  0  0  0  0  0  0  0  0  0  0  0
  -11.3164   37.9977  -12.9987 O   0  0  0  0  0  0  0  0  0  0  0  0
   -6.1261   36.3447  -12.2265 C   0  0  0  0  0  0  0  0  0  0  0  0
   -9.5245   35.4379  -11.9957 C   0  0  0  0  0  0  0  0  0  0  0  0
   -6.3192   35.3707  -13.2611 O   0  0  0  0  0  0  0  0  0  0  0  0
   -9.7648   35.7742  -13.3913 O   0  0  0  0  0  0  0  0  0  0  0  0
   -6.4488   37.7396  -12.7513 C   0  0  1  0  0  0  0  0  0  0  0  0
   -9.4185   33.8674  -11.9335 C   0  0  1  0  0  0  0  0  0  0  0  0
   -5.3916   38.2037  -13.3425 O   0  0  0  0  0  0  0  0  0  0  0  0
  -10.4555   33.4395  -12.5299 O   0  0  0  0  0  0  0  0  0  0  0  0
   -7.5582   37.7485  -13.7777 C   0  0  1  0  0  0  0  0  0  0  0  0
   -8.2772   33.3553  -12.8346 C   0  0  1  0  0  0  0  0  0  0  0  0
   -8.6882   38.1304  -13.1255 O   0  0  0  0  0  0  0  0  0  0  0  0
   -7.1890   33.0495  -12.1175 O   0  0  0  0  0  0  0  0  0  0  0  0
   -7.1129   38.8592  -14.7918 C   0  0  1  0  0  0  0  0  0  0  0  0
   -8.8178   32.1172  -13.5856 C   0  0  1  0  0  0  0  0  0  0  0  0
   -7.8687   40.1153  -14.5383 O   0  0  0  0  0  0  0  0  0  0  0  0
   -8.2972   30.8574  -12.9634 O   0  0  0  0  0  0  0  0  0  0  0  0
   -5.8430   39.0364  -14.6138 C   0  0  2  0  0  0  0  0  0  0  0  0
  -10.0972   32.1734  -13.4411 C   0  0  2  0  0  0  0  0  0  0  0  0
   -5.2291   36.5308  -19.3219 N   0  0  0  0  0  0  0  0  0  0  0  0
   -6.3836   36.5955  -18.6008 C   0  0  0  0  0  0  0  0  0  0  0  0
   -6.4372   37.2646  -17.4045 N   0  0  0  0  0  0  0  0  0  0  0  0
   -5.3066   37.8726  -16.9330 C   0  0  0  0  0  0  0  0  0  0  0  0
   -4.1619   37.8114  -17.6274 C   0  0  0  0  0  0  0  0  0  0  0  0
   -4.1185   37.1376  -18.8467 C   0  0  0  0  0  0  0  0  0  0  0  0
   -2.9839   37.0004  -19.6707 N   0  0  0  0  0  0  0  0  0  0  0  0
   -3.2229   38.4937  -16.9382 N   0  0  0  0  0  0  0  0  0  0  0  0
   -3.8033   38.9724  -15.8010 C   0  0  0  0  0  0  0  0  0  0  0  0
   -5.0916   38.6057  -15.8042 N   0  0  0  0  0  0  0  0  0  0  0  0
  -10.7042   34.7301  -17.9373 N   0  0  0  0  0  0  0  0  0  0  0  0
   -9.8153   35.0176  -16.9506 C   0  0  0  0  0  0  0  0  0  0  0  0
   -9.7878   34.2479  -15.8218 N   0  0  0  0  0  0  0  0  0  0  0  0
  -10.6409   33.1968  -15.6883 C   0  0  0  0  0  0  0  0  0  0  0  0
  -11.5226   32.9028  -16.6653 C   0  0  0  0  0  0  0  0  0  0  0  0
  -11.5465   33.6944  -17.8099 C   0  0  0  0  0  0  0  0  0  0  0  0
  -12.4082   33.5767  -18.9582 N   0  0  0  0  0  0  0  0  0  0  0  0
  -12.2324   31.8230  -16.2588 N   0  0  0  0  0  0  0  0  0  0  0  0
  -11.7777   31.4513  -15.0280 C   0  0  0  0  0  0  0  0  0  0  0  0
  -10.7918   32.3050  -14.6854 N   0  0  0  0  0  0  0  0  0  0  0  0
  1  3  1  1  0  0  0
  1  5  2  0  0  0  0
  1  9  1  0  0  0  0
  1 18  1  0  0  0  0
  2  4  1  6  0  0  0
  2  6  2  0  0  0  0
  2 10  1  0  0  0  0
  2 17  1  0  0  0  0
  7  9  1  0  0  0  0
  8 10  1  0  0  0  0
 11  7  1  6  0  0  0
 11 13  1  0  0  0  0
 11 15  1  0  0  0  0
 12  8  1  6  0  0  0
 12 14  1  0  0  0  0
 12 16  1  0  0  0  0
 13 23  1  0  0  0  0
 14 24  1  0  0  0  0
 15 17  1  1  0  0  0
 15 19  1  0  0  0  0
 16 18  1  1  0  0  0
 16 20  1  0  0  0  0
 19 21  1  1  0  0  0
 19 23  1  0  0  0  0
 20 22  1  1  0  0  0
 20 24  1  0  0  0  0
 23 34  1  6  0  0  0
 24 44  1  6  0  0  0
 25 26  2  0  0  0  0
 25 30  1  0  0  0  0
 26 27  1  0  0  0  0
 27 28  2  0  0  0  0
 28 29  1  0  0  0  0
 28 34  1  0  0  0  0
 29 30  2  0  0  0  0
 29 32  1  0  0  0  0
 30 31  1  0  0  0  0
 32 33  2  0  0  0  0
 33 34  1  0  0  0  0
 35 36  2  0  0  0  0
 35 40  1  0  0  0  0
 36 37  1  0  0  0  0
 37 38  2  0  0  0  0
 38 39  1  0  0  0  0
 38 44  1  0  0  0  0
 39 40  2  0  0  0  0
 39 42  1  0  0  0  0
 40 41  1  0  0  0  0
 42 43  2  0  0  0  0
 43 44  1  0  0  0  0
M  CHG  2   3  -1   4  -1
M  END
>  <CHROM.1>
105.41327557,67.18889677,-7.93638013,35.57148326,-14.80958229,-2.74714790
-0.66918776,-1.32392032

>  <Name>
ligand

>  <RI>
0

>  <Rbt.Current_Directory>
/home/itssahil/PROJECTS/Mol_Feturizer/New_Systems/rnas/4QLM

>  <Rbt.Executable>
rbdock ($Id: //depot/dev/client3/rdock/2013.1/src/exe/rbdock.cxx#4 $)

>  <Rbt.Library>
libRbt.so (2013.1, Build901 2013/11/27)

>  <Rbt.Parameter_File>
/export/apps/rDock/src/rDock_2013.1_src/data/scripts/dock_solv.prm

>  <Rbt.Receptor>
prm/pocket_docking_5.prm

>  <SCORE>
-14.625

>  <SCORE.INTER>
-13.2603

>  <SCORE.INTER.CONST>
1

>  <SCORE.INTER.POLAR>
0

>  <SCORE.INTER.ROT>
2

>  <SCORE.INTER.SOLV>
24.4361

>  <SCORE.INTER.VDW>
-21.9189

>  <SCORE.INTER.norm>
-0.301371

>  <SCORE.INTRA>
-1.36466

>  <SCORE.INTRA.DIHEDRAL>
0.00844951

>  <SCORE.INTRA.DIHEDRAL.0>
2.32994

>  <SCORE.INTRA.POLAR>
0

>  <SCORE.INTRA.POLAR.0>
0

>  <SCORE.INTRA.REPUL>
0

>  <SCORE.INTRA.REPUL.0>
0

>  <SCORE.INTRA.SOLV>
0.670075

>  <SCORE.INTRA.SOLV.lig_0>
-117.703

>  <SCORE.INTRA.VDW>
-1.70392

>  <SCORE.INTRA.VDW.0>
-1.59997

>  <SCORE.INTRA.norm>
-0.031015

>  <SCORE.RESTR>
0

>  <SCORE.RESTR.CAVITY>
0

>  <SCORE.RESTR.norm>
0

>  <SCORE.SYSTEM>
0

>  <SCORE.SYSTEM.CONST>
0

>  <SCORE.SYSTEM.DIHEDRAL>
0

>  <SCORE.SYSTEM.SOLV>
0

>  <SCORE.SYSTEM.norm>
0

>  <SCORE.heavy>
44

>  <SCORE.norm>
-0.332386

>  <RMSD>
3.781

$$$$
ligand
 OpenBabel11021811513D
libRbt.so/2013.1/901 2013/11/27
 44 50  0  0  0  0  0  0  0  0999 V2000
   -5.8993   33.7756  -13.0481 P   0  0  2  0  0  0  0  0  0  0  0  0
   -9.8560   37.4108  -13.6275 P   0  0  1  0  0  0  0  0  0  0  0  0
   -4.7806   33.8203  -12.0104 O   0  5  0  0  0  0  0  0  0  0  0  0
   -9.9755   37.6194  -15.1176 O   0  5  0  0  0  0  0  0  0  0  0  0
   -5.3602   32.9787  -14.2116 O   0  0  0  0  0  0  0  0  0  0  0  0
  -11.0995   38.0523  -12.9709 O   0  0  0  0  0  0  0  0  0  0  0  0
   -5.9558   36.2089  -12.3289 C   0  0  0  0  0  0  0  0  0  0  0  0
   -9.3787   35.4075  -12.0695 C   0  0  0  0  0  0  0  0  0  0  0  0
   -6.1967   35.2719  -13.3874 O   0  0  0  0  0  0  0  0  0  0  0  0
   -9.6287   35.7915  -13.4511 O   0  0  0  0  0  0  0  0  0  0  0  0
   -6.2400   37.6282  -12.8089 C   0  0  1  0  0  0  0  0  0  0  0  0
   -9.3239   33.8333  -12.0535 C   0  0  1  0  0  0  0  0  0  0  0  0
   -5.1770   38.0742  -13.4035 O   0  0  0  0  0  0  0  0  0  0  0  0
  -10.3833   33.4568  -12.6450 O   0  0  0  0  0  0  0  0  0  0  0  0
   -7.3638   37.7029  -13.8167 C   0  0  1  0  0  0  0  0  0  0  0  0
   -8.2138   33.3102  -12.9868 C   0  0  1  0  0  0  0  0  0  0  0  0
   -8.4706   38.1026  -13.1360 O   0  0  0  0  0  0  0  0  0  0  0  0
   -7.1257   32.9484  -12.2961 O   0  0  0  0  0  0  0  0  0  0  0  0
   -6.8973   38.8271  -14.8060 C   0  0  1  0  0  0  0  0  0  0  0  0
   -8.8064   32.1126  -13.7638 C   0  0  1  0  0  0  0  0  0  0  0  0
   -7.6071   40.0995  -14.5050 O   0  0  0  0  0  0  0  0  0  0  0  0
   -8.3186   30.8190  -13.1858 O   0  0  0  0  0  0  0  0  0  0  0  0
   -5.6196   38.9575  -14.6434 C   0  0  2  0  0  0  0  0  0  0  0  0
  -10.0810   32.2065  -13.5973 C   0  0  2  0  0  0  0  0  0  0  0  0
   -5.1244   36.4640  -19.3719 N   0  0  0  0  0  0  0  0  0  0  0  0
   -6.2564   36.5144  -18.6148 C   0  0  0  0  0  0  0  0  0  0  0  0
   -6.2803   37.1816  -17.4166 N   0  0  0  0  0  0  0  0  0  0  0  0
   -5.1426   37.8024  -16.9799 C   0  0  0  0  0  0  0  0  0  0  0  0
   -4.0196   37.7554  -17.7100 C   0  0  0  0  0  0  0  0  0  0  0  0
   -4.0066   37.0833  -18.9310 C   0  0  0  0  0  0  0  0  0  0  0  0
   -2.8968   36.9604  -19.7903 N   0  0  0  0  0  0  0  0  0  0  0  0
   -3.0676   38.4480  -17.0495 N   0  0  0  0  0  0  0  0  0  0  0  0
   -3.6176   38.9187  -15.8941 C   0  0  0  0  0  0  0  0  0  0  0  0
   -4.9009   38.5368  -15.8574 N   0  0  0  0  0  0  0  0  0  0  0  0
  -10.6206   34.8601  -18.0456 N   0  0  0  0  0  0  0  0  0  0  0  0
   -9.6984   35.0810  -17.0724 C   0  0  0  0  0  0  0  0  0  0  0  0
   -9.6951   34.2944  -15.9550 N   0  0  0  0  0  0  0  0  0  0  0  0
  -10.6054   33.2927  -15.8195 C   0  0  0  0  0  0  0  0  0  0  0  0
  -11.5205   33.0648  -16.7832 C   0  0  0  0  0  0  0  0  0  0  0  0
  -11.5193   33.8732  -17.9162 C   0  0  0  0  0  0  0  0  0  0  0  0
  -12.4073   33.8227  -19.0493 N   0  0  0  0  0  0  0  0  0  0  0  0
  -12.2844   32.0221  -16.3780 N   0  0  0  0  0  0  0  0  0  0  0  0
  -11.8296   31.6065  -15.1613 C   0  0  0  0  0  0  0  0  0  0  0  0
  -10.7895   32.3965  -14.8261 N   0  0  0  0  0  0  0  0  0  0  0  0
  1  3  1  1  0  0  0
  1  5  2  0  0  0  0
  1  9  1  0  0  0  0
  1 18  1  0  0  0  0
  2  4  1  6  0  0  0
  2  6  2  0  0  0  0
  2 10  1  0  0  0  0
  2 17  1  0  0  0  0
  7  9  1  0  0  0  0
  8 10  1  0  0  0  0
 11  7  1  6  0  0  0
 11 13  1  0  0  0  0
 11 15  1  0  0  0  0
 12  8  1  6  0  0  0
 12 14  1  0  0  0  0
 12 16  1  0  0  0  0
 13 23  1  0  0  0  0
 14 24  1  0  0  0  0
 15 17  1  1  0  0  0
 15 19  1  0  0  0  0
 16 18  1  1  0  0  0
 16 20  1  0  0  0  0
 19 21  1  1  0  0  0
 19 23  1  0  0  0  0
 20 22  1  1  0  0  0
 20 24  1  0  0  0  0
 23 34  1  6  0  0  0
 24 44  1  6  0  0  0
 25 26  2  0  0  0  0
 25 30  1  0  0  0  0
 26 27  1  0  0  0  0
 27 28  2  0  0  0  0
 28 29  1  0  0  0  0
 28 34  1  0  0  0  0
 29 30  2  0  0  0  0
 29 32  1  0  0  0  0
 30 31  1  0  0  0  0
 32 33  2  0  0  0  0
 33 34  1  0  0  0  0
 35 36  2  0  0  0  0
 35 40  1  0  0  0  0
 36 37  1  0  0  0  0
 37 38  2  0  0  0  0
 38 39  1  0  0  0  0
 38 44  1  0  0  0  0
 39 40  2  0  0  0  0
 39 42  1  0  0  0  0
 40 41  1  0  0  0  0
 42 43  2  0  0  0  0
 43 44  1  0  0  0  0
M  CHG  2   3  -1   4  -1
M  END
>  <CHROM.1>
102.27517933,68.85999628,-7.82303876,35.55913484,-14.90237501,-2.76133762
-0.64242066,-1.31938626

>  <Name>
ligand

>  <RI>
0

>  <Rbt.Current_Directory>
/home/itssahil/PROJECTS/Mol_Feturizer/New_Systems/rnas/4QLM

>  <Rbt.Executable>
rbdock ($Id: //depot/dev/client3/rdock/2013.1/src/exe/rbdock.cxx#4 $)

>  <Rbt.Library>
libRbt.so (2013.1, Build901 2013/11/27)

>  <Rbt.Parameter_File>
/export/apps/rDock/src/rDock_2013.1_src/data/scripts/dock_solv.prm

>  <Rbt.Receptor>
prm/pocket_docking_4.prm

>  <SCORE>
-14.4426

>  <SCORE.INTER>
-13.0314

>  <SCORE.INTER.CONST>
1

>  <SCORE.INTER.POLAR>
0

>  <SCORE.INTER.ROT>
2

>  <SCORE.INTER.SOLV>
24.666

>  <SCORE.INTER.VDW>
-21.843

>  <SCORE.INTER.norm>
-0.296169

>  <SCORE.INTRA>
-1.41111

>  <SCORE.INTRA.DIHEDRAL>
-0.00314534

>  <SCORE.INTRA.DIHEDRAL.0>
2.32994

>  <SCORE.INTRA.POLAR>
0

>  <SCORE.INTRA.POLAR.0>
0

>  <SCORE.INTRA.REPUL>
0

>  <SCORE.INTRA.REPUL.0>
0

>  <SCORE.INTRA.SOLV>
0.582749

>  <SCORE.INTRA.SOLV.lig_0>
-117.703

>  <SCORE.INTRA.VDW>
-1.70091

>  <SCORE.INTRA.VDW.0>
-1.59997

>  <SCORE.INTRA.norm>
-0.0320706

>  <SCORE.RESTR>
0

>  <SCORE.RESTR.CAVITY>
0

>  <SCORE.RESTR.norm>
0

>  <SCORE.SYSTEM>
0

>  <SCORE.SYSTEM.CONST>
0

>  <SCORE.SYSTEM.DIHEDRAL>
0

>  <SCORE.SYSTEM.SOLV>
0

>  <SCORE.SYSTEM.norm>
0

>  <SCORE.heavy>
44

>  <SCORE.norm>
-0.32824

>  <RMSD>
3.791

$$$$
ligand
 OpenBabel11021811513D
libRbt.so/2013.1/901 2013/11/27
 44 50  0  0  0  0  0  0  0  0999 V2000
   -5.8878   33.7733  -13.0943 P   0  0  2  0  0  0  0  0  0  0  0  0
   -9.8460   37.4123  -13.6383 P   0  0  1  0  0  0  0  0  0  0  0  0
   -4.7609   33.8160  -12.0653 O   0  5  0  0  0  0  0  0  0  0  0  0
   -9.9770   37.6227  -15.1271 O   0  5  0  0  0  0  0  0  0  0  0  0
   -5.3584   32.9773  -14.2629 O   0  0  0  0  0  0  0  0  0  0  0  0
  -11.0838   38.0540  -12.9712 O   0  0  0  0  0  0  0  0  0  0  0  0
   -5.9367   36.2058  -12.3718 C   0  0  0  0  0  0  0  0  0  0  0  0
   -9.3580   35.4068  -12.0865 C   0  0  0  0  0  0  0  0  0  0  0  0
   -6.1866   35.2703  -13.4295 O   0  0  0  0  0  0  0  0  0  0  0  0
   -9.6185   35.7926  -13.4656 O   0  0  0  0  0  0  0  0  0  0  0  0
   -6.2234   37.6259  -12.8479 C   0  0  1  0  0  0  0  0  0  0  0  0
   -9.3044   33.8325  -12.0727 C   0  0  1  0  0  0  0  0  0  0  0  0
   -5.1648   38.0718  -13.4503 O   0  0  0  0  0  0  0  0  0  0  0  0
  -10.3687   33.4576  -12.6563 O   0  0  0  0  0  0  0  0  0  0  0  0
   -7.3551   37.7027  -13.8467 C   0  0  1  0  0  0  0  0  0  0  0  0
   -8.2021   33.3096  -13.0153 C   0  0  1  0  0  0  0  0  0  0  0  0
   -8.4562   38.1024  -13.1568 O   0  0  0  0  0  0  0  0  0  0  0  0
   -7.1089   32.9462  -12.3336 O   0  0  0  0  0  0  0  0  0  0  0  0
   -6.8955   38.8277  -14.8383 C   0  0  1  0  0  0  0  0  0  0  0  0
   -8.8017   32.1134  -13.7891 C   0  0  1  0  0  0  0  0  0  0  0  0
   -7.6019   40.1002  -14.5303 O   0  0  0  0  0  0  0  0  0  0  0  0
   -8.3104   30.8188  -13.2164 O   0  0  0  0  0  0  0  0  0  0  0  0
   -5.6165   38.9569  -14.6857 C   0  0  2  0  0  0  0  0  0  0  0  0
  -10.0749   32.2081  -13.6125 C   0  0  2  0  0  0  0  0  0  0  0  0
   -5.1476   36.4355  -19.4020 N   0  0  0  0  0  0  0  0  0  0  0  0
   -6.2705   36.4761  -18.6308 C   0  0  0  0  0  0  0  0  0  0  0  0
   -6.2882   37.1517  -17.4372 N   0  0  0  0  0  0  0  0  0  0  0  0
   -5.1537   37.7911  -17.0197 C   0  0  0  0  0  0  0  0  0  0  0  0
   -4.0395   37.7541  -17.7638 C   0  0  0  0  0  0  0  0  0  0  0  0
   -4.0329   37.0732  -18.9800 C   0  0  0  0  0  0  0  0  0  0  0  0
   -2.9327   36.9590  -19.8527 N   0  0  0  0  0  0  0  0  0  0  0  0
   -3.0887   38.4644  -17.1208 N   0  0  0  0  0  0  0  0  0  0  0  0
   -3.6303   38.9361  -15.9617 C   0  0  0  0  0  0  0  0  0  0  0  0
   -4.9077   38.5371  -15.9057 N   0  0  0  0  0  0  0  0  0  0  0  0
  -10.6522   34.8726  -18.0495 N   0  0  0  0  0  0  0  0  0  0  0  0
   -9.7232   35.0925  -17.0826 C   0  0  0  0  0  0  0  0  0  0  0  0
   -9.7102   34.3030  -15.9673 N   0  0  0  0  0  0  0  0  0  0  0  0
  -10.6177   33.2993  -15.8277 C   0  0  0  0  0  0  0  0  0  0  0  0
  -11.5396   33.0724  -16.7852 C   0  0  0  0  0  0  0  0  0  0  0  0
  -11.5482   33.8838  -17.9160 C   0  0  0  0  0  0  0  0  0  0  0  0
  -12.4446   33.8347  -19.0426 N   0  0  0  0  0  0  0  0  0  0  0  0
  -12.2986   32.0272  -16.3771 N   0  0  0  0  0  0  0  0  0  0  0  0
  -11.8340   31.6092  -15.1649 C   0  0  0  0  0  0  0  0  0  0  0  0
  -10.7929   32.4001  -14.8354 N   0  0  0  0  0  0  0  0  0  0  0  0
  1  3  1  1  0  0  0
  1  5  2  0  0  0  0
  1  9  1  0  0  0  0
  1 18  1  0  0  0  0
  2  4  1  6  0  0  0
  2  6  2  0  0  0  0
  2 10  1  0  0  0  0
  2 17  1  0  0  0  0
  7  9  1  0  0  0  0
  8 10  1  0  0  0  0
 11  7  1  6  0  0  0
 11 13  1  0  0  0  0
 11 15  1  0  0  0  0
 12  8  1  6  0  0  0
 12 14  1  0  0  0  0
 12 16  1  0  0  0  0
 13 23  1  0  0  0  0
 14 24  1  0  0  0  0
 15 17  1  1  0  0  0
 15 19  1  0  0  0  0
 16 18  1  1  0  0  0
 16 20  1  0  0  0  0
 19 21  1  1  0  0  0
 19 23  1  0  0  0  0
 20 22  1  1  0  0  0
 20 24  1  0  0  0  0
 23 34  1  6  0  0  0
 24 44  1  6  0  0  0
 25 26  2  0  0  0  0
 25 30  1  0  0  0  0
 26 27  1  0  0  0  0
 27 28  2  0  0  0  0
 28 29  1  0  0  0  0
 28 34  1  0  0  0  0
 29 30  2  0  0  0  0
 29 32  1  0  0  0  0
 30 31  1  0  0  0  0
 32 33  2  0  0  0  0
 33 34  1  0  0  0  0
 35 36  2  0  0  0  0
 35 40  1  0  0  0  0
 36 37  1  0  0  0  0
 37 38  2  0  0  0  0
 38 39  1  0  0  0  0
 38 44  1  0  0  0  0
 39 40  2  0  0  0  0
 39 42  1  0  0  0  0
 40 41  1  0  0  0  0
 42 43  2  0  0  0  0
 43 44  1  0  0  0  0
M  CHG  2   3  -1   4  -1
M  END
>  <CHROM.1>
101.27426220,68.69066458,-7.82402155,35.55875880,-14.92968450,-2.75552138
-0.63978191,-1.31571708

>  <Name>
ligand

>  <RI>
0

>  <Rbt.Current_Directory>
/home/itssahil/PROJECTS/Mol_Feturizer/New_Systems/rnas/4QLM

>  <Rbt.Executable>
rbdock ($Id: //depot/dev/client3/rdock/2013.1/src/exe/rbdock.cxx#4 $)

>  <Rbt.Library>
libRbt.so (2013.1, Build901 2013/11/27)

>  <Rbt.Parameter_File>
/export/apps/rDock/src/rDock_2013.1_src/data/scripts/dock_solv.prm

>  <Rbt.Receptor>
prm/pocket_docking_4.prm

>  <SCORE>
-14.3961

>  <SCORE.INTER>
-12.9382

>  <SCORE.INTER.CONST>
1

>  <SCORE.INTER.POLAR>
0

>  <SCORE.INTER.ROT>
2

>  <SCORE.INTER.SOLV>
24.5905

>  <SCORE.INTER.VDW>
-21.7557

>  <SCORE.INTER.norm>
-0.294051

>  <SCORE.INTRA>
-1.45815

>  <SCORE.INTRA.DIHEDRAL>
-0.00678094

>  <SCORE.INTRA.DIHEDRAL.0>
2.32994

>  <SCORE.INTRA.POLAR>
0

>  <SCORE.INTRA.POLAR.0>
0

>  <SCORE.INTRA.REPUL>
0

>  <SCORE.INTRA.REPUL.0>
0

>  <SCORE.INTRA.SOLV>
0.591627

>  <SCORE.INTRA.SOLV.lig_0>
-117.703

>  <SCORE.INTRA.VDW>
-1.75057

>  <SCORE.INTRA.VDW.0>
-1.59997

>  <SCORE.INTRA.norm>
-0.0331397

>  <SCORE.RESTR>
0.000231766

>  <SCORE.RESTR.CAVITY>
0.000231766

>  <SCORE.RESTR.norm>
5.26742e-06

>  <SCORE.SYSTEM>
0

>  <SCORE.SYSTEM.CONST>
0

>  <SCORE.SYSTEM.DIHEDRAL>
0

>  <SCORE.SYSTEM.SOLV>
0

>  <SCORE.SYSTEM.norm>
0

>  <SCORE.heavy>
44

>  <SCORE.norm>
-0.327185

>  <RMSD>
3.792

$$$$
ligand
 OpenBabel11021811513D
libRbt.so/2013.1/901 2013/11/27
 44 50  0  0  0  0  0  0  0  0999 V2000
  -12.5707   33.3387  -16.3632 P   0  0  2  0  0  0  0  0  0  0  0  0
   -8.4404   34.0281  -12.9470 P   0  0  1  0  0  0  0  0  0  0  0  0
  -14.0465   33.2450  -15.9841 O   0  5  0  0  0  0  0  0  0  0  0  0
   -7.3728   33.0782  -13.4328 O   0  5  0  0  0  0  0  0  0  0  0  0
  -12.4237   32.5873  -17.6644 O   0  0  0  0  0  0  0  0  0  0  0  0
   -7.7781   34.9843  -11.9291 O   0  0  0  0  0  0  0  0  0  0  0  0
  -12.4371   32.8080  -13.8849 C   0  0  0  0  0  0  0  0  0  0  0  0
  -10.2171   35.5409  -14.0529 C   0  0  0  0  0  0  0  0  0  0  0  0
  -11.8034   32.6904  -15.1659 O   0  0  0  0  0  0  0  0  0  0  0  0
   -9.0808   34.6709  -14.3187 O   0  0  0  0  0  0  0  0  0  0  0  0
  -11.6089   32.0947  -12.8216 C   0  0  1  0  0  0  0  0  0  0  0  0
  -10.6182   36.1761  -15.4375 C   0  0  1  0  0  0  0  0  0  0  0  0
  -11.9330   30.8388  -12.8319 O   0  0  0  0  0  0  0  0  0  0  0  0
   -9.5395   36.6519  -15.9109 O   0  0  0  0  0  0  0  0  0  0  0  0
  -10.1214   32.1604  -13.0812 C   0  0  1  0  0  0  0  0  0  0  0  0
  -10.9812   35.0826  -16.4619 C   0  0  1  0  0  0  0  0  0  0  0  0
   -9.6302   33.1442  -12.2818 O   0  0  0  0  0  0  0  0  0  0  0  0
  -12.3075   34.9605  -16.5960 O   0  0  0  0  0  0  0  0  0  0  0  0
   -9.6018   30.7598  -12.6031 C   0  0  1  0  0  0  0  0  0  0  0  0
  -10.3184   35.4815  -17.8000 C   0  0  1  0  0  0  0  0  0  0  0  0
   -8.9761   30.8787  -11.2586 O   0  0  0  0  0  0  0  0  0  0  0  0
  -11.3323   36.0711  -18.7326 O   0  0  0  0  0  0  0  0  0  0  0  0
  -10.6301   29.9743  -12.5698 C   0  0  2  0  0  0  0  0  0  0  0  0
   -9.4482   36.3786  -17.4853 C   0  0  2  0  0  0  0  0  0  0  0  0
  -10.9005   27.9552  -17.5368 N   0  0  0  0  0  0  0  0  0  0  0  0
  -11.1704   29.2445  -17.1873 C   0  0  0  0  0  0  0  0  0  0  0  0
  -11.0702   29.6631  -15.8849 N   0  0  0  0  0  0  0  0  0  0  0  0
  -10.6946   28.7635  -14.9258 C   0  0  0  0  0  0  0  0  0  0  0  0
  -10.4328   27.4904  -15.2531 C   0  0  0  0  0  0  0  0  0  0  0  0
  -10.5279   27.0756  -16.5803 C   0  0  0  0  0  0  0  0  0  0  0  0
  -10.2806   25.7721  -17.0544 N   0  0  0  0  0  0  0  0  0  0  0  0
  -10.0859   26.8360  -14.1245 N   0  0  0  0  0  0  0  0  0  0  0  0
  -10.1442   27.7235  -13.0910 C   0  0  0  0  0  0  0  0  0  0  0  0
  -10.5022   28.9159  -13.5850 N   0  0  0  0  0  0  0  0  0  0  0  0
   -4.3799   37.5724  -17.5727 N   0  0  0  0  0  0  0  0  0  0  0  0
   -5.3968   38.3684  -17.1501 C   0  0  0  0  0  0  0  0  0  0  0  0
   -6.6814   37.9050  -17.1989 N   0  0  0  0  0  0  0  0  0  0  0  0
   -6.9409   36.6526  -17.6623 C   0  0  0  0  0  0  0  0  0  0  0  0
   -5.9364   35.8555  -18.0791 C   0  0  0  0  0  0  0  0  0  0  0  0
   -4.6314   36.3369  -18.0296 C   0  0  0  0  0  0  0  0  0  0  0  0
   -3.4195   35.6731  -18.4366 N   0  0  0  0  0  0  0  0  0  0  0  0
   -6.4882   34.6860  -18.4825 N   0  0  0  0  0  0  0  0  0  0  0  0
   -7.8380   34.7669  -18.3060 C   0  0  0  0  0  0  0  0  0  0  0  0
   -8.1076   35.9855  -17.7956 N   0  0  0  0  0  0  0  0  0  0  0  0
  1  3  1  1  0  0  0
  1  5  2  0  0  0  0
  1  9  1  0  0  0  0
  1 18  1  0  0  0  0
  2  4  1  6  0  0  0
  2  6  2  0  0  0  0
  2 10  1  0  0  0  0
  2 17  1  0  0  0  0
  7  9  1  0  0  0  0
  8 10  1  0  0  0  0
 11  7  1  6  0  0  0
 11 13  1  0  0  0  0
 11 15  1  0  0  0  0
 12  8  1  1  0  0  0
 12 14  1  0  0  0  0
 12 16  1  0  0  0  0
 13 23  1  0  0  0  0
 14 24  1  0  0  0  0
 15 17  1  1  0  0  0
 15 19  1  0  0  0  0
 16 18  1  6  0  0  0
 16 20  1  0  0  0  0
 19 21  1  1  0  0  0
 19 23  1  0  0  0  0
 20 22  1  6  0  0  0
 20 24  1  0  0  0  0
 23 34  1  6  0  0  0
 24 44  1  1  0  0  0
 25 26  2  0  0  0  0
 25 30  1  0  0  0  0
 26 27  1  0  0  0  0
 27 28  2  0  0  0  0
 28 29  1  0  0  0  0
 28 34  1  0  0  0  0
 29 30  2  0  0  0  0
 29 32  1  0  0  0  0
 30 31  1  0  0  0  0
 32 33  2  0  0  0  0
 33 34  1  0  0  0  0
 35 36  2  0  0  0  0
 35 40  1  0  0  0  0
 36 37  1  0  0  0  0
 37 38  2  0  0  0  0
 38 39  1  0  0  0  0
 38 44  1  0  0  0  0
 39 40  2  0  0  0  0
 39 42  1  0  0  0  0
 40 41  1  0  0  0  0
 42 43  2  0  0  0  0
 43 44  1  0  0  0  0
M  CHG  2   3  -1   4  -1
M  END
>  <CHROM.1>
39.87568358,-62.10917405,-9.63260645,33.05303363,-15.47599206,2.13512955
0.60552041,2.45175243

>  <Name>
ligand

>  <RI>
0

>  <Rbt.Current_Directory>
/home/itssahil/PROJECTS/Mol_Feturizer/New_Systems/rnas/4QLM

>  <Rbt.Executable>
rbdock ($Id: //depot/dev/client3/rdock/2013.1/src/exe/rbdock.cxx#4 $)

>  <Rbt.Library>
libRbt.so (2013.1, Build901 2013/11/27)

>  <Rbt.Parameter_File>
/export/apps/rDock/src/rDock_2013.1_src/data/scripts/dock_solv.prm

>  <Rbt.Receptor>
prm/pocket_docking_5.prm

>  <SCORE>
-17.7604

>  <SCORE.INTER>
-18.7713

>  <SCORE.INTER.CONST>
1

>  <SCORE.INTER.POLAR>
0

>  <SCORE.INTER.ROT>
2

>  <SCORE.INTER.SOLV>
30.9085

>  <SCORE.INTER.VDW>
-27.7503

>  <SCORE.INTER.norm>
-0.42662

>  <SCORE.INTRA>
1.00068

>  <SCORE.INTRA.DIHEDRAL>
0.154874

>  <SCORE.INTRA.DIHEDRAL.0>
2.32994

>  <SCORE.INTRA.POLAR>
0

>  <SCORE.INTRA.POLAR.0>
0

>  <SCORE.INTRA.REPUL>
0

>  <SCORE.INTRA.REPUL.0>
0

>  <SCORE.INTRA.SOLV>
0.413728

>  <SCORE.INTRA.SOLV.lig_0>
-117.703

>  <SCORE.INTRA.VDW>
0.716382

>  <SCORE.INTRA.VDW.0>
-1.59997

>  <SCORE.INTRA.norm>
0.0227428

>  <SCORE.RESTR>
0.0101592

>  <SCORE.RESTR.CAVITY>
0.0101592

>  <SCORE.RESTR.norm>
0.000230891

>  <SCORE.SYSTEM>
0

>  <SCORE.SYSTEM.CONST>
0

>  <SCORE.SYSTEM.DIHEDRAL>
0

>  <SCORE.SYSTEM.SOLV>
0

>  <SCORE.SYSTEM.norm>
0

>  <SCORE.heavy>
44

>  <SCORE.norm>
-0.403646

>  <RMSD>
3.796

$$$$
ligand
 OpenBabel11021811513D
libRbt.so/2013.1/901 2013/11/27
 44 50  0  0  0  0  0  0  0  0999 V2000
   -6.0402   33.8817  -12.8297 P   0  0  2  0  0  0  0  0  0  0  0  0
  -10.1293   37.3311  -13.5953 P   0  0  1  0  0  0  0  0  0  0  0  0
   -4.9453   34.0037  -11.7729 O   0  5  0  0  0  0  0  0  0  0  0  0
  -10.2272   37.4899  -15.0930 O   0  5  0  0  0  0  0  0  0  0  0  0
   -5.4458   33.0732  -13.9578 O   0  0  0  0  0  0  0  0  0  0  0  0
  -11.4109   37.9401  -12.9823 O   0  0  0  0  0  0  0  0  0  0  0  0
   -6.2103   36.3310  -12.1869 C   0  0  0  0  0  0  0  0  0  0  0  0
   -9.6022   35.3969  -11.9676 C   0  0  0  0  0  0  0  0  0  0  0  0
   -6.3915   35.3536  -13.2205 O   0  0  0  0  0  0  0  0  0  0  0  0
   -9.8398   35.7287  -13.3648 O   0  0  0  0  0  0  0  0  0  0  0  0
   -6.5423   37.7223  -12.7156 C   0  0  1  0  0  0  0  0  0  0  0  0
   -9.4836   33.8274  -11.9021 C   0  0  1  0  0  0  0  0  0  0  0  0
   -5.4867   38.1939  -13.3035 O   0  0  0  0  0  0  0  0  0  0  0  0
  -10.5147   33.3900  -12.5017 O   0  0  0  0  0  0  0  0  0  0  0  0
   -7.6478   37.7203  -13.7463 C   0  0  1  0  0  0  0  0  0  0  0  0
   -8.3346   33.3230  -12.7978 C   0  0  1  0  0  0  0  0  0  0  0  0
   -8.7835   38.0941  -13.0991 O   0  0  0  0  0  0  0  0  0  0  0  0
   -7.2467   33.0274  -12.0759 O   0  0  0  0  0  0  0  0  0  0  0  0
   -7.2076   38.8326  -14.7607 C   0  0  1  0  0  0  0  0  0  0  0  0
   -8.8621   32.0792  -13.5487 C   0  0  1  0  0  0  0  0  0  0  0  0
   -7.9747   40.0830  -14.5124 O   0  0  0  0  0  0  0  0  0  0  0  0
   -8.3338   30.8248  -12.9221 O   0  0  0  0  0  0  0  0  0  0  0  0
   -5.9399   39.0206  -14.5781 C   0  0  2  0  0  0  0  0  0  0  0  0
  -10.1426   32.1252  -13.4092 C   0  0  2  0  0  0  0  0  0  0  0  0
   -5.2999   36.5491  -19.3008 N   0  0  0  0  0  0  0  0  0  0  0  0
   -6.4608   36.6169  -18.5902 C   0  0  0  0  0  0  0  0  0  0  0  0
   -6.5208   37.2765  -17.3891 N   0  0  0  0  0  0  0  0  0  0  0  0
   -5.3902   37.8718  -16.9017 C   0  0  0  0  0  0  0  0  0  0  0  0
   -4.2393   37.8074  -17.5856 C   0  0  0  0  0  0  0  0  0  0  0  0
   -4.1893   37.1433  -18.8100 C   0  0  0  0  0  0  0  0  0  0  0  0
   -3.0479   37.0040  -19.6241 N   0  0  0  0  0  0  0  0  0  0  0  0
   -3.3018   38.4766  -16.8817 N   0  0  0  0  0  0  0  0  0  0  0  0
   -3.8894   38.9504  -15.7462 C   0  0  0  0  0  0  0  0  0  0  0  0
   -5.1804   38.5938  -15.7648 N   0  0  0  0  0  0  0  0  0  0  0  0
  -10.8406   34.7435  -17.8564 N   0  0  0  0  0  0  0  0  0  0  0  0
   -9.9744   35.0533  -16.8564 C   0  0  0  0  0  0  0  0  0  0  0  0
   -9.9176   34.2622  -15.7436 N   0  0  0  0  0  0  0  0  0  0  0  0
  -10.7189   33.1680  -15.6393 C   0  0  0  0  0  0  0  0  0  0  0  0
  -11.5777   32.8519  -16.6296 C   0  0  0  0  0  0  0  0  0  0  0  0
  -11.6318   33.6653  -17.7578 C   0  0  0  0  0  0  0  0  0  0  0  0
  -12.4780   33.5298  -18.9157 N   0  0  0  0  0  0  0  0  0  0  0  0
  -12.2365   31.7301  -16.2518 N   0  0  0  0  0  0  0  0  0  0  0  0
  -11.7734   31.3553  -15.0251 C   0  0  0  0  0  0  0  0  0  0  0  0
  -10.8334   32.2489  -14.6564 N   0  0  0  0  0  0  0  0  0  0  0  0
  1  3  1  1  0  0  0
  1  5  2  0  0  0  0
  1  9  1  0  0  0  0
  1 18  1  0  0  0  0
  2  4  1  6  0  0  0
  2  6  2  0  0  0  0
  2 10  1  0  0  0  0
  2 17  1  0  0  0  0
  7  9  1  0  0  0  0
  8 10  1  0  0  0  0
 11  7  1  6  0  0  0
 11 13  1  0  0  0  0
 11 15  1  0  0  0  0
 12  8  1  6  0  0  0
 12 14  1  0  0  0  0
 12 16  1  0  0  0  0
 13 23  1  0  0  0  0
 14 24  1  0  0  0  0
 15 17  1  1  0  0  0
 15 19  1  0  0  0  0
 16 18  1  1  0  0  0
 16 20  1  0  0  0  0
 19 21  1  1  0  0  0
 19 23  1  0  0  0  0
 20 22  1  1  0  0  0
 20 24  1  0  0  0  0
 23 34  1  6  0  0  0
 24 44  1  6  0  0  0
 25 26  2  0  0  0  0
 25 30  1  0  0  0  0
 26 27  1  0  0  0  0
 27 28  2  0  0  0  0
 28 29  1  0  0  0  0
 28 34  1  0  0  0  0
 29 30  2  0  0  0  0
 29 32  1  0  0  0  0
 30 31  1  0  0  0  0
 32 33  2  0  0  0  0
 33 34  1  0  0  0  0
 35 36  2  0  0  0  0
 35 40  1  0  0  0  0
 36 37  1  0  0  0  0
 37 38  2  0  0  0  0
 38 39  1  0  0  0  0
 38 44  1  0  0  0  0
 39 40  2  0  0  0  0
 39 42  1  0  0  0  0
 40 41  1  0  0  0  0
 42 43  2  0  0  0  0
 43 44  1  0  0  0  0
M  CHG  2   3  -1   4  -1
M  END
>  <CHROM.1>
106.54313871,64.49132187,-8.01184218,35.54657700,-14.77278769,-2.73007026
-0.66634387,-1.29821126

>  <Name>
ligand

>  <RI>
0

>  <Rbt.Current_Directory>
/home/itssahil/PROJECTS/Mol_Feturizer/New_Systems/rnas/4QLM

>  <Rbt.Executable>
rbdock ($Id: //depot/dev/client3/rdock/2013.1/src/exe/rbdock.cxx#4 $)

>  <Rbt.Library>
libRbt.so (2013.1, Build901 2013/11/27)

>  <Rbt.Parameter_File>
/export/apps/rDock/src/rDock_2013.1_src/data/scripts/dock_solv.prm

>  <Rbt.Receptor>
prm/pocket_docking_5.prm

>  <SCORE>
-14.648

>  <SCORE.INTER>
-13.337

>  <SCORE.INTER.CONST>
1

>  <SCORE.INTER.POLAR>
0

>  <SCORE.INTER.ROT>
2

>  <SCORE.INTER.SOLV>
23.9331

>  <SCORE.INTER.VDW>
-21.8024

>  <SCORE.INTER.norm>
-0.303114

>  <SCORE.INTRA>
-1.31098

>  <SCORE.INTRA.DIHEDRAL>
0.0119226

>  <SCORE.INTRA.DIHEDRAL.0>
2.32994

>  <SCORE.INTRA.POLAR>
0

>  <SCORE.INTRA.POLAR.0>
0

>  <SCORE.INTRA.REPUL>
0

>  <SCORE.INTRA.REPUL.0>
0

>  <SCORE.INTRA.SOLV>
0.803325

>  <SCORE.INTRA.SOLV.lig_0>
-117.703

>  <SCORE.INTRA.VDW>
-1.7186

>  <SCORE.INTRA.VDW.0>
-1.59997

>  <SCORE.INTRA.norm>
-0.029795

>  <SCORE.RESTR>
0

>  <SCORE.RESTR.CAVITY>
0

>  <SCORE.RESTR.norm>
0

>  <SCORE.SYSTEM>
0

>  <SCORE.SYSTEM.CONST>
0

>  <SCORE.SYSTEM.DIHEDRAL>
0

>  <SCORE.SYSTEM.SOLV>
0

>  <SCORE.SYSTEM.norm>
0

>  <SCORE.heavy>
44

>  <SCORE.norm>
-0.332909

>  <RMSD>
3.796

$$$$
ligand
 OpenBabel11021811513D
libRbt.so/2013.1/901 2013/11/27
 44 50  0  0  0  0  0  0  0  0999 V2000
   -6.0962   33.8895  -12.7927 P   0  0  2  0  0  0  0  0  0  0  0  0
  -10.1854   37.3348  -13.5755 P   0  0  1  0  0  0  0  0  0  0  0  0
   -5.0024   34.0158  -11.7352 O   0  5  0  0  0  0  0  0  0  0  0  0
  -10.2818   37.4880  -15.0740 O   0  5  0  0  0  0  0  0  0  0  0  0
   -5.5003   33.0770  -13.9171 O   0  0  0  0  0  0  0  0  0  0  0  0
  -11.4679   37.9457  -12.9662 O   0  0  0  0  0  0  0  0  0  0  0  0
   -6.2677   36.3411  -12.1593 C   0  0  0  0  0  0  0  0  0  0  0  0
   -9.6595   35.4069  -11.9401 C   0  0  0  0  0  0  0  0  0  0  0  0
   -6.4474   35.3598  -13.1894 O   0  0  0  0  0  0  0  0  0  0  0  0
   -9.8957   35.7333  -13.3388 O   0  0  0  0  0  0  0  0  0  0  0  0
   -6.5995   37.7303  -12.6935 C   0  0  1  0  0  0  0  0  0  0  0  0
   -9.5405   33.8377  -11.8686 C   0  0  1  0  0  0  0  0  0  0  0  0
   -5.5434   38.2001  -13.2820 O   0  0  0  0  0  0  0  0  0  0  0  0
  -10.5708   33.3977  -12.4677 O   0  0  0  0  0  0  0  0  0  0  0  0
   -7.7039   37.7241  -13.7253 C   0  0  1  0  0  0  0  0  0  0  0  0
   -8.3904   33.3302  -12.7612 C   0  0  1  0  0  0  0  0  0  0  0  0
   -8.8404   38.1000  -13.0808 O   0  0  0  0  0  0  0  0  0  0  0  0
   -7.3032   33.0377  -12.0370 O   0  0  0  0  0  0  0  0  0  0  0  0
   -7.2630   38.8329  -14.7434 C   0  0  1  0  0  0  0  0  0  0  0  0
   -8.9168   32.0835  -13.5080 C   0  0  1  0  0  0  0  0  0  0  0  0
   -8.0306   40.0839  -14.5007 O   0  0  0  0  0  0  0  0  0  0  0  0
   -8.3887   30.8316  -12.8761 O   0  0  0  0  0  0  0  0  0  0  0  0
   -5.9955   39.0218  -14.5602 C   0  0  2  0  0  0  0  0  0  0  0  0
  -10.1974   32.1297  -13.3701 C   0  0  2  0  0  0  0  0  0  0  0  0
   -5.3371   36.4953  -19.2511 N   0  0  0  0  0  0  0  0  0  0  0  0
   -6.4956   36.5543  -18.5360 C   0  0  0  0  0  0  0  0  0  0  0  0
   -6.5608   37.2295  -17.3438 N   0  0  0  0  0  0  0  0  0  0  0  0
   -5.4378   37.8497  -16.8702 C   0  0  0  0  0  0  0  0  0  0  0  0
   -4.2892   37.7944  -17.5586 C   0  0  0  0  0  0  0  0  0  0  0  0
   -4.2340   37.1142  -18.7739 C   0  0  0  0  0  0  0  0  0  0  0  0
   -3.0942   36.9820  -19.5915 N   0  0  0  0  0  0  0  0  0  0  0  0
   -3.3594   38.4884  -16.8686 N   0  0  0  0  0  0  0  0  0  0  0  0
   -3.9495   38.9686  -15.7370 C   0  0  0  0  0  0  0  0  0  0  0  0
   -5.2346   38.5909  -15.7444 N   0  0  0  0  0  0  0  0  0  0  0  0
  -10.7508   34.6071  -17.9172 N   0  0  0  0  0  0  0  0  0  0  0  0
   -9.8593   34.8988  -16.9341 C   0  0  0  0  0  0  0  0  0  0  0  0
   -9.8474   34.1512  -15.7903 N   0  0  0  0  0  0  0  0  0  0  0  0
  -10.7186   33.1176  -15.6383 C   0  0  0  0  0  0  0  0  0  0  0  0
  -11.6030   32.8194  -16.6115 C   0  0  0  0  0  0  0  0  0  0  0  0
  -11.6109   33.5885  -17.7716 C   0  0  0  0  0  0  0  0  0  0  0  0
  -12.4719   33.4629  -18.9196 N   0  0  0  0  0  0  0  0  0  0  0  0
  -12.3319   31.7600  -16.1858 N   0  0  0  0  0  0  0  0  0  0  0  0
  -11.8863   31.4050  -14.9467 C   0  0  0  0  0  0  0  0  0  0  0  0
  -10.8869   32.2484  -14.6185 N   0  0  0  0  0  0  0  0  0  0  0  0
  1  3  1  1  0  0  0
  1  5  2  0  0  0  0
  1  9  1  0  0  0  0
  1 18  1  0  0  0  0
  2  4  1  6  0  0  0
  2  6  2  0  0  0  0
  2 10  1  0  0  0  0
  2 17  1  0  0  0  0
  7  9  1  0  0  0  0
  8 10  1  0  0  0  0
 11  7  1  6  0  0  0
 11 13  1  0  0  0  0
 11 15  1  0  0  0  0
 12  8  1  6  0  0  0
 12 14  1  0  0  0  0
 12 16  1  0  0  0  0
 13 23  1  0  0  0  0
 14 24  1  0  0  0  0
 15 17  1  1  0  0  0
 15 19  1  0  0  0  0
 16 18  1  1  0  0  0
 16 20  1  0  0  0  0
 19 21  1  1  0  0  0
 19 23  1  0  0  0  0
 20 22  1  1  0  0  0
 20 24  1  0  0  0  0
 23 34  1  6  0  0  0
 24 44  1  6  0  0  0
 25 26  2  0  0  0  0
 25 30  1  0  0  0  0
 26 27  1  0  0  0  0
 27 28  2  0  0  0  0
 28 29  1  0  0  0  0
 28 34  1  0  0  0  0
 29 30  2  0  0  0  0
 29 32  1  0  0  0  0
 30 31  1  0  0  0  0
 32 33  2  0  0  0  0
 33 34  1  0  0  0  0
 35 36  2  0  0  0  0
 35 40  1  0  0  0  0
 36 37  1  0  0  0  0
 37 38  2  0  0  0  0
 38 39  1  0  0  0  0
 38 44  1  0  0  0  0
 39 40  2  0  0  0  0
 39 42  1  0  0  0  0
 40 41  1  0  0  0  0
 42 43  2  0  0  0  0
 43 44  1  0  0  0  0
M  CHG  2   3  -1   4  -1
M  END
>  <CHROM.1>
105.41108117,68.86251130,-8.05449938,35.53448052,-14.74946044,-2.76001917
-0.68509661,-1.34687584

>  <Name>
ligand

>  <RI>
0

>  <Rbt.Current_Directory>
/home/itssahil/PROJECTS/Mol_Feturizer/New_Systems/rnas/4QLM

>  <Rbt.Executable>
rbdock ($Id: //depot/dev/client3/rdock/2013.1/src/exe/rbdock.cxx#4 $)

>  <Rbt.Library>
libRbt.so (2013.1, Build901 2013/11/27)

>  <Rbt.Parameter_File>
/export/apps/rDock/src/rDock_2013.1_src/data/scripts/dock_solv.prm

>  <Rbt.Receptor>
prm/pocket_docking_5.prm

>  <SCORE>
-14.63

>  <SCORE.INTER>
-13.2606

>  <SCORE.INTER.CONST>
1

>  <SCORE.INTER.POLAR>
0

>  <SCORE.INTER.ROT>
2

>  <SCORE.INTER.SOLV>
24.0469

>  <SCORE.INTER.VDW>
-21.7894

>  <SCORE.INTER.norm>
-0.301378

>  <SCORE.INTRA>
-1.36938

>  <SCORE.INTRA.DIHEDRAL>
0.00931271

>  <SCORE.INTRA.DIHEDRAL.0>
2.32994

>  <SCORE.INTRA.POLAR>
0

>  <SCORE.INTRA.POLAR.0>
0

>  <SCORE.INTRA.REPUL>
0

>  <SCORE.INTRA.REPUL.0>
0

>  <SCORE.INTRA.SOLV>
0.582876

>  <SCORE.INTRA.SOLV.lig_0>
-117.703

>  <SCORE.INTRA.VDW>
-1.66548

>  <SCORE.INTRA.VDW.0>
-1.59997

>  <SCORE.INTRA.norm>
-0.0311224

>  <SCORE.RESTR>
0

>  <SCORE.RESTR.CAVITY>
0

>  <SCORE.RESTR.norm>
0

>  <SCORE.SYSTEM>
0

>  <SCORE.SYSTEM.CONST>
0

>  <SCORE.SYSTEM.DIHEDRAL>
0

>  <SCORE.SYSTEM.SOLV>
0

>  <SCORE.SYSTEM.norm>
0

>  <SCORE.heavy>
44

>  <SCORE.norm>
-0.3325

>  <RMSD>
3.798

$$$$
ligand
 OpenBabel11021811513D
libRbt.so/2013.1/901 2013/11/27
 44 50  0  0  0  0  0  0  0  0999 V2000
   -6.0675   33.8916  -12.8056 P   0  0  2  0  0  0  0  0  0  0  0  0
  -10.1682   37.3281  -13.5678 P   0  0  1  0  0  0  0  0  0  0  0  0
   -4.9758   34.0137  -11.7455 O   0  5  0  0  0  0  0  0  0  0  0  0
  -10.2629   37.4925  -15.0652 O   0  5  0  0  0  0  0  0  0  0  0  0
   -5.4670   33.0901  -13.9354 O   0  0  0  0  0  0  0  0  0  0  0  0
  -11.4537   37.9296  -12.9557 O   0  0  0  0  0  0  0  0  0  0  0  0
   -6.2489   36.3376  -12.1534 C   0  0  0  0  0  0  0  0  0  0  0  0
   -9.6376   35.3894  -11.9466 C   0  0  0  0  0  0  0  0  0  0  0  0
   -6.4235   35.3637  -13.1914 O   0  0  0  0  0  0  0  0  0  0  0  0
   -9.8729   35.7258  -13.3431 O   0  0  0  0  0  0  0  0  0  0  0  0
   -6.5850   37.7297  -12.6773 C   0  0  1  0  0  0  0  0  0  0  0  0
   -9.5130   33.8202  -11.8871 C   0  0  1  0  0  0  0  0  0  0  0  0
   -5.5297   38.2078  -13.2606 O   0  0  0  0  0  0  0  0  0  0  0  0
  -10.5408   33.3811  -12.4911 O   0  0  0  0  0  0  0  0  0  0  0  0
   -7.6878   37.7275  -13.7109 C   0  0  1  0  0  0  0  0  0  0  0  0
   -8.3597   33.3238  -12.7819 C   0  0  1  0  0  0  0  0  0  0  0  0
   -8.8266   38.0943  -13.0652 O   0  0  0  0  0  0  0  0  0  0  0  0
   -7.2726   33.0296  -12.0584 O   0  0  0  0  0  0  0  0  0  0  0  0
   -7.2494   38.8457  -14.7197 C   0  0  1  0  0  0  0  0  0  0  0  0
   -8.8805   32.0810  -13.5391 C   0  0  1  0  0  0  0  0  0  0  0  0
   -8.0220   40.0921  -14.4684 O   0  0  0  0  0  0  0  0  0  0  0  0
   -8.3488   30.8262  -12.9162 O   0  0  0  0  0  0  0  0  0  0  0  0
   -5.9830   39.0379  -14.5331 C   0  0  2  0  0  0  0  0  0  0  0  0
  -10.1614   32.1214  -13.4028 C   0  0  2  0  0  0  0  0  0  0  0  0
   -5.3312   36.6196  -19.2816 N   0  0  0  0  0  0  0  0  0  0  0  0
   -6.4966   36.6893  -18.5786 C   0  0  0  0  0  0  0  0  0  0  0  0
   -6.5593   37.3344  -17.3698 N   0  0  0  0  0  0  0  0  0  0  0  0
   -5.4268   37.9130  -16.8668 C   0  0  0  0  0  0  0  0  0  0  0  0
   -4.2716   37.8465  -17.5432 C   0  0  0  0  0  0  0  0  0  0  0  0
   -4.2187   37.1972  -18.7754 C   0  0  0  0  0  0  0  0  0  0  0  0
   -3.0727   37.0575  -19.5829 N   0  0  0  0  0  0  0  0  0  0  0  0
   -3.3331   38.4981  -16.8242 N   0  0  0  0  0  0  0  0  0  0  0  0
   -3.9247   38.9632  -15.6871 C   0  0  0  0  0  0  0  0  0  0  0  0
   -5.2187   38.6189  -15.7195 N   0  0  0  0  0  0  0  0  0  0  0  0
  -10.8036   34.7097  -17.8759 N   0  0  0  0  0  0  0  0  0  0  0  0
   -9.9309   35.0108  -16.8789 C   0  0  0  0  0  0  0  0  0  0  0  0
   -9.8910   34.2298  -15.7583 N   0  0  0  0  0  0  0  0  0  0  0  0
  -10.7155   33.1540  -15.6432 C   0  0  0  0  0  0  0  0  0  0  0  0
  -11.5809   32.8465  -16.6305 C   0  0  0  0  0  0  0  0  0  0  0  0
  -11.6177   33.6496  -17.7666 C   0  0  0  0  0  0  0  0  0  0  0  0
  -12.4666   33.5208  -18.9233 N   0  0  0  0  0  0  0  0  0  0  0  0
  -12.2635   31.7429  -16.2416 N   0  0  0  0  0  0  0  0  0  0  0  0
  -11.8085   31.3705  -15.0111 C   0  0  0  0  0  0  0  0  0  0  0  0
  -10.8495   32.2474  -14.6512 N   0  0  0  0  0  0  0  0  0  0  0  0
  1  3  1  1  0  0  0
  1  5  2  0  0  0  0
  1  9  1  0  0  0  0
  1 18  1  0  0  0  0
  2  4  1  6  0  0  0
  2  6  2  0  0  0  0
  2 10  1  0  0  0  0
  2 17  1  0  0  0  0
  7  9  1  0  0  0  0
  8 10  1  0  0  0  0
 11  7  1  6  0  0  0
 11 13  1  0  0  0  0
 11 15  1  0  0  0  0
 12  8  1  6  0  0  0
 12 14  1  0  0  0  0
 12 16  1  0  0  0  0
 13 23  1  0  0  0  0
 14 24  1  0  0  0  0
 15 17  1  1  0  0  0
 15 19  1  0  0  0  0
 16 18  1  1  0  0  0
 16 20  1  0  0  0  0
 19 21  1  1  0  0  0
 19 23  1  0  0  0  0
 20 22  1  1  0  0  0
 20 24  1  0  0  0  0
 23 34  1  6  0  0  0
 24 44  1  6  0  0  0
 25 26  2  0  0  0  0
 25 30  1  0  0  0  0
 26 27  1  0  0  0  0
 27 28  2  0  0  0  0
 28 29  1  0  0  0  0
 28 34  1  0  0  0  0
 29 30  2  0  0  0  0
 29 32  1  0  0  0  0
 30 31  1  0  0  0  0
 32 33  2  0  0  0  0
 33 34  1  0  0  0  0
 35 36  2  0  0  0  0
 35 40  1  0  0  0  0
 36 37  1  0  0  0  0
 37 38  2  0  0  0  0
 38 39  1  0  0  0  0
 38 44  1  0  0  0  0
 39 40  2  0  0  0  0
 39 42  1  0  0  0  0
 40 41  1  0  0  0  0
 42 43  2  0  0  0  0
 43 44  1  0  0  0  0
M  CHG  2   3  -1   4  -1
M  END
>  <CHROM.1>
107.48014709,66.15429469,-8.03722541,35.55520646,-14.75093566,-2.73626874
-0.67675129,-1.30578212

>  <Name>
ligand

>  <RI>
0

>  <Rbt.Current_Directory>
/home/itssahil/PROJECTS/Mol_Feturizer/New_Systems/rnas/4QLM

>  <Rbt.Executable>
rbdock ($Id: //depot/dev/client3/rdock/2013.1/src/exe/rbdock.cxx#4 $)

>  <Rbt.Library>
libRbt.so (2013.1, Build901 2013/11/27)

>  <Rbt.Parameter_File>
/export/apps/rDock/src/rDock_2013.1_src/data/scripts/dock_solv.prm

>  <Rbt.Receptor>
prm/pocket_docking_5.prm

>  <SCORE>
-14.6157

>  <SCORE.INTER>
-13.3059

>  <SCORE.INTER.CONST>
1

>  <SCORE.INTER.POLAR>
0

>  <SCORE.INTER.ROT>
2

>  <SCORE.INTER.SOLV>
23.8958

>  <SCORE.INTER.VDW>
-21.7692

>  <SCORE.INTER.norm>
-0.302407

>  <SCORE.INTRA>
-1.30981

>  <SCORE.INTRA.DIHEDRAL>
0.0170922

>  <SCORE.INTRA.DIHEDRAL.0>
2.32994

>  <SCORE.INTRA.POLAR>
0

>  <SCORE.INTRA.POLAR.0>
0

>  <SCORE.INTRA.REPUL>
0

>  <SCORE.INTRA.REPUL.0>
0

>  <SCORE.INTRA.SOLV>
0.722389

>  <SCORE.INTRA.SOLV.lig_0>
-117.703

>  <SCORE.INTRA.VDW>
-1.67955

>  <SCORE.INTRA.VDW.0>
-1.59997

>  <SCORE.INTRA.norm>
-0.0297684

>  <SCORE.RESTR>
0

>  <SCORE.RESTR.CAVITY>
0

>  <SCORE.RESTR.norm>
0

>  <SCORE.SYSTEM>
0

>  <SCORE.SYSTEM.CONST>
0

>  <SCORE.SYSTEM.DIHEDRAL>
0

>  <SCORE.SYSTEM.SOLV>
0

>  <SCORE.SYSTEM.norm>
0

>  <SCORE.heavy>
44

>  <SCORE.norm>
-0.332176

>  <RMSD>
3.816

$$$$
ligand
 OpenBabel11021811513D
libRbt.so/2013.1/901 2013/11/27
 44 50  0  0  0  0  0  0  0  0999 V2000
   -6.1447   33.9373  -12.8138 P   0  0  2  0  0  0  0  0  0  0  0  0
  -10.1508   37.4723  -13.6263 P   0  0  1  0  0  0  0  0  0  0  0  0
   -5.0612   34.0351  -11.7428 O   0  5  0  0  0  0  0  0  0  0  0  0
  -10.2261   37.6350  -15.1249 O   0  5  0  0  0  0  0  0  0  0  0  0
   -5.5527   33.1182  -13.9354 O   0  0  0  0  0  0  0  0  0  0  0  0
  -11.4272   38.1070  -13.0289 O   0  0  0  0  0  0  0  0  0  0  0  0
   -6.2720   36.3888  -12.1693 C   0  0  0  0  0  0  0  0  0  0  0  0
   -9.6851   35.5253  -11.9951 C   0  0  0  0  0  0  0  0  0  0  0  0
   -6.4601   35.4168  -13.2067 O   0  0  0  0  0  0  0  0  0  0  0  0
   -9.8977   35.8638  -13.3947 O   0  0  0  0  0  0  0  0  0  0  0  0
   -6.5681   37.7874  -12.7000 C   0  0  1  0  0  0  0  0  0  0  0  0
   -9.6001   33.9537  -11.9306 C   0  0  1  0  0  0  0  0  0  0  0  0
   -5.4954   38.2377  -13.2736 O   0  0  0  0  0  0  0  0  0  0  0  0
  -10.6322   33.5386  -12.5441 O   0  0  0  0  0  0  0  0  0  0  0  0
   -7.6600   37.8098  -13.7448 C   0  0  1  0  0  0  0  0  0  0  0  0
   -8.4504   33.4266  -12.8122 C   0  0  1  0  0  0  0  0  0  0  0  0
   -8.7959   38.2064  -13.1117 O   0  0  0  0  0  0  0  0  0  0  0  0
   -7.3783   33.1074  -12.0769 O   0  0  0  0  0  0  0  0  0  0  0  0
   -7.1838   38.9141  -14.7517 C   0  0  1  0  0  0  0  0  0  0  0  0
   -8.9940   32.1950  -13.5718 C   0  0  1  0  0  0  0  0  0  0  0  0
   -7.9277   40.1799  -14.5113 O   0  0  0  0  0  0  0  0  0  0  0  0
   -8.5000   30.9291  -12.9404 O   0  0  0  0  0  0  0  0  0  0  0  0
   -5.9149   39.0753  -14.5526 C   0  0  2  0  0  0  0  0  0  0  0  0
  -10.2749   32.2675  -13.4487 C   0  0  2  0  0  0  0  0  0  0  0  0
   -5.2574   36.5696  -19.2548 N   0  0  0  0  0  0  0  0  0  0  0  0
   -6.4237   36.6525  -18.5547 C   0  0  0  0  0  0  0  0  0  0  0  0
   -6.4878   37.3199  -17.3580 N   0  0  0  0  0  0  0  0  0  0  0  0
   -5.3559   37.9075  -16.8644 C   0  0  0  0  0  0  0  0  0  0  0  0
   -4.1998   37.8283  -17.5379 C   0  0  0  0  0  0  0  0  0  0  0  0
   -4.1455   37.1564  -18.7579 C   0  0  0  0  0  0  0  0  0  0  0  0
   -2.9985   37.0017  -19.5613 N   0  0  0  0  0  0  0  0  0  0  0  0
   -3.2622   38.4930  -16.8299 N   0  0  0  0  0  0  0  0  0  0  0  0
   -3.8551   38.9791  -15.7024 C   0  0  0  0  0  0  0  0  0  0  0  0
   -5.1492   38.6344  -15.7301 N   0  0  0  0  0  0  0  0  0  0  0  0
  -10.6604   34.7160  -18.0288 N   0  0  0  0  0  0  0  0  0  0  0  0
   -9.7631   34.9726  -17.0412 C   0  0  0  0  0  0  0  0  0  0  0  0
   -9.7997   34.2391  -15.8888 N   0  0  0  0  0  0  0  0  0  0  0  0
  -10.7250   33.2541  -15.7327 C   0  0  0  0  0  0  0  0  0  0  0  0
  -11.6156   32.9909  -16.7103 C   0  0  0  0  0  0  0  0  0  0  0  0
  -11.5736   33.7455  -17.8791 C   0  0  0  0  0  0  0  0  0  0  0  0
  -12.4305   33.6512  -19.0333 N   0  0  0  0  0  0  0  0  0  0  0  0
  -12.4024   31.9761  -16.2789 N   0  0  0  0  0  0  0  0  0  0  0  0
  -11.9863   31.6131  -15.0319 C   0  0  0  0  0  0  0  0  0  0  0  0
  -10.9469   32.4072  -14.7045 N   0  0  0  0  0  0  0  0  0  0  0  0
  1  3  1  1  0  0  0
  1  5  2  0  0  0  0
  1  9  1  0  0  0  0
  1 18  1  0  0  0  0
  2  4  1  6  0  0  0
  2  6  2  0  0  0  0
  2 10  1  0  0  0  0
  2 17  1  0  0  0  0
  7  9  1  0  0  0  0
  8 10  1  0  0  0  0
 11  7  1  6  0  0  0
 11 13  1  0  0  0  0
 11 15  1  0  0  0  0
 12  8  1  6  0  0  0
 12 14  1  0  0  0  0
 12 16  1  0  0  0  0
 13 23  1  0  0  0  0
 14 24  1  0  0  0  0
 15 17  1  1  0  0  0
 15 19  1  0  0  0  0
 16 18  1  1  0  0  0
 16 20  1  0  0  0  0
 19 21  1  1  0  0  0
 19 23  1  0  0  0  0
 20 22  1  1  0  0  0
 20 24  1  0  0  0  0
 23 34  1  6  0  0  0
 24 44  1  6  0  0  0
 25 26  2  0  0  0  0
 25 30  1  0  0  0  0
 26 27  1  0  0  0  0
 27 28  2  0  0  0  0
 28 29  1  0  0  0  0
 28 34  1  0  0  0  0
 29 30  2  0  0  0  0
 29 32  1  0  0  0  0
 30 31  1  0  0  0  0
 32 33  2  0  0  0  0
 33 34  1  0  0  0  0
 35 36  2  0  0  0  0
 35 40  1  0  0  0  0
 36 37  1  0  0  0  0
 37 38  2  0  0  0  0
 38 39  1  0  0  0  0
 38 44  1  0  0  0  0
 39 40  2  0  0  0  0
 39 42  1  0  0  0  0
 40 41  1  0  0  0  0
 42 43  2  0  0  0  0
 43 44  1  0  0  0  0
M  CHG  2   3  -1   4  -1
M  END
>  <CHROM.1>
105.72124372,70.90018138,-8.04004225,35.62908866,-14.78811423,-2.79069690
-0.67429425,-1.37169035

>  <Name>
ligand

>  <RI>
0

>  <Rbt.Current_Directory>
/home/itssahil/PROJECTS/Mol_Feturizer/New_Systems/rnas/4QLM

>  <Rbt.Executable>
rbdock ($Id: //depot/dev/client3/rdock/2013.1/src/exe/rbdock.cxx#4 $)

>  <Rbt.Library>
libRbt.so (2013.1, Build901 2013/11/27)

>  <Rbt.Parameter_File>
/export/apps/rDock/src/rDock_2013.1_src/data/scripts/dock_solv.prm

>  <Rbt.Receptor>
prm/pocket_docking_6.prm

>  <SCORE>
-14.6312

>  <SCORE.INTER>
-13.2868

>  <SCORE.INTER.CONST>
1

>  <SCORE.INTER.POLAR>
0

>  <SCORE.INTER.ROT>
2

>  <SCORE.INTER.SOLV>
23.9938

>  <SCORE.INTER.VDW>
-21.7891

>  <SCORE.INTER.norm>
-0.301973

>  <SCORE.INTRA>
-1.34441

>  <SCORE.INTRA.DIHEDRAL>
0.0116587

>  <SCORE.INTRA.DIHEDRAL.0>
2.32994

>  <SCORE.INTRA.POLAR>
0

>  <SCORE.INTRA.POLAR.0>
0

>  <SCORE.INTRA.REPUL>
0

>  <SCORE.INTRA.REPUL.0>
0

>  <SCORE.INTRA.SOLV>
0.499295

>  <SCORE.INTRA.SOLV.lig_0>
-117.703

>  <SCORE.INTRA.VDW>
-1.59989

>  <SCORE.INTRA.VDW.0>
-1.59997

>  <SCORE.INTRA.norm>
-0.0305548

>  <SCORE.RESTR>
0

>  <SCORE.RESTR.CAVITY>
0

>  <SCORE.RESTR.norm>
0

>  <SCORE.SYSTEM>
0

>  <SCORE.SYSTEM.CONST>
0

>  <SCORE.SYSTEM.DIHEDRAL>
0

>  <SCORE.SYSTEM.SOLV>
0

>  <SCORE.SYSTEM.norm>
0

>  <SCORE.heavy>
44

>  <SCORE.norm>
-0.332528

>  <RMSD>
3.837

$$$$
ligand
 OpenBabel11021811513D
libRbt.so/2013.1/901 2013/11/27
 44 50  0  0  0  0  0  0  0  0999 V2000
   -6.1878   34.0088  -12.7839 P   0  0  2  0  0  0  0  0  0  0  0  0
  -10.1802   37.5680  -13.5573 P   0  0  1  0  0  0  0  0  0  0  0  0
   -5.0840   34.1081  -11.7341 O   0  5  0  0  0  0  0  0  0  0  0  0
  -10.2818   37.7170  -15.0558 O   0  5  0  0  0  0  0  0  0  0  0  0
   -5.6231   33.1741  -13.9082 O   0  0  0  0  0  0  0  0  0  0  0  0
  -11.4403   38.2188  -12.9428 O   0  0  0  0  0  0  0  0  0  0  0  0
   -6.2839   36.4672  -12.1612 C   0  0  0  0  0  0  0  0  0  0  0  0
   -9.6999   35.6331  -11.9160 C   0  0  0  0  0  0  0  0  0  0  0  0
   -6.4987   35.4869  -13.1854 O   0  0  0  0  0  0  0  0  0  0  0  0
   -9.9356   35.9599  -13.3147 O   0  0  0  0  0  0  0  0  0  0  0  0
   -6.5786   37.8631  -12.7000 C   0  0  1  0  0  0  0  0  0  0  0  0
   -9.6261   34.0615  -11.8377 C   0  0  1  0  0  0  0  0  0  0  0  0
   -5.5132   38.2991  -13.2974 O   0  0  0  0  0  0  0  0  0  0  0  0
  -10.6727   33.6489  -12.4281 O   0  0  0  0  0  0  0  0  0  0  0  0
   -7.6894   37.8842  -13.7247 C   0  0  1  0  0  0  0  0  0  0  0  0
   -8.4971   33.5167  -12.7352 C   0  0  1  0  0  0  0  0  0  0  0  0
   -8.8102   38.2960  -13.0748 O   0  0  0  0  0  0  0  0  0  0  0  0
   -7.4142   33.1959  -12.0165 O   0  0  0  0  0  0  0  0  0  0  0  0
   -7.2231   38.9749  -14.7509 C   0  0  1  0  0  0  0  0  0  0  0  0
   -9.0643   32.2823  -13.4726 C   0  0  1  0  0  0  0  0  0  0  0  0
   -7.9524   40.2489  -14.5093 O   0  0  0  0  0  0  0  0  0  0  0  0
   -8.5688   31.0185  -12.8381 O   0  0  0  0  0  0  0  0  0  0  0  0
   -5.9495   39.1278  -14.5767 C   0  0  2  0  0  0  0  0  0  0  0  0
  -10.3421   32.3664  -13.3268 C   0  0  2  0  0  0  0  0  0  0  0  0
   -5.3923   36.5524  -19.2541 N   0  0  0  0  0  0  0  0  0  0  0  0
   -6.5433   36.6457  -18.5304 C   0  0  0  0  0  0  0  0  0  0  0  0
   -6.5819   37.3308  -17.3427 N   0  0  0  0  0  0  0  0  0  0  0  0
   -5.4399   37.9257  -16.8823 C   0  0  0  0  0  0  0  0  0  0  0  0
   -4.2985   37.8366  -17.5793 C   0  0  0  0  0  0  0  0  0  0  0  0
   -4.2702   37.1466  -18.7900 C   0  0  0  0  0  0  0  0  0  0  0  0
   -3.1406   36.9800  -19.6154 N   0  0  0  0  0  0  0  0  0  0  0  0
   -3.3461   38.5117  -16.9015 N   0  0  0  0  0  0  0  0  0  0  0  0
   -3.9149   39.0146  -15.7689 C   0  0  0  0  0  0  0  0  0  0  0  0
   -5.2091   38.6694  -15.7636 N   0  0  0  0  0  0  0  0  0  0  0  0
  -10.6834   34.6447  -17.9972 N   0  0  0  0  0  0  0  0  0  0  0  0
   -9.7454   34.8804  -17.0428 C   0  0  0  0  0  0  0  0  0  0  0  0
   -9.8007   34.1991  -15.8595 N   0  0  0  0  0  0  0  0  0  0  0  0
  -10.7851   33.2863  -15.6398 C   0  0  0  0  0  0  0  0  0  0  0  0
  -11.7166   33.0440  -16.5841 C   0  0  0  0  0  0  0  0  0  0  0  0
  -11.6551   33.7452  -17.7848 C   0  0  0  0  0  0  0  0  0  0  0  0
  -12.5463   33.6618  -18.9135 N   0  0  0  0  0  0  0  0  0  0  0  0
  -12.5577   32.1034  -16.0913 N   0  0  0  0  0  0  0  0  0  0  0  0
  -12.1342   31.7648  -14.8400 C   0  0  0  0  0  0  0  0  0  0  0  0
  -11.0360   32.4994  -14.5713 N   0  0  0  0  0  0  0  0  0  0  0  0
  1  3  1  1  0  0  0
  1  5  2  0  0  0  0
  1  9  1  0  0  0  0
  1 18  1  0  0  0  0
  2  4  1  6  0  0  0
  2  6  2  0  0  0  0
  2 10  1  0  0  0  0
  2 17  1  0  0  0  0
  7  9  1  0  0  0  0
  8 10  1  0  0  0  0
 11  7  1  6  0  0  0
 11 13  1  0  0  0  0
 11 15  1  0  0  0  0
 12  8  1  6  0  0  0
 12 14  1  0  0  0  0
 12 16  1  0  0  0  0
 13 23  1  0  0  0  0
 14 24  1  0  0  0  0
 15 17  1  1  0  0  0
 15 19  1  0  0  0  0
 16 18  1  1  0  0  0
 16 20  1  0  0  0  0
 19 21  1  1  0  0  0
 19 23  1  0  0  0  0
 20 22  1  1  0  0  0
 20 24  1  0  0  0  0
 23 34  1  6  0  0  0
 24 44  1  6  0  0  0
 25 26  2  0  0  0  0
 25 30  1  0  0  0  0
 26 27  1  0  0  0  0
 27 28  2  0  0  0  0
 28 29  1  0  0  0  0
 28 34  1  0  0  0  0
 29 30  2  0  0  0  0
 29 32  1  0  0  0  0
 30 31  1  0  0  0  0
 32 33  2  0  0  0  0
 33 34  1  0  0  0  0
 35 36  2  0  0  0  0
 35 40  1  0  0  0  0
 36 37  1  0  0  0  0
 37 38  2  0  0  0  0
 38 39  1  0  0  0  0
 38 44  1  0  0  0  0
 39 40  2  0  0  0  0
 39 42  1  0  0  0  0
 40 41  1  0  0  0  0
 42 43  2  0  0  0  0
 43 44  1  0  0  0  0
M  CHG  2   3  -1   4  -1
M  END
>  <CHROM.1>
105.13686126,74.78862689,-8.09698835,35.68552873,-14.74451823,-2.79486750
-0.67736357,-1.40650359

>  <Name>
ligand

>  <RI>
0

>  <Rbt.Current_Directory>
/home/itssahil/PROJECTS/Mol_Feturizer/New_Systems/rnas/4QLM

>  <Rbt.Executable>
rbdock ($Id: //depot/dev/client3/rdock/2013.1/src/exe/rbdock.cxx#4 $)

>  <Rbt.Library>
libRbt.so (2013.1, Build901 2013/11/27)

>  <Rbt.Parameter_File>
/export/apps/rDock/src/rDock_2013.1_src/data/scripts/dock_solv.prm

>  <Rbt.Receptor>
prm/pocket_docking_6.prm

>  <SCORE>
-14.6274

>  <SCORE.INTER>
-13.355

>  <SCORE.INTER.CONST>
1

>  <SCORE.INTER.POLAR>
0

>  <SCORE.INTER.ROT>
2

>  <SCORE.INTER.SOLV>
22.8333

>  <SCORE.INTER.VDW>
-21.4478

>  <SCORE.INTER.norm>
-0.303523

>  <SCORE.INTRA>
-1.27239

>  <SCORE.INTRA.DIHEDRAL>
0.0109002

>  <SCORE.INTRA.DIHEDRAL.0>
2.32994

>  <SCORE.INTRA.POLAR>
0

>  <SCORE.INTRA.POLAR.0>
0

>  <SCORE.INTRA.REPUL>
0

>  <SCORE.INTRA.REPUL.0>
0

>  <SCORE.INTRA.SOLV>
0.368662

>  <SCORE.INTRA.SOLV.lig_0>
-117.703

>  <SCORE.INTRA.VDW>
-1.46218

>  <SCORE.INTRA.VDW.0>
-1.59997

>  <SCORE.INTRA.norm>
-0.0289181

>  <SCORE.RESTR>
0

>  <SCORE.RESTR.CAVITY>
0

>  <SCORE.RESTR.norm>
0

>  <SCORE.SYSTEM>
0

>  <SCORE.SYSTEM.CONST>
0

>  <SCORE.SYSTEM.DIHEDRAL>
0

>  <SCORE.SYSTEM.SOLV>
0

>  <SCORE.SYSTEM.norm>
0

>  <SCORE.heavy>
44

>  <SCORE.norm>
-0.332441

>  <RMSD>
3.873

$$$$
ligand
 OpenBabel11021811513D
libRbt.so/2013.1/901 2013/11/27
 44 50  0  0  0  0  0  0  0  0999 V2000
   -6.9545   38.0995  -12.2806 P   0  0  2  0  0  0  0  0  0  0  0  0
   -8.9515   36.0790  -16.8779 P   0  0  1  0  0  0  0  0  0  0  0  0
   -6.4953   39.5376  -12.0539 O   0  5  0  0  0  0  0  0  0  0  0  0
   -8.2911   34.7301  -17.0275 O   0  5  0  0  0  0  0  0  0  0  0  0
   -6.1839   37.2533  -11.2960 O   0  0  0  0  0  0  0  0  0  0  0  0
  -10.1163   36.1372  -17.8923 O   0  0  0  0  0  0  0  0  0  0  0  0
   -6.6469   38.9272  -14.6601 C   0  0  0  0  0  0  0  0  0  0  0  0
   -9.8561   37.4914  -14.9145 C   0  0  0  0  0  0  0  0  0  0  0  0
   -6.6171   37.7980  -13.7766 O   0  0  0  0  0  0  0  0  0  0  0  0
   -9.3058   36.1933  -15.2760 O   0  0  0  0  0  0  0  0  0  0  0  0
   -6.2542   38.5010  -16.0706 C   0  0  1  0  0  0  0  0  0  0  0  0
  -10.2663   37.3884  -13.3970 C   0  0  1  0  0  0  0  0  0  0  0  0
   -4.9597   38.5120  -16.1506 O   0  0  0  0  0  0  0  0  0  0  0  0
  -10.9801   36.3406  -13.3152 O   0  0  0  0  0  0  0  0  0  0  0  0
   -6.6977   37.0976  -16.4146 C   0  0  1  0  0  0  0  0  0  0  0  0
   -9.0491   37.0351  -12.5192 C   0  0  1  0  0  0  0  0  0  0  0  0
   -7.8285   37.2188  -17.1595 O   0  0  0  0  0  0  0  0  0  0  0  0
   -8.5681   38.1165  -11.8938 O   0  0  0  0  0  0  0  0  0  0  0  0
   -5.5225   36.5452  -17.2944 C   0  0  1  0  0  0  0  0  0  0  0  0
   -9.5197   35.9667  -11.5062 C   0  0  1  0  0  0  0  0  0  0  0  0
   -5.8946   36.5956  -18.7340 O   0  0  0  0  0  0  0  0  0  0  0  0
   -9.7525   36.5853  -10.1614 O   0  0  0  0  0  0  0  0  0  0  0  0
   -4.4947   37.2943  -17.0531 C   0  0  2  0  0  0  0  0  0  0  0  0
  -10.6359   35.5292  -11.9792 C   0  0  2  0  0  0  0  0  0  0  0  0
   -2.3477   34.5999  -12.9359 N   0  0  0  0  0  0  0  0  0  0  0  0
   -3.5924   35.1541  -12.9603 C   0  0  0  0  0  0  0  0  0  0  0  0
   -4.0500   35.8242  -14.0662 N   0  0  0  0  0  0  0  0  0  0  0  0
   -3.2350   35.9358  -15.1588 C   0  0  0  0  0  0  0  0  0  0  0  0
   -2.0056   35.4022  -15.1471 C   0  0  0  0  0  0  0  0  0  0  0  0
   -1.5520   34.7147  -14.0227 C   0  0  0  0  0  0  0  0  0  0  0  0
   -0.2871   34.1101  -13.8831 N   0  0  0  0  0  0  0  0  0  0  0  0
   -1.4329   35.6563  -16.3428 N   0  0  0  0  0  0  0  0  0  0  0  0
   -2.3256   36.3629  -17.0931 C   0  0  0  0  0  0  0  0  0  0  0  0
   -3.4432   36.5213  -16.3719 N   0  0  0  0  0  0  0  0  0  0  0  0
   -7.8176   31.1900  -12.5694 N   0  0  0  0  0  0  0  0  0  0  0  0
   -7.3553   32.4208  -12.2264 C   0  0  0  0  0  0  0  0  0  0  0  0
   -8.2307   33.4647  -12.1197 N   0  0  0  0  0  0  0  0  0  0  0  0
   -9.5576   33.2725  -12.3496 C   0  0  0  0  0  0  0  0  0  0  0  0
  -10.0240   32.0528  -12.6858 C   0  0  0  0  0  0  0  0  0  0  0  0
   -9.1249   30.9961  -12.7962 C   0  0  0  0  0  0  0  0  0  0  0  0
   -9.3958   29.6282  -13.1577 N   0  0  0  0  0  0  0  0  0  0  0  0
  -11.3637   32.1636  -12.8532 N   0  0  0  0  0  0  0  0  0  0  0  0
  -11.7189   33.4580  -12.6123 C   0  0  0  0  0  0  0  0  0  0  0  0
  -10.5957   34.1348  -12.2988 N   0  0  0  0  0  0  0  0  0  0  0  0
  1  3  1  1  0  0  0
  1  5  2  0  0  0  0
  1  9  1  0  0  0  0
  1 18  1  0  0  0  0
  2  4  1  6  0  0  0
  2  6  2  0  0  0  0
  2 10  1  0  0  0  0
  2 17  1  0  0  0  0
  7  9  1  0  0  0  0
  8 10  1  0  0  0  0
 11  7  1  1  0  0  0
 11 13  1  0  0  0  0
 11 15  1  0  0  0  0
 12  8  1  6  0  0  0
 12 14  1  0  0  0  0
 12 16  1  0  0  0  0
 13 23  1  0  0  0  0
 14 24  1  0  0  0  0
 15 17  1  6  0  0  0
 15 19  1  0  0  0  0
 16 18  1  1  0  0  0
 16 20  1  0  0  0  0
 19 21  1  6  0  0  0
 19 23  1  0  0  0  0
 20 22  1  1  0  0  0
 20 24  1  0  0  0  0
 23 34  1  1  0  0  0
 24 44  1  6  0  0  0
 25 26  2  0  0  0  0
 25 30  1  0  0  0  0
 26 27  1  0  0  0  0
 27 28  2  0  0  0  0
 28 29  1  0  0  0  0
 28 34  1  0  0  0  0
 29 30  2  0  0  0  0
 29 32  1  0  0  0  0
 30 31  1  0  0  0  0
 32 33  2  0  0  0  0
 33 34  1  0  0  0  0
 35 36  2  0  0  0  0
 35 40  1  0  0  0  0
 36 37  1  0  0  0  0
 37 38  2  0  0  0  0
 38 39  1  0  0  0  0
 38 44  1  0  0  0  0
 39 40  2  0  0  0  0
 39 42  1  0  0  0  0
 40 41  1  0  0  0  0
 42 43  2  0  0  0  0
 43 44  1  0  0  0  0
M  CHG  2   3  -1   4  -1
M  END
>  <CHROM.1>
50.95220091,110.58789568,-7.13164805,35.80272665,-14.21325832,0.46149448
0.18003196,-0.57913479

>  <Name>
ligand

>  <RI>
0

>  <Rbt.Current_Directory>
/home/itssahil/PROJECTS/Mol_Feturizer/New_Systems/rnas/4QLM

>  <Rbt.Executable>
rbdock ($Id: //depot/dev/client3/rdock/2013.1/src/exe/rbdock.cxx#4 $)

>  <Rbt.Library>
libRbt.so (2013.1, Build901 2013/11/27)

>  <Rbt.Parameter_File>
/export/apps/rDock/src/rDock_2013.1_src/data/scripts/dock_solv.prm

>  <Rbt.Receptor>
prm/pocket_docking_6.prm

>  <SCORE>
-12.6125

>  <SCORE.INTER>
-12.0278

>  <SCORE.INTER.CONST>
1

>  <SCORE.INTER.POLAR>
0

>  <SCORE.INTER.ROT>
2

>  <SCORE.INTER.SOLV>
22.7952

>  <SCORE.INTER.VDW>
-20.5503

>  <SCORE.INTER.norm>
-0.273359

>  <SCORE.INTRA>
-0.584727

>  <SCORE.INTRA.DIHEDRAL>
0.114727

>  <SCORE.INTRA.DIHEDRAL.0>
2.32994

>  <SCORE.INTRA.POLAR>
0

>  <SCORE.INTRA.POLAR.0>
0

>  <SCORE.INTRA.REPUL>
0

>  <SCORE.INTRA.REPUL.0>
0

>  <SCORE.INTRA.SOLV>
0.278169

>  <SCORE.INTRA.SOLV.lig_0>
-117.703

>  <SCORE.INTRA.VDW>
-0.781174

>  <SCORE.INTRA.VDW.0>
-1.59997

>  <SCORE.INTRA.norm>
-0.0132892

>  <SCORE.RESTR>
0

>  <SCORE.RESTR.CAVITY>
0

>  <SCORE.RESTR.norm>
0

>  <SCORE.SYSTEM>
0

>  <SCORE.SYSTEM.CONST>
0

>  <SCORE.SYSTEM.DIHEDRAL>
0

>  <SCORE.SYSTEM.SOLV>
0

>  <SCORE.SYSTEM.norm>
0

>  <SCORE.heavy>
44

>  <SCORE.norm>
-0.286648

>  <RMSD>
3.876

$$$$
ligand
 OpenBabel11021811513D
libRbt.so/2013.1/901 2013/11/27
 44 50  0  0  0  0  0  0  0  0999 V2000
   -6.3896   33.5123  -12.5784 P   0  0  2  0  0  0  0  0  0  0  0  0
   -9.6417   37.6649  -13.7554 P   0  0  1  0  0  0  0  0  0  0  0  0
   -5.3569   33.4679  -11.4550 O   0  5  0  0  0  0  0  0  0  0  0  0
   -9.6171   37.7617  -15.2614 O   0  5  0  0  0  0  0  0  0  0  0  0
   -5.9062   32.5437  -13.6308 O   0  0  0  0  0  0  0  0  0  0  0  0
  -10.8070   38.5489  -13.2555 O   0  0  0  0  0  0  0  0  0  0  0  0
   -6.0969   35.9763  -12.0451 C   0  0  0  0  0  0  0  0  0  0  0  0
   -9.6146   35.7518  -12.0211 C   0  0  0  0  0  0  0  0  0  0  0  0
   -6.4114   35.0023  -13.0495 O   0  0  0  0  0  0  0  0  0  0  0  0
   -9.6973   36.0511  -13.4431 O   0  0  0  0  0  0  0  0  0  0  0  0
   -6.1081   37.3764  -12.6493 C   0  0  1  0  0  0  0  0  0  0  0  0
   -9.8209   34.1959  -11.8862 C   0  0  1  0  0  0  0  0  0  0  0  0
   -4.9460   37.5961  -13.1819 O   0  0  0  0  0  0  0  0  0  0  0  0
  -10.8822   33.9428  -12.5371 O   0  0  0  0  0  0  0  0  0  0  0  0
   -7.1284   37.5417  -13.7520 C   0  0  1  0  0  0  0  0  0  0  0  0
   -8.7474   33.4260  -12.6811 C   0  0  1  0  0  0  0  0  0  0  0  0
   -8.2007   38.1682  -13.1989 O   0  0  0  0  0  0  0  0  0  0  0  0
   -7.7866   32.9569  -11.8757 O   0  0  0  0  0  0  0  0  0  0  0  0
   -6.4128   38.4892  -14.7769 C   0  0  1  0  0  0  0  0  0  0  0  0
   -9.4712   32.2753  -13.4168 C   0  0  1  0  0  0  0  0  0  0  0  0
   -6.9235   39.8789  -14.6306 O   0  0  0  0  0  0  0  0  0  0  0  0
   -9.2460   30.9750  -12.7070 O   0  0  0  0  0  0  0  0  0  0  0  0
   -5.1463   38.4292  -14.5158 C   0  0  2  0  0  0  0  0  0  0  0  0
  -10.7216   32.5836  -13.3669 C   0  0  2  0  0  0  0  0  0  0  0  0
   -3.2045   34.2772  -17.3108 N   0  0  0  0  0  0  0  0  0  0  0  0
   -3.9509   34.1904  -16.1740 C   0  0  0  0  0  0  0  0  0  0  0  0
   -4.4022   35.3159  -15.5329 N   0  0  0  0  0  0  0  0  0  0  0  0
   -4.0908   36.5435  -16.0490 C   0  0  0  0  0  0  0  0  0  0  0  0
   -3.3515   36.6451  -17.1623 C   0  0  0  0  0  0  0  0  0  0  0  0
   -2.9049   35.4961  -17.8129 C   0  0  0  0  0  0  0  0  0  0  0  0
   -2.1243   35.4656  -18.9854 N   0  0  0  0  0  0  0  0  0  0  0  0
   -3.2046   37.9572  -17.4431 N   0  0  0  0  0  0  0  0  0  0  0  0
   -3.8592   38.6674  -16.4806 C   0  0  0  0  0  0  0  0  0  0  0  0
   -4.4206   37.7980  -15.6303 N   0  0  0  0  0  0  0  0  0  0  0  0
  -12.6861   35.8607  -16.9055 N   0  0  0  0  0  0  0  0  0  0  0  0
  -12.2217   36.1801  -15.6691 C   0  0  0  0  0  0  0  0  0  0  0  0
  -11.7420   35.1945  -14.8531 N   0  0  0  0  0  0  0  0  0  0  0  0
  -11.7239   33.9021  -15.2773 C   0  0  0  0  0  0  0  0  0  0  0  0
  -12.1790   33.5784  -16.5046 C   0  0  0  0  0  0  0  0  0  0  0  0
  -12.6695   34.5880  -17.3277 C   0  0  0  0  0  0  0  0  0  0  0  0
  -13.2170   34.4700  -18.6549 N   0  0  0  0  0  0  0  0  0  0  0  0
  -12.0414   32.2384  -16.6472 N   0  0  0  0  0  0  0  0  0  0  0  0
  -11.4936   31.7407  -15.5016 C   0  0  0  0  0  0  0  0  0  0  0  0
  -11.2983   32.7777  -14.6622 N   0  0  0  0  0  0  0  0  0  0  0  0
  1  3  1  1  0  0  0
  1  5  2  0  0  0  0
  1  9  1  0  0  0  0
  1 18  1  0  0  0  0
  2  4  1  6  0  0  0
  2  6  2  0  0  0  0
  2 10  1  0  0  0  0
  2 17  1  0  0  0  0
  7  9  1  0  0  0  0
  8 10  1  0  0  0  0
 11  7  1  6  0  0  0
 11 13  1  0  0  0  0
 11 15  1  0  0  0  0
 12  8  1  6  0  0  0
 12 14  1  0  0  0  0
 12 16  1  0  0  0  0
 13 23  1  0  0  0  0
 14 24  1  0  0  0  0
 15 17  1  1  0  0  0
 15 19  1  0  0  0  0
 16 18  1  1  0  0  0
 16 20  1  0  0  0  0
 19 21  1  1  0  0  0
 19 23  1  0  0  0  0
 20 22  1  1  0  0  0
 20 24  1  0  0  0  0
 23 34  1  6  0  0  0
 24 44  1  6  0  0  0
 25 26  2  0  0  0  0
 25 30  1  0  0  0  0
 26 27  1  0  0  0  0
 27 28  2  0  0  0  0
 28 29  1  0  0  0  0
 28 34  1  0  0  0  0
 29 30  2  0  0  0  0
 29 32  1  0  0  0  0
 30 31  1  0  0  0  0
 32 33  2  0  0  0  0
 33 34  1  0  0  0  0
 35 36  2  0  0  0  0
 35 40  1  0  0  0  0
 36 37  1  0  0  0  0
 37 38  2  0  0  0  0
 38 39  1  0  0  0  0
 38 44  1  0  0  0  0
 39 40  2  0  0  0  0
 39 42  1  0  0  0  0
 40 41  1  0  0  0  0
 42 43  2  0  0  0  0
 43 44  1  0  0  0  0
M  CHG  2   3  -1   4  -1
M  END
>  <CHROM.1>
34.05420471,10.79910468,-7.91604405,35.40936555,-14.51528038,-0.36909877
0.05637690,2.66051215

>  <Name>
ligand

>  <RI>
0

>  <Rbt.Current_Directory>
/home/itssahil/PROJECTS/Mol_Feturizer/New_Systems/rnas/4QLM

>  <Rbt.Executable>
rbdock ($Id: //depot/dev/client3/rdock/2013.1/src/exe/rbdock.cxx#4 $)

>  <Rbt.Library>
libRbt.so (2013.1, Build901 2013/11/27)

>  <Rbt.Parameter_File>
/export/apps/rDock/src/rDock_2013.1_src/data/scripts/dock_solv.prm

>  <Rbt.Receptor>
prm/pocket_docking_4.prm

>  <SCORE>
-8.04574

>  <SCORE.INTER>
-6.8095

>  <SCORE.INTER.CONST>
1

>  <SCORE.INTER.POLAR>
0

>  <SCORE.INTER.ROT>
2

>  <SCORE.INTER.SOLV>
19.6672

>  <SCORE.INTER.VDW>
-16.0287

>  <SCORE.INTER.norm>
-0.154761

>  <SCORE.INTRA>
-1.23625

>  <SCORE.INTRA.DIHEDRAL>
0.164309

>  <SCORE.INTRA.DIHEDRAL.0>
2.32994

>  <SCORE.INTRA.POLAR>
0

>  <SCORE.INTRA.POLAR.0>
0

>  <SCORE.INTRA.REPUL>
0

>  <SCORE.INTRA.REPUL.0>
0

>  <SCORE.INTRA.SOLV>
1.62308

>  <SCORE.INTRA.SOLV.lig_0>
-117.703

>  <SCORE.INTRA.VDW>
-2.12994

>  <SCORE.INTRA.VDW.0>
-1.59997

>  <SCORE.INTRA.norm>
-0.0280965

>  <SCORE.RESTR>
0

>  <SCORE.RESTR.CAVITY>
0

>  <SCORE.RESTR.norm>
0

>  <SCORE.SYSTEM>
0

>  <SCORE.SYSTEM.CONST>
0

>  <SCORE.SYSTEM.DIHEDRAL>
0

>  <SCORE.SYSTEM.SOLV>
0

>  <SCORE.SYSTEM.norm>
0

>  <SCORE.heavy>
44

>  <SCORE.norm>
-0.182858

>  <RMSD>
3.947

$$$$
ligand
 OpenBabel11021811513D
libRbt.so/2013.1/901 2013/11/27
 44 50  0  0  0  0  0  0  0  0999 V2000
   -6.2158   33.8773  -12.7785 P   0  0  2  0  0  0  0  0  0  0  0  0
  -10.2524   37.3983  -13.4950 P   0  0  1  0  0  0  0  0  0  0  0  0
   -5.1087   33.9776  -11.7321 O   0  5  0  0  0  0  0  0  0  0  0  0
  -10.3621   37.5629  -14.9913 O   0  5  0  0  0  0  0  0  0  0  0  0
   -5.6462   33.0620  -13.9144 O   0  0  0  0  0  0  0  0  0  0  0  0
  -11.5174   38.0274  -12.8680 O   0  0  0  0  0  0  0  0  0  0  0  0
   -6.3376   36.3273  -12.1276 C   0  0  0  0  0  0  0  0  0  0  0  0
   -9.7427   35.4508  -11.8777 C   0  0  0  0  0  0  0  0  0  0  0  0
   -6.5455   35.3561  -13.1619 O   0  0  0  0  0  0  0  0  0  0  0  0
   -9.9881   35.7905  -13.2717 O   0  0  0  0  0  0  0  0  0  0  0  0
   -6.6509   37.7256  -12.6493 C   0  0  1  0  0  0  0  0  0  0  0  0
   -9.6504   33.8794  -11.8175 C   0  0  1  0  0  0  0  0  0  0  0  0
   -5.5931   38.1807  -13.2462 O   0  0  0  0  0  0  0  0  0  0  0  0
  -10.6946   33.4613  -12.4082 O   0  0  0  0  0  0  0  0  0  0  0  0
   -7.7662   37.7454  -13.6692 C   0  0  1  0  0  0  0  0  0  0  0  0
   -8.5190   33.3578  -12.7257 C   0  0  1  0  0  0  0  0  0  0  0  0
   -8.8889   38.1367  -13.0100 O   0  0  0  0  0  0  0  0  0  0  0  0
   -7.4294   33.0417  -12.0152 O   0  0  0  0  0  0  0  0  0  0  0  0
   -7.3169   38.8529  -14.6849 C   0  0  1  0  0  0  0  0  0  0  0  0
   -9.0750   32.1253  -13.4747 C   0  0  1  0  0  0  0  0  0  0  0  0
   -8.0599   40.1155  -14.4259 O   0  0  0  0  0  0  0  0  0  0  0  0
   -8.5621   30.8604  -12.8566 O   0  0  0  0  0  0  0  0  0  0  0  0
   -6.0444   39.0186  -14.5142 C   0  0  2  0  0  0  0  0  0  0  0  0
  -10.3530   32.1929  -13.3226 C   0  0  2  0  0  0  0  0  0  0  0  0
   -5.4717   36.4862  -19.2132 N   0  0  0  0  0  0  0  0  0  0  0  0
   -6.6192   36.5530  -18.4811 C   0  0  0  0  0  0  0  0  0  0  0  0
   -6.6624   37.2290  -17.2884 N   0  0  0  0  0  0  0  0  0  0  0  0
   -5.5285   37.8420  -16.8316 C   0  0  0  0  0  0  0  0  0  0  0  0
   -4.3905   37.7790  -17.5369 C   0  0  0  0  0  0  0  0  0  0  0  0
   -4.3577   37.0979  -18.7525 C   0  0  0  0  0  0  0  0  0  0  0  0
   -3.2310   36.9581  -19.5868 N   0  0  0  0  0  0  0  0  0  0  0  0
   -3.4462   38.4671  -16.8609 N   0  0  0  0  0  0  0  0  0  0  0  0
   -4.0164   38.9515  -15.7210 C   0  0  0  0  0  0  0  0  0  0  0  0
   -5.3039   38.5823  -15.7093 N   0  0  0  0  0  0  0  0  0  0  0  0
  -13.2335   35.1632  -16.4850 N   0  0  0  0  0  0  0  0  0  0  0  0
  -12.7565   35.5034  -15.2590 C   0  0  0  0  0  0  0  0  0  0  0  0
  -12.0171   34.6003  -14.5482 N   0  0  0  0  0  0  0  0  0  0  0  0
  -11.7550   33.3702  -15.0665 C   0  0  0  0  0  0  0  0  0  0  0  0
  -12.2212   33.0274  -16.2844 C   0  0  0  0  0  0  0  0  0  0  0  0
  -12.9768   33.9518  -16.9998 C   0  0  0  0  0  0  0  0  0  0  0  0
  -13.5847   33.7951  -18.2963 N   0  0  0  0  0  0  0  0  0  0  0  0
  -11.8113   31.7605  -16.5331 N   0  0  0  0  0  0  0  0  0  0  0  0
  -11.0852   31.3283  -15.4627 C   0  0  0  0  0  0  0  0  0  0  0  0
  -11.0537   32.3318  -14.5627 N   0  0  0  0  0  0  0  0  0  0  0  0
  1  3  1  1  0  0  0
  1  5  2  0  0  0  0
  1  9  1  0  0  0  0
  1 18  1  0  0  0  0
  2  4  1  6  0  0  0
  2  6  2  0  0  0  0
  2 10  1  0  0  0  0
  2 17  1  0  0  0  0
  7  9  1  0  0  0  0
  8 10  1  0  0  0  0
 11  7  1  6  0  0  0
 11 13  1  0  0  0  0
 11 15  1  0  0  0  0
 12  8  1  6  0  0  0
 12 14  1  0  0  0  0
 12 16  1  0  0  0  0
 13 23  1  0  0  0  0
 14 24  1  0  0  0  0
 15 17  1  1  0  0  0
 15 19  1  0  0  0  0
 16 18  1  1  0  0  0
 16 20  1  0  0  0  0
 19 21  1  1  0  0  0
 19 23  1  0  0  0  0
 20 22  1  1  0  0  0
 20 24  1  0  0  0  0
 23 34  1  6  0  0  0
 24 44  1  6  0  0  0
 25 26  2  0  0  0  0
 25 30  1  0  0  0  0
 26 27  1  0  0  0  0
 27 28  2  0  0  0  0
 28 29  1  0  0  0  0
 28 34  1  0  0  0  0
 29 30  2  0  0  0  0
 29 32  1  0  0  0  0
 30 31  1  0  0  0  0
 32 33  2  0  0  0  0
 33 34  1  0  0  0  0
 35 36  2  0  0  0  0
 35 40  1  0  0  0  0
 36 37  1  0  0  0  0
 37 38  2  0  0  0  0
 38 39  1  0  0  0  0
 38 44  1  0  0  0  0
 39 40  2  0  0  0  0
 39 42  1  0  0  0  0
 40 41  1  0  0  0  0
 42 43  2  0  0  0  0
 43 44  1  0  0  0  0
M  CHG  2   3  -1   4  -1
M  END
>  <CHROM.1>
104.63968192,8.69904513,-8.34330007,35.60272607,-14.59781665,-0.51618886
0.41736968,2.18360985

>  <Name>
ligand

>  <RI>
0

>  <Rbt.Current_Directory>
/home/itssahil/PROJECTS/Mol_Feturizer/New_Systems/rnas/4QLM

>  <Rbt.Executable>
rbdock ($Id: //depot/dev/client3/rdock/2013.1/src/exe/rbdock.cxx#4 $)

>  <Rbt.Library>
libRbt.so (2013.1, Build901 2013/11/27)

>  <Rbt.Parameter_File>
/export/apps/rDock/src/rDock_2013.1_src/data/scripts/dock_solv.prm

>  <Rbt.Receptor>
prm/pocket_docking_5.prm

>  <SCORE>
-13.2087

>  <SCORE.INTER>
-12.4737

>  <SCORE.INTER.CONST>
1

>  <SCORE.INTER.POLAR>
0

>  <SCORE.INTER.ROT>
2

>  <SCORE.INTER.SOLV>
17.4635

>  <SCORE.INTER.VDW>
-19.0703

>  <SCORE.INTER.norm>
-0.283493

>  <SCORE.INTRA>
-0.734962

>  <SCORE.INTRA.DIHEDRAL>
-0.00339538

>  <SCORE.INTRA.DIHEDRAL.0>
2.32994

>  <SCORE.INTRA.POLAR>
0

>  <SCORE.INTRA.POLAR.0>
0

>  <SCORE.INTRA.REPUL>
0

>  <SCORE.INTRA.REPUL.0>
0

>  <SCORE.INTRA.SOLV>
1.15568

>  <SCORE.INTRA.SOLV.lig_0>
-117.703

>  <SCORE.INTRA.VDW>
-1.3111

>  <SCORE.INTRA.VDW.0>
-1.59997

>  <SCORE.INTRA.norm>
-0.0167037

>  <SCORE.RESTR>
0

>  <SCORE.RESTR.CAVITY>
0

>  <SCORE.RESTR.norm>
0

>  <SCORE.SYSTEM>
0

>  <SCORE.SYSTEM.CONST>
0

>  <SCORE.SYSTEM.DIHEDRAL>
0

>  <SCORE.SYSTEM.SOLV>
0

>  <SCORE.SYSTEM.norm>
0

>  <SCORE.heavy>
44

>  <SCORE.norm>
-0.300197

>  <RMSD>
3.956

$$$$
ligand
 OpenBabel11021811513D
libRbt.so/2013.1/901 2013/11/27
 44 50  0  0  0  0  0  0  0  0999 V2000
   -6.8948   33.2319  -12.7555 P   0  0  2  0  0  0  0  0  0  0  0  0
   -9.9207   37.5584  -13.9095 P   0  0  1  0  0  0  0  0  0  0  0  0
   -5.9065   33.1072  -11.5988 O   0  5  0  0  0  0  0  0  0  0  0  0
   -9.8371   37.7008  -15.4098 O   0  5  0  0  0  0  0  0  0  0  0  0
   -6.4154   32.2762  -13.8214 O   0  0  0  0  0  0  0  0  0  0  0  0
  -11.0643   38.4769  -13.4222 O   0  0  0  0  0  0  0  0  0  0  0  0
   -6.5162   35.6628  -12.1322 C   0  0  0  0  0  0  0  0  0  0  0  0
  -10.0389   35.5930  -12.2388 C   0  0  0  0  0  0  0  0  0  0  0  0
   -6.8354   34.7354  -13.1783 O   0  0  0  0  0  0  0  0  0  0  0  0
  -10.0568   35.9397  -13.6523 O   0  0  0  0  0  0  0  0  0  0  0  0
   -6.4453   37.0802  -12.6903 C   0  0  1  0  0  0  0  0  0  0  0  0
  -10.3165   34.0442  -12.1621 C   0  0  1  0  0  0  0  0  0  0  0  0
   -5.2563   37.2650  -13.1744 O   0  0  0  0  0  0  0  0  0  0  0  0
  -11.3633   33.8584  -12.8577 O   0  0  0  0  0  0  0  0  0  0  0  0
   -7.4167   37.3245  -13.8222 C   0  0  1  0  0  0  0  0  0  0  0  0
   -9.2488   33.2528  -12.9435 C   0  0  1  0  0  0  0  0  0  0  0  0
   -8.4806   37.9802  -13.2868 O   0  0  0  0  0  0  0  0  0  0  0  0
   -8.3390   32.7171  -12.1207 O   0  0  0  0  0  0  0  0  0  0  0  0
   -6.6243   38.2710  -14.7898 C   0  0  1  0  0  0  0  0  0  0  0  0
   -9.9941   32.1586  -13.7414 C   0  0  1  0  0  0  0  0  0  0  0  0
   -7.0799   39.6766  -14.6163 O   0  0  0  0  0  0  0  0  0  0  0  0
   -9.8509   30.8282  -13.0670 O   0  0  0  0  0  0  0  0  0  0  0  0
   -5.3719   38.1471  -14.4867 C   0  0  2  0  0  0  0  0  0  0  0  0
  -11.2311   32.5200  -13.7253 C   0  0  2  0  0  0  0  0  0  0  0  0
   -3.1869   34.0261  -17.1444 N   0  0  0  0  0  0  0  0  0  0  0  0
   -3.8854   33.9384  -15.9776 C   0  0  0  0  0  0  0  0  0  0  0  0
   -4.4068   35.0556  -15.3763 N   0  0  0  0  0  0  0  0  0  0  0  0
   -4.2154   36.2758  -15.9635 C   0  0  0  0  0  0  0  0  0  0  0  0
   -3.5244   36.3787  -17.1074 C   0  0  0  0  0  0  0  0  0  0  0  0
   -3.0060   35.2374  -17.7167 C   0  0  0  0  0  0  0  0  0  0  0  0
   -2.2650   35.2091  -18.9147 N   0  0  0  0  0  0  0  0  0  0  0  0
   -3.4960   37.6821  -17.4577 N   0  0  0  0  0  0  0  0  0  0  0  0
   -4.1749   38.3860  -16.5076 C   0  0  0  0  0  0  0  0  0  0  0  0
   -4.6339   37.5195  -15.5951 N   0  0  0  0  0  0  0  0  0  0  0  0
  -10.9803   35.2777  -18.1357 N   0  0  0  0  0  0  0  0  0  0  0  0
  -10.1864   35.4172  -17.0419 C   0  0  0  0  0  0  0  0  0  0  0  0
  -10.3881   34.6141  -15.9548 N   0  0  0  0  0  0  0  0  0  0  0  0
  -11.3738   33.6768  -15.9690 C   0  0  0  0  0  0  0  0  0  0  0  0
  -12.1626   33.5296  -17.0527 C   0  0  0  0  0  0  0  0  0  0  0  0
  -11.9527   34.3544  -18.1540 C   0  0  0  0  0  0  0  0  0  0  0  0
  -12.6797   34.3851  -19.3972 N   0  0  0  0  0  0  0  0  0  0  0  0
  -13.0430   32.5366  -16.7810 N   0  0  0  0  0  0  0  0  0  0  0  0
  -12.7870   32.0702  -15.5253 C   0  0  0  0  0  0  0  0  0  0  0  0
  -11.7514   32.7795  -15.0329 N   0  0  0  0  0  0  0  0  0  0  0  0
  1  3  1  1  0  0  0
  1  5  2  0  0  0  0
  1  9  1  0  0  0  0
  1 18  1  0  0  0  0
  2  4  1  6  0  0  0
  2  6  2  0  0  0  0
  2 10  1  0  0  0  0
  2 17  1  0  0  0  0
  7  9  1  0  0  0  0
  8 10  1  0  0  0  0
 11  7  1  6  0  0  0
 11 13  1  0  0  0  0
 11 15  1  0  0  0  0
 12  8  1  6  0  0  0
 12 14  1  0  0  0  0
 12 16  1  0  0  0  0
 13 23  1  0  0  0  0
 14 24  1  0  0  0  0
 15 17  1  1  0  0  0
 15 19  1  0  0  0  0
 16 18  1  1  0  0  0
 16 20  1  0  0  0  0
 19 21  1  1  0  0  0
 19 23  1  0  0  0  0
 20 22  1  1  0  0  0
 20 24  1  0  0  0  0
 23 34  1  6  0  0  0
 24 44  1  6  0  0  0
 25 26  2  0  0  0  0
 25 30  1  0  0  0  0
 26 27  1  0  0  0  0
 27 28  2  0  0  0  0
 28 29  1  0  0  0  0
 28 34  1  0  0  0  0
 29 30  2  0  0  0  0
 29 32  1  0  0  0  0
 30 31  1  0  0  0  0
 32 33  2  0  0  0  0
 33 34  1  0  0  0  0
 35 36  2  0  0  0  0
 35 40  1  0  0  0  0
 36 37  1  0  0  0  0
 37 38  2  0  0  0  0
 38 39  1  0  0  0  0
 38 44  1  0  0  0  0
 39 40  2  0  0  0  0
 39 42  1  0  0  0  0
 40 41  1  0  0  0  0
 42 43  2  0  0  0  0
 43 44  1  0  0  0  0
M  CHG  2   3  -1   4  -1
M  END
>  <CHROM.1>
24.52540397,59.86810219,-8.09608531,35.20093224,-14.73865599,-0.33347666
0.21677534,2.32249873

>  <Name>
ligand

>  <RI>
0

>  <Rbt.Current_Directory>
/home/itssahil/PROJECTS/Mol_Feturizer/New_Systems/rnas/4QLM

>  <Rbt.Executable>
rbdock ($Id: //depot/dev/client3/rdock/2013.1/src/exe/rbdock.cxx#4 $)

>  <Rbt.Library>
libRbt.so (2013.1, Build901 2013/11/27)

>  <Rbt.Parameter_File>
/export/apps/rDock/src/rDock_2013.1_src/data/scripts/dock_solv.prm

>  <Rbt.Receptor>
prm/pocket_docking_4.prm

>  <SCORE>
-8.33949

>  <SCORE.INTER>
-6.85646

>  <SCORE.INTER.CONST>
1

>  <SCORE.INTER.POLAR>
0

>  <SCORE.INTER.ROT>
2

>  <SCORE.INTER.SOLV>
24.758

>  <SCORE.INTER.VDW>
-17.757

>  <SCORE.INTER.norm>
-0.155829

>  <SCORE.INTRA>
-1.48303

>  <SCORE.INTRA.DIHEDRAL>
0.172464

>  <SCORE.INTRA.DIHEDRAL.0>
2.32994

>  <SCORE.INTRA.POLAR>
0

>  <SCORE.INTRA.POLAR.0>
0

>  <SCORE.INTRA.REPUL>
0

>  <SCORE.INTRA.REPUL.0>
0

>  <SCORE.INTRA.SOLV>
1.30769

>  <SCORE.INTRA.SOLV.lig_0>
-117.703

>  <SCORE.INTRA.VDW>
-2.22311

>  <SCORE.INTRA.VDW.0>
-1.59997

>  <SCORE.INTRA.norm>
-0.0337053

>  <SCORE.RESTR>
0

>  <SCORE.RESTR.CAVITY>
0

>  <SCORE.RESTR.norm>
0

>  <SCORE.SYSTEM>
0

>  <SCORE.SYSTEM.CONST>
0

>  <SCORE.SYSTEM.DIHEDRAL>
0

>  <SCORE.SYSTEM.SOLV>
0

>  <SCORE.SYSTEM.norm>
0

>  <SCORE.heavy>
44

>  <SCORE.norm>
-0.189534

>  <RMSD>
3.964

$$$$
ligand
 OpenBabel11021811513D
libRbt.so/2013.1/901 2013/11/27
 44 50  0  0  0  0  0  0  0  0999 V2000
   -6.0178   33.7236  -13.1430 P   0  0  2  0  0  0  0  0  0  0  0  0
   -9.8335   37.5283  -13.5561 P   0  0  1  0  0  0  0  0  0  0  0  0
   -4.8743   33.7014  -12.1319 O   0  5  0  0  0  0  0  0  0  0  0  0
   -9.9790   37.7719  -15.0385 O   0  5  0  0  0  0  0  0  0  0  0  0
   -5.5393   32.9292  -14.3344 O   0  0  0  0  0  0  0  0  0  0  0  0
  -11.0338   38.2065  -12.8574 O   0  0  0  0  0  0  0  0  0  0  0  0
   -5.9571   36.1419  -12.3755 C   0  0  0  0  0  0  0  0  0  0  0  0
   -9.4031   35.4758  -12.0493 C   0  0  0  0  0  0  0  0  0  0  0  0
   -6.2610   35.2374  -13.4459 O   0  0  0  0  0  0  0  0  0  0  0  0
   -9.6691   35.8978  -13.4167 O   0  0  0  0  0  0  0  0  0  0  0  0
   -6.1934   37.5811  -12.8209 C   0  0  1  0  0  0  0  0  0  0  0  0
   -9.4130   33.9006  -12.0651 C   0  0  1  0  0  0  0  0  0  0  0  0
   -5.1271   37.9955  -13.4322 O   0  0  0  0  0  0  0  0  0  0  0  0
  -10.5005   33.5799  -12.6382 O   0  0  0  0  0  0  0  0  0  0  0  0
   -7.3364   37.7222  -13.7997 C   0  0  1  0  0  0  0  0  0  0  0  0
   -8.3475   33.3518  -13.0349 C   0  0  1  0  0  0  0  0  0  0  0  0
   -8.4097   38.1528  -13.0848 O   0  0  0  0  0  0  0  0  0  0  0  0
   -7.2595   32.9320  -12.3779 O   0  0  0  0  0  0  0  0  0  0  0  0
   -6.8471   38.8464  -14.7779 C   0  0  1  0  0  0  0  0  0  0  0  0
   -9.0070   32.1955  -13.8205 C   0  0  1  0  0  0  0  0  0  0  0  0
   -7.4966   40.1403  -14.4352 O   0  0  0  0  0  0  0  0  0  0  0  0
   -8.5597   30.8716  -13.2797 O   0  0  0  0  0  0  0  0  0  0  0  0
   -5.5617   38.9212  -14.6437 C   0  0  2  0  0  0  0  0  0  0  0  0
  -10.2724   32.3379  -13.6216 C   0  0  2  0  0  0  0  0  0  0  0  0
   -5.2626   36.4563  -19.4035 N   0  0  0  0  0  0  0  0  0  0  0  0
   -6.3693   36.5226  -18.6111 C   0  0  0  0  0  0  0  0  0  0  0  0
   -6.3429   37.1805  -17.4078 N   0  0  0  0  0  0  0  0  0  0  0  0
   -5.1803   37.7757  -17.0023 C   0  0  0  0  0  0  0  0  0  0  0  0
   -4.0816   37.7129  -17.7675 C   0  0  0  0  0  0  0  0  0  0  0  0
   -4.1197   37.0504  -18.9932 C   0  0  0  0  0  0  0  0  0  0  0  0
   -3.0398   36.9128  -19.8876 N   0  0  0  0  0  0  0  0  0  0  0  0
   -3.0961   38.3816  -17.1320 N   0  0  0  0  0  0  0  0  0  0  0  0
   -3.6006   38.8537  -15.9565 C   0  0  0  0  0  0  0  0  0  0  0  0
   -4.8894   38.4964  -15.8825 N   0  0  0  0  0  0  0  0  0  0  0  0
  -12.9292   35.6785  -16.6053 N   0  0  0  0  0  0  0  0  0  0  0  0
  -12.3707   35.9355  -15.3935 C   0  0  0  0  0  0  0  0  0  0  0  0
  -11.7081   34.9407  -14.7313 N   0  0  0  0  0  0  0  0  0  0  0  0
  -11.6028   33.7020  -15.2835 C   0  0  0  0  0  0  0  0  0  0  0  0
  -12.1506   33.4409  -16.4877 C   0  0  0  0  0  0  0  0  0  0  0  0
  -12.8271   34.4589  -17.1535 C   0  0  0  0  0  0  0  0  0  0  0  0
  -13.4981   34.4000  -18.4268 N   0  0  0  0  0  0  0  0  0  0  0  0
  -11.8922   32.1431  -16.7774 N   0  0  0  0  0  0  0  0  0  0  0  0
  -11.1772   31.6092  -15.7461 C   0  0  0  0  0  0  0  0  0  0  0  0
  -11.0009   32.5817  -14.8290 N   0  0  0  0  0  0  0  0  0  0  0  0
  1  3  1  1  0  0  0
  1  5  2  0  0  0  0
  1  9  1  0  0  0  0
  1 18  1  0  0  0  0
  2  4  1  6  0  0  0
  2  6  2  0  0  0  0
  2 10  1  0  0  0  0
  2 17  1  0  0  0  0
  7  9  1  0  0  0  0
  8 10  1  0  0  0  0
 11  7  1  6  0  0  0
 11 13  1  0  0  0  0
 11 15  1  0  0  0  0
 12  8  1  6  0  0  0
 12 14  1  0  0  0  0
 12 16  1  0  0  0  0
 13 23  1  0  0  0  0
 14 24  1  0  0  0  0
 15 17  1  1  0  0  0
 15 19  1  0  0  0  0
 16 18  1  1  0  0  0
 16 20  1  0  0  0  0
 19 21  1  1  0  0  0
 19 23  1  0  0  0  0
 20 22  1  1  0  0  0
 20 24  1  0  0  0  0
 23 34  1  6  0  0  0
 24 44  1  6  0  0  0
 25 26  2  0  0  0  0
 25 30  1  0  0  0  0
 26 27  1  0  0  0  0
 27 28  2  0  0  0  0
 28 29  1  0  0  0  0
 28 34  1  0  0  0  0
 29 30  2  0  0  0  0
 29 32  1  0  0  0  0
 30 31  1  0  0  0  0
 32 33  2  0  0  0  0
 33 34  1  0  0  0  0
 35 36  2  0  0  0  0
 35 40  1  0  0  0  0
 36 37  1  0  0  0  0
 37 38  2  0  0  0  0
 38 39  1  0  0  0  0
 38 44  1  0  0  0  0
 39 40  2  0  0  0  0
 39 42  1  0  0  0  0
 40 41  1  0  0  0  0
 42 43  2  0  0  0  0
 43 44  1  0  0  0  0
M  CHG  2   3  -1   4  -1
M  END
>  <CHROM.1>
100.78943624,11.66357956,-8.07044146,35.66317202,-14.80621926,-0.50154702
0.34879198,2.22475015

>  <Name>
ligand

>  <RI>
0

>  <Rbt.Current_Directory>
/home/itssahil/PROJECTS/Mol_Feturizer/New_Systems/rnas/4QLM

>  <Rbt.Executable>
rbdock ($Id: //depot/dev/client3/rdock/2013.1/src/exe/rbdock.cxx#4 $)

>  <Rbt.Library>
libRbt.so (2013.1, Build901 2013/11/27)

>  <Rbt.Parameter_File>
/export/apps/rDock/src/rDock_2013.1_src/data/scripts/dock_solv.prm

>  <Rbt.Receptor>
prm/pocket_docking_4.prm

>  <SCORE>
-12.3001

>  <SCORE.INTER>
-11.6229

>  <SCORE.INTER.CONST>
1

>  <SCORE.INTER.POLAR>
0

>  <SCORE.INTER.ROT>
2

>  <SCORE.INTER.SOLV>
17.7933

>  <SCORE.INTER.VDW>
-18.613

>  <SCORE.INTER.norm>
-0.264157

>  <SCORE.INTRA>
-0.717474

>  <SCORE.INTRA.DIHEDRAL>
-0.0192575

>  <SCORE.INTRA.DIHEDRAL.0>
2.32994

>  <SCORE.INTRA.POLAR>
0

>  <SCORE.INTRA.POLAR.0>
0

>  <SCORE.INTRA.REPUL>
0

>  <SCORE.INTRA.REPUL.0>
0

>  <SCORE.INTRA.SOLV>
1.29969

>  <SCORE.INTRA.SOLV.lig_0>
-117.703

>  <SCORE.INTRA.VDW>
-1.35769

>  <SCORE.INTRA.VDW.0>
-1.59997

>  <SCORE.INTRA.norm>
-0.0163062

>  <SCORE.RESTR>
0.0402612

>  <SCORE.RESTR.CAVITY>
0.0402612

>  <SCORE.RESTR.norm>
0.000915028

>  <SCORE.SYSTEM>
0

>  <SCORE.SYSTEM.CONST>
0

>  <SCORE.SYSTEM.DIHEDRAL>
0

>  <SCORE.SYSTEM.SOLV>
0

>  <SCORE.SYSTEM.norm>
0

>  <SCORE.heavy>
44

>  <SCORE.norm>
-0.279548

>  <RMSD>
3.978

$$$$
ligand
 OpenBabel11021811513D
libRbt.so/2013.1/901 2013/11/27
 44 50  0  0  0  0  0  0  0  0999 V2000
   -8.8843   37.6908  -13.2862 P   0  0  2  0  0  0  0  0  0  0  0  0
   -4.9467   33.9975  -13.5314 P   0  0  1  0  0  0  0  0  0  0  0  0
   -9.9100   37.8402  -12.1655 O   0  5  0  0  0  0  0  0  0  0  0  0
   -4.9519   33.5198  -14.9632 O   0  5  0  0  0  0  0  0  0  0  0  0
   -9.5304   38.2637  -14.5248 O   0  0  0  0  0  0  0  0  0  0  0  0
   -3.6440   33.4824  -12.8783 O   0  0  0  0  0  0  0  0  0  0  0  0
   -8.7367   35.4297  -12.1432 C   0  0  0  0  0  0  0  0  0  0  0  0
   -5.3144   36.2532  -12.3294 C   0  0  0  0  0  0  0  0  0  0  0  0
   -8.5984   36.1567  -13.3715 O   0  0  0  0  0  0  0  0  0  0  0  0
   -5.1782   35.6225  -13.6342 O   0  0  0  0  0  0  0  0  0  0  0  0
   -8.4770   33.9456  -12.3791 C   0  0  1  0  0  0  0  0  0  0  0  0
   -5.3870   37.8041  -12.5959 C   0  0  1  0  0  0  0  0  0  0  0  0
   -9.5811   33.4021  -12.7888 O   0  0  0  0  0  0  0  0  0  0  0  0
   -4.3866   38.0625  -13.3350 O   0  0  0  0  0  0  0  0  0  0  0  0
   -7.4422   33.6842  -13.4492 C   0  0  1  0  0  0  0  0  0  0  0  0
   -6.5789   38.1517  -13.5100 C   0  0  1  0  0  0  0  0  0  0  0  0
   -6.2765   33.4118  -12.8047 O   0  0  0  0  0  0  0  0  0  0  0  0
   -7.6087   38.6372  -12.8059 O   0  0  0  0  0  0  0  0  0  0  0  0
   -7.9773   32.3999  -14.1732 C   0  0  1  0  0  0  0  0  0  0  0  0
   -6.0695   39.1852  -14.5403 C   0  0  1  0  0  0  0  0  0  0  0  0
   -7.2288   31.2014  -13.7075 O   0  0  0  0  0  0  0  0  0  0  0  0
   -6.5222   40.5642  -14.1680 O   0  0  0  0  0  0  0  0  0  0  0  0
   -9.2348   32.3057  -13.8804 C   0  0  2  0  0  0  0  0  0  0  0  0
   -4.7843   39.1190  -14.4697 C   0  0  2  0  0  0  0  0  0  0  0  0
  -10.9494   34.9780  -18.2094 N   0  0  0  0  0  0  0  0  0  0  0  0
   -9.9686   35.3903  -17.3578 C   0  0  0  0  0  0  0  0  0  0  0  0
   -9.6014   34.6306  -16.2764 N   0  0  0  0  0  0  0  0  0  0  0  0
  -10.2378   33.4407  -16.0544 C   0  0  0  0  0  0  0  0  0  0  0  0
  -11.2094   33.0253  -16.8790 C   0  0  0  0  0  0  0  0  0  0  0  0
  -11.5699   33.7988  -17.9810 C   0  0  0  0  0  0  0  0  0  0  0  0
  -12.5697   33.4770  -18.9200 N   0  0  0  0  0  0  0  0  0  0  0  0
  -11.6519   31.8321  -16.4289 N   0  0  0  0  0  0  0  0  0  0  0  0
  -10.9432   31.5185  -15.3071 C   0  0  0  0  0  0  0  0  0  0  0  0
  -10.0594   32.5000  -15.0843 N   0  0  0  0  0  0  0  0  0  0  0  0
   -5.2441   36.6418  -19.0274 N   0  0  0  0  0  0  0  0  0  0  0  0
   -6.2020   36.7757  -18.0730 C   0  0  0  0  0  0  0  0  0  0  0  0
   -5.9173   37.4542  -16.9216 N   0  0  0  0  0  0  0  0  0  0  0  0
   -4.6844   37.9975  -16.7335 C   0  0  0  0  0  0  0  0  0  0  0  0
   -3.7303   37.8726  -17.6782 C   0  0  0  0  0  0  0  0  0  0  0  0
   -4.0277   37.1765  -18.8462 C   0  0  0  0  0  0  0  0  0  0  0  0
   -3.1654   36.9066  -19.9681 N   0  0  0  0  0  0  0  0  0  0  0  0
   -2.6219   38.5024  -17.2201 N   0  0  0  0  0  0  0  0  0  0  0  0
   -2.9022   39.0203  -15.9900 C   0  0  0  0  0  0  0  0  0  0  0  0
   -4.1807   38.7053  -15.6996 N   0  0  0  0  0  0  0  0  0  0  0  0
  1  3  1  1  0  0  0
  1  5  2  0  0  0  0
  1  9  1  0  0  0  0
  1 18  1  0  0  0  0
  2  4  1  6  0  0  0
  2  6  2  0  0  0  0
  2 10  1  0  0  0  0
  2 17  1  0  0  0  0
  7  9  1  0  0  0  0
  8 10  1  0  0  0  0
 11  7  1  6  0  0  0
 11 13  1  0  0  0  0
 11 15  1  0  0  0  0
 12  8  1  6  0  0  0
 12 14  1  0  0  0  0
 12 16  1  0  0  0  0
 13 23  1  0  0  0  0
 14 24  1  0  0  0  0
 15 17  1  1  0  0  0
 15 19  1  0  0  0  0
 16 18  1  1  0  0  0
 16 20  1  0  0  0  0
 19 21  1  1  0  0  0
 19 23  1  0  0  0  0
 20 22  1  1  0  0  0
 20 24  1  0  0  0  0
 23 34  1  6  0  0  0
 24 44  1  6  0  0  0
 25 26  2  0  0  0  0
 25 30  1  0  0  0  0
 26 27  1  0  0  0  0
 27 28  2  0  0  0  0
 28 29  1  0  0  0  0
 28 34  1  0  0  0  0
 29 30  2  0  0  0  0
 29 32  1  0  0  0  0
 30 31  1  0  0  0  0
 32 33  2  0  0  0  0
 33 34  1  0  0  0  0
 35 36  2  0  0  0  0
 35 40  1  0  0  0  0
 36 37  1  0  0  0  0
 37 38  2  0  0  0  0
 38 39  1  0  0  0  0
 38 44  1  0  0  0  0
 39 40  2  0  0  0  0
 39 42  1  0  0  0  0
 40 41  1  0  0  0  0
 42 43  2  0  0  0  0
 43 44  1  0  0  0  0
M  CHG  2   3  -1   4  -1
M  END
>  <CHROM.1>
63.65541935,96.78008238,-7.20853222,35.73567183,-14.94243899,-3.02827805
-0.69967277,-1.41987457

>  <Name>
ligand

>  <RI>
0

>  <Rbt.Current_Directory>
/home/itssahil/PROJECTS/Mol_Feturizer/New_Systems/rnas/4QLM

>  <Rbt.Executable>
rbdock ($Id: //depot/dev/client3/rdock/2013.1/src/exe/rbdock.cxx#4 $)

>  <Rbt.Library>
libRbt.so (2013.1, Build901 2013/11/27)

>  <Rbt.Parameter_File>
/export/apps/rDock/src/rDock_2013.1_src/data/scripts/dock_solv.prm

>  <Rbt.Receptor>
prm/pocket_docking_4.prm

>  <SCORE>
-10.1378

>  <SCORE.INTER>
-9.48944

>  <SCORE.INTER.CONST>
1

>  <SCORE.INTER.POLAR>
0

>  <SCORE.INTER.ROT>
2

>  <SCORE.INTER.SOLV>
24.4271

>  <SCORE.INTER.VDW>
-19.402

>  <SCORE.INTER.norm>
-0.215669

>  <SCORE.INTRA>
-1.10651

>  <SCORE.INTRA.DIHEDRAL>
0.0514908

>  <SCORE.INTRA.DIHEDRAL.0>
2.32994

>  <SCORE.INTRA.POLAR>
0

>  <SCORE.INTRA.POLAR.0>
0

>  <SCORE.INTRA.REPUL>
0

>  <SCORE.INTRA.REPUL.0>
0

>  <SCORE.INTRA.SOLV>
0.0562434

>  <SCORE.INTRA.SOLV.lig_0>
-117.703

>  <SCORE.INTRA.VDW>
-1.16038

>  <SCORE.INTRA.VDW.0>
-1.59997

>  <SCORE.INTRA.norm>
-0.025148

>  <SCORE.RESTR>
0.45814

>  <SCORE.RESTR.CAVITY>
0.45814

>  <SCORE.RESTR.norm>
0.0104123

>  <SCORE.SYSTEM>
0

>  <SCORE.SYSTEM.CONST>
0

>  <SCORE.SYSTEM.DIHEDRAL>
0

>  <SCORE.SYSTEM.SOLV>
0

>  <SCORE.SYSTEM.norm>
0

>  <SCORE.heavy>
44

>  <SCORE.norm>
-0.230405

>  <RMSD>
3.981

$$$$
ligand
 OpenBabel11021811513D
libRbt.so/2013.1/901 2013/11/27
 44 50  0  0  0  0  0  0  0  0999 V2000
   -6.0141   33.7111  -13.1164 P   0  0  2  0  0  0  0  0  0  0  0  0
   -9.8074   37.5385  -13.5260 P   0  0  1  0  0  0  0  0  0  0  0  0
   -4.8699   33.6821  -12.1063 O   0  5  0  0  0  0  0  0  0  0  0  0
   -9.9527   37.7831  -15.0082 O   0  5  0  0  0  0  0  0  0  0  0  0
   -5.5414   32.9140  -14.3083 O   0  0  0  0  0  0  0  0  0  0  0  0
  -11.0030   38.2238  -12.8261 O   0  0  0  0  0  0  0  0  0  0  0  0
   -5.9383   36.1290  -12.3488 C   0  0  0  0  0  0  0  0  0  0  0  0
   -9.3879   35.4834  -12.0196 C   0  0  0  0  0  0  0  0  0  0  0  0
   -6.2485   35.2264  -13.4190 O   0  0  0  0  0  0  0  0  0  0  0  0
   -9.6526   35.9071  -13.3868 O   0  0  0  0  0  0  0  0  0  0  0  0
   -6.1665   37.5696  -12.7939 C   0  0  1  0  0  0  0  0  0  0  0  0
   -9.4072   33.9083  -12.0356 C   0  0  1  0  0  0  0  0  0  0  0  0
   -5.0982   37.9776  -13.4061 O   0  0  0  0  0  0  0  0  0  0  0  0
  -10.4971   33.5941  -12.6077 O   0  0  0  0  0  0  0  0  0  0  0  0
   -7.3094   37.7176  -13.7717 C   0  0  1  0  0  0  0  0  0  0  0  0
   -8.3459   33.3533  -13.0064 C   0  0  1  0  0  0  0  0  0  0  0  0
   -8.3794   38.1545  -13.0558 O   0  0  0  0  0  0  0  0  0  0  0  0
   -7.2598   32.9269  -12.3503 O   0  0  0  0  0  0  0  0  0  0  0  0
   -6.8142   38.8389  -14.7502 C   0  0  1  0  0  0  0  0  0  0  0  0
   -9.0129   32.2009  -13.7915 C   0  0  1  0  0  0  0  0  0  0  0  0
   -7.4557   40.1366  -14.4069 O   0  0  0  0  0  0  0  0  0  0  0  0
   -8.5730   30.8744  -13.2511 O   0  0  0  0  0  0  0  0  0  0  0  0
   -5.5283   38.9060  -14.6171 C   0  0  2  0  0  0  0  0  0  0  0  0
  -10.2772   32.3509  -13.5914 C   0  0  2  0  0  0  0  0  0  0  0  0
   -5.2626   36.4821  -19.3999 N   0  0  0  0  0  0  0  0  0  0  0  0
   -6.3718   36.5674  -18.6128 C   0  0  0  0  0  0  0  0  0  0  0  0
   -6.3361   37.2125  -17.4028 N   0  0  0  0  0  0  0  0  0  0  0  0
   -5.1617   37.7751  -16.9851 C   0  0  0  0  0  0  0  0  0  0  0  0
   -4.0607   37.6932  -17.7450 C   0  0  0  0  0  0  0  0  0  0  0  0
   -4.1080   37.0440  -18.9775 C   0  0  0  0  0  0  0  0  0  0  0  0
   -3.0268   36.8891  -19.8675 N   0  0  0  0  0  0  0  0  0  0  0  0
   -3.0627   38.3313  -17.0976 N   0  0  0  0  0  0  0  0  0  0  0  0
   -3.5622   38.8038  -15.9201 C   0  0  0  0  0  0  0  0  0  0  0  0
   -4.8597   38.4773  -15.8566 N   0  0  0  0  0  0  0  0  0  0  0  0
  -12.9154   35.7078  -16.5733 N   0  0  0  0  0  0  0  0  0  0  0  0
  -12.3541   35.9615  -15.3621 C   0  0  0  0  0  0  0  0  0  0  0  0
  -11.6973   34.9626  -14.7003 N   0  0  0  0  0  0  0  0  0  0  0  0
  -11.6005   33.7231  -15.2523 C   0  0  0  0  0  0  0  0  0  0  0  0
  -12.1511   33.4653  -16.4559 C   0  0  0  0  0  0  0  0  0  0  0  0
  -12.8217   34.4874  -17.1213 C   0  0  0  0  0  0  0  0  0  0  0  0
  -13.4943   34.4327  -18.3940 N   0  0  0  0  0  0  0  0  0  0  0  0
  -11.9013   32.1658  -16.7456 N   0  0  0  0  0  0  0  0  0  0  0  0
  -11.1887   31.6275  -15.7149 C   0  0  0  0  0  0  0  0  0  0  0  0
  -11.0053   32.5991  -14.7982 N   0  0  0  0  0  0  0  0  0  0  0  0
  1  3  1  1  0  0  0
  1  5  2  0  0  0  0
  1  9  1  0  0  0  0
  1 18  1  0  0  0  0
  2  4  1  6  0  0  0
  2  6  2  0  0  0  0
  2 10  1  0  0  0  0
  2 17  1  0  0  0  0
  7  9  1  0  0  0  0
  8 10  1  0  0  0  0
 11  7  1  6  0  0  0
 11 13  1  0  0  0  0
 11 15  1  0  0  0  0
 12  8  1  6  0  0  0
 12 14  1  0  0  0  0
 12 16  1  0  0  0  0
 13 23  1  0  0  0  0
 14 24  1  0  0  0  0
 15 17  1  1  0  0  0
 15 19  1  0  0  0  0
 16 18  1  1  0  0  0
 16 20  1  0  0  0  0
 19 21  1  1  0  0  0
 19 23  1  0  0  0  0
 20 22  1  1  0  0  0
 20 24  1  0  0  0  0
 23 34  1  6  0  0  0
 24 44  1  6  0  0  0
 25 26  2  0  0  0  0
 25 30  1  0  0  0  0
 26 27  1  0  0  0  0
 27 28  2  0  0  0  0
 28 29  1  0  0  0  0
 28 34  1  0  0  0  0
 29 30  2  0  0  0  0
 29 32  1  0  0  0  0
 30 31  1  0  0  0  0
 32 33  2  0  0  0  0
 33 34  1  0  0  0  0
 35 36  2  0  0  0  0
 35 40  1  0  0  0  0
 36 37  1  0  0  0  0
 37 38  2  0  0  0  0
 38 39  1  0  0  0  0
 38 44  1  0  0  0  0
 39 40  2  0  0  0  0
 39 42  1  0  0  0  0
 40 41  1  0  0  0  0
 42 43  2  0  0  0  0
 43 44  1  0  0  0  0
M  CHG  2   3  -1   4  -1
M  END
>  <CHROM.1>
102.04058097,11.69527509,-8.05753817,35.66586200,-14.77932774,-0.49954131
0.34514246,2.22133858

>  <Name>
ligand

>  <RI>
0

>  <Rbt.Current_Directory>
/home/itssahil/PROJECTS/Mol_Feturizer/New_Systems/rnas/4QLM

>  <Rbt.Executable>
rbdock ($Id: //depot/dev/client3/rdock/2013.1/src/exe/rbdock.cxx#4 $)

>  <Rbt.Library>
libRbt.so (2013.1, Build901 2013/11/27)

>  <Rbt.Parameter_File>
/export/apps/rDock/src/rDock_2013.1_src/data/scripts/dock_solv.prm

>  <Rbt.Receptor>
prm/pocket_docking_4.prm

>  <SCORE>
-12.1694

>  <SCORE.INTER>
-11.5215

>  <SCORE.INTER.CONST>
1

>  <SCORE.INTER.POLAR>
0

>  <SCORE.INTER.ROT>
2

>  <SCORE.INTER.SOLV>
17.7321

>  <SCORE.INTER.VDW>
-18.525

>  <SCORE.INTER.norm>
-0.261853

>  <SCORE.INTRA>
-0.684416

>  <SCORE.INTRA.DIHEDRAL>
-0.0149358

>  <SCORE.INTRA.DIHEDRAL.0>
2.32994

>  <SCORE.INTRA.POLAR>
0

>  <SCORE.INTRA.POLAR.0>
0

>  <SCORE.INTRA.REPUL>
0

>  <SCORE.INTRA.REPUL.0>
0

>  <SCORE.INTRA.SOLV>
1.30124

>  <SCORE.INTRA.SOLV.lig_0>
-117.703

>  <SCORE.INTRA.VDW>
-1.32757

>  <SCORE.INTRA.VDW.0>
-1.59997

>  <SCORE.INTRA.norm>
-0.0155549

>  <SCORE.RESTR>
0.0365903

>  <SCORE.RESTR.CAVITY>
0.0365903

>  <SCORE.RESTR.norm>
0.000831597

>  <SCORE.SYSTEM>
0

>  <SCORE.SYSTEM.CONST>
0

>  <SCORE.SYSTEM.DIHEDRAL>
0

>  <SCORE.SYSTEM.SOLV>
0

>  <SCORE.SYSTEM.norm>
0

>  <SCORE.heavy>
44

>  <SCORE.norm>
-0.276577

>  <RMSD>
3.984

$$$$
ligand
 OpenBabel11021811513D
libRbt.so/2013.1/901 2013/11/27
 44 50  0  0  0  0  0  0  0  0999 V2000
   -8.5420   38.2187  -13.1349 P   0  0  2  0  0  0  0  0  0  0  0  0
   -5.3061   33.9351  -13.7561 P   0  0  1  0  0  0  0  0  0  0  0  0
   -9.5155   38.4519  -11.9823 O   0  5  0  0  0  0  0  0  0  0  0  0
   -5.4077   33.5817  -15.2200 O   0  5  0  0  0  0  0  0  0  0  0  0
   -9.0909   38.9913  -14.3101 O   0  0  0  0  0  0  0  0  0  0  0  0
   -4.1060   33.1532  -13.1753 O   0  0  0  0  0  0  0  0  0  0  0  0
   -8.7772   35.8817  -12.1735 C   0  0  0  0  0  0  0  0  0  0  0  0
   -5.2660   36.1169  -12.3754 C   0  0  0  0  0  0  0  0  0  0  0  0
   -8.5270   36.6700  -13.3449 O   0  0  0  0  0  0  0  0  0  0  0  0
   -5.2536   35.5787  -13.7277 O   0  0  0  0  0  0  0  0  0  0  0  0
   -8.7807   34.3988  -12.5293 C   0  0  1  0  0  0  0  0  0  0  0  0
   -5.0715   37.6735  -12.5196 C   0  0  1  0  0  0  0  0  0  0  0  0
   -9.9662   34.0877  -12.9539 O   0  0  0  0  0  0  0  0  0  0  0  0
   -4.0485   37.8145  -13.2597 O   0  0  0  0  0  0  0  0  0  0  0  0
   -7.8172   34.0500  -13.6402 C   0  0  1  0  0  0  0  0  0  0  0  0
   -6.1939   38.2929  -13.3761 C   0  0  1  0  0  0  0  0  0  0  0  0
   -6.7102   33.5305  -13.0460 O   0  0  0  0  0  0  0  0  0  0  0  0
   -7.1171   38.8902  -12.6128 O   0  0  0  0  0  0  0  0  0  0  0  0
   -8.5737   32.9388  -14.4485 C   0  0  1  0  0  0  0  0  0  0  0  0
   -5.5231   39.3025  -14.3351 C   0  0  1  0  0  0  0  0  0  0  0  0
   -8.0395   31.5962  -14.0943 O   0  0  0  0  0  0  0  0  0  0  0  0
   -5.7265   40.7045  -13.8470 O   0  0  0  0  0  0  0  0  0  0  0  0
   -9.8255   33.0391  -14.1346 C   0  0  2  0  0  0  0  0  0  0  0  0
   -4.2682   39.0109  -14.2998 C   0  0  2  0  0  0  0  0  0  0  0  0
  -13.3606   32.3603  -18.1176 N   0  0  0  0  0  0  0  0  0  0  0  0
  -13.0147   31.4205  -17.1932 C   0  0  0  0  0  0  0  0  0  0  0  0
  -12.0981   31.6947  -16.2103 N   0  0  0  0  0  0  0  0  0  0  0  0
  -11.5237   32.9350  -16.1659 C   0  0  0  0  0  0  0  0  0  0  0  0
  -11.8484   33.8674  -17.0724 C   0  0  0  0  0  0  0  0  0  0  0  0
  -12.7878   33.5836  -18.0622 C   0  0  0  0  0  0  0  0  0  0  0  0
  -13.2149   34.4712  -19.0695 N   0  0  0  0  0  0  0  0  0  0  0  0
  -11.1426   34.9828  -16.7897 N   0  0  0  0  0  0  0  0  0  0  0  0
  -10.3694   34.7235  -15.6969 C   0  0  0  0  0  0  0  0  0  0  0  0
  -10.6155   33.4680  -15.3004 N   0  0  0  0  0  0  0  0  0  0  0  0
   -5.1821   36.9565  -18.9971 N   0  0  0  0  0  0  0  0  0  0  0  0
   -6.0907   37.1642  -18.0083 C   0  0  0  0  0  0  0  0  0  0  0  0
   -5.6852   37.7101  -16.8230 N   0  0  0  0  0  0  0  0  0  0  0  0
   -4.3813   38.0491  -16.6353 C   0  0  0  0  0  0  0  0  0  0  0  0
   -3.4750   37.8501  -17.6137 C   0  0  0  0  0  0  0  0  0  0  0  0
   -3.8959   37.2900  -18.8164 C   0  0  0  0  0  0  0  0  0  0  0  0
   -3.1055   36.9743  -19.9786 N   0  0  0  0  0  0  0  0  0  0  0  0
   -2.2759   38.2740  -17.1474 N   0  0  0  0  0  0  0  0  0  0  0  0
   -2.4516   38.7401  -15.8778 C   0  0  0  0  0  0  0  0  0  0  0  0
   -3.7572   38.5995  -15.5717 N   0  0  0  0  0  0  0  0  0  0  0  0
  1  3  1  1  0  0  0
  1  5  2  0  0  0  0
  1  9  1  0  0  0  0
  1 18  1  0  0  0  0
  2  4  1  6  0  0  0
  2  6  2  0  0  0  0
  2 10  1  0  0  0  0
  2 17  1  0  0  0  0
  7  9  1  0  0  0  0
  8 10  1  0  0  0  0
 11  7  1  6  0  0  0
 11 13  1  0  0  0  0
 11 15  1  0  0  0  0
 12  8  1  6  0  0  0
 12 14  1  0  0  0  0
 12 16  1  0  0  0  0
 13 23  1  0  0  0  0
 14 24  1  0  0  0  0
 15 17  1  1  0  0  0
 15 19  1  0  0  0  0
 16 18  1  1  0  0  0
 16 20  1  0  0  0  0
 19 21  1  1  0  0  0
 19 23  1  0  0  0  0
 20 22  1  1  0  0  0
 20 24  1  0  0  0  0
 23 34  1  6  0  0  0
 24 44  1  6  0  0  0
 25 26  2  0  0  0  0
 25 30  1  0  0  0  0
 26 27  1  0  0  0  0
 27 28  2  0  0  0  0
 28 29  1  0  0  0  0
 28 34  1  0  0  0  0
 29 30  2  0  0  0  0
 29 32  1  0  0  0  0
 30 31  1  0  0  0  0
 32 33  2  0  0  0  0
 33 34  1  0  0  0  0
 35 36  2  0  0  0  0
 35 40  1  0  0  0  0
 36 37  1  0  0  0  0
 37 38  2  0  0  0  0
 38 39  1  0  0  0  0
 38 44  1  0  0  0  0
 39 40  2  0  0  0  0
 39 42  1  0  0  0  0
 40 41  1  0  0  0  0
 42 43  2  0  0  0  0
 43 44  1  0  0  0  0
M  CHG  2   3  -1   4  -1
M  END
>  <CHROM.1>
-131.30792376,95.26484344,-7.39160817,35.86853936,-14.97381796,0.20056114
0.58232886,1.40032446

>  <Name>
ligand

>  <RI>
0

>  <Rbt.Current_Directory>
/home/itssahil/PROJECTS/Mol_Feturizer/New_Systems/rnas/4QLM

>  <Rbt.Executable>
rbdock ($Id: //depot/dev/client3/rdock/2013.1/src/exe/rbdock.cxx#4 $)

>  <Rbt.Library>
libRbt.so (2013.1, Build901 2013/11/27)

>  <Rbt.Parameter_File>
/export/apps/rDock/src/rDock_2013.1_src/data/scripts/dock_solv.prm

>  <Rbt.Receptor>
prm/pocket_docking_5.prm

>  <SCORE>
-9.10597

>  <SCORE.INTER>
-9.25183

>  <SCORE.INTER.CONST>
1

>  <SCORE.INTER.POLAR>
0

>  <SCORE.INTER.ROT>
2

>  <SCORE.INTER.SOLV>
18.9607

>  <SCORE.INTER.VDW>
-17.4214

>  <SCORE.INTER.norm>
-0.210269

>  <SCORE.INTRA>
0.118954

>  <SCORE.INTRA.DIHEDRAL>
0.0299336

>  <SCORE.INTRA.DIHEDRAL.0>
2.32994

>  <SCORE.INTRA.POLAR>
0

>  <SCORE.INTRA.POLAR.0>
0

>  <SCORE.INTRA.REPUL>
0

>  <SCORE.INTRA.REPUL.0>
0

>  <SCORE.INTRA.SOLV>
0.0216347

>  <SCORE.INTRA.SOLV.lig_0>
-117.703

>  <SCORE.INTRA.VDW>
0.0931697

>  <SCORE.INTRA.VDW.0>
-1.59997

>  <SCORE.INTRA.norm>
0.0027035

>  <SCORE.RESTR>
0.0269034

>  <SCORE.RESTR.CAVITY>
0.0269034

>  <SCORE.RESTR.norm>
0.00061144

>  <SCORE.SYSTEM>
0

>  <SCORE.SYSTEM.CONST>
0

>  <SCORE.SYSTEM.DIHEDRAL>
0

>  <SCORE.SYSTEM.SOLV>
0

>  <SCORE.SYSTEM.norm>
0

>  <SCORE.heavy>
44

>  <SCORE.norm>
-0.206954

>  <RMSD>
3.991

$$$$
ligand
 OpenBabel11021811513D
libRbt.so/2013.1/901 2013/11/27
 44 50  0  0  0  0  0  0  0  0999 V2000
   -6.2148   33.8563  -12.8235 P   0  0  2  0  0  0  0  0  0  0  0  0
  -10.1813   37.4666  -13.4853 P   0  0  1  0  0  0  0  0  0  0  0  0
   -5.1062   33.9188  -11.7759 O   0  5  0  0  0  0  0  0  0  0  0  0
  -10.2875   37.6563  -14.9789 O   0  5  0  0  0  0  0  0  0  0  0  0
   -5.6611   33.0476  -13.9720 O   0  0  0  0  0  0  0  0  0  0  0  0
  -11.4338   38.1107  -12.8486 O   0  0  0  0  0  0  0  0  0  0  0  0
   -6.2886   36.2980  -12.1350 C   0  0  0  0  0  0  0  0  0  0  0  0
   -9.7103   35.4847  -11.8983 C   0  0  0  0  0  0  0  0  0  0  0  0
   -6.5153   35.3471  -13.1841 O   0  0  0  0  0  0  0  0  0  0  0  0
   -9.9487   35.8506  -13.2868 O   0  0  0  0  0  0  0  0  0  0  0  0
   -6.5742   37.7100  -12.6351 C   0  0  1  0  0  0  0  0  0  0  0  0
   -9.6489   33.9111  -11.8623 C   0  0  1  0  0  0  0  0  0  0  0  0
   -5.5076   38.1534  -13.2250 O   0  0  0  0  0  0  0  0  0  0  0  0
  -10.7010   33.5227  -12.4593 O   0  0  0  0  0  0  0  0  0  0  0  0
   -7.6887   37.7674  -13.6544 C   0  0  1  0  0  0  0  0  0  0  0  0
   -8.5277   33.3815  -12.7785 C   0  0  1  0  0  0  0  0  0  0  0  0
   -8.8037   38.1705  -12.9892 O   0  0  0  0  0  0  0  0  0  0  0  0
   -7.4447   33.0330  -12.0731 O   0  0  0  0  0  0  0  0  0  0  0  0
   -7.2175   38.8814  -14.6530 C   0  0  1  0  0  0  0  0  0  0  0  0
   -9.1077   32.1718  -13.5463 C   0  0  1  0  0  0  0  0  0  0  0  0
   -7.9357   40.1542  -14.3744 O   0  0  0  0  0  0  0  0  0  0  0  0
   -8.6199   30.8876  -12.9478 O   0  0  0  0  0  0  0  0  0  0  0  0
   -5.9421   39.0194  -14.4799 C   0  0  2  0  0  0  0  0  0  0  0  0
  -10.3842   32.2621  -13.3932 C   0  0  2  0  0  0  0  0  0  0  0  0
   -5.4211   36.5576  -19.2222 N   0  0  0  0  0  0  0  0  0  0  0  0
   -6.5679   36.6382  -18.4904 C   0  0  0  0  0  0  0  0  0  0  0  0
   -6.5972   37.2940  -17.2860 N   0  0  0  0  0  0  0  0  0  0  0  0
   -5.4500   37.8722  -16.8171 C   0  0  0  0  0  0  0  0  0  0  0  0
   -4.3127   37.7951  -17.5220 C   0  0  0  0  0  0  0  0  0  0  0  0
   -4.2938   37.1350  -18.7495 C   0  0  0  0  0  0  0  0  0  0  0  0
   -3.1693   36.9836  -19.5847 N   0  0  0  0  0  0  0  0  0  0  0  0
   -3.3537   38.4490  -16.8329 N   0  0  0  0  0  0  0  0  0  0  0  0
   -3.9142   38.9263  -15.6852 C   0  0  0  0  0  0  0  0  0  0  0  0
   -5.2100   38.5871  -15.6816 N   0  0  0  0  0  0  0  0  0  0  0  0
  -13.1964   35.3403  -16.5135 N   0  0  0  0  0  0  0  0  0  0  0  0
  -12.7115   35.6527  -15.2833 C   0  0  0  0  0  0  0  0  0  0  0  0
  -11.9928   34.7234  -14.5852 N   0  0  0  0  0  0  0  0  0  0  0  0
  -11.7591   33.4948  -15.1202 C   0  0  0  0  0  0  0  0  0  0  0  0
  -12.2334   33.1793  -16.3424 C   0  0  0  0  0  0  0  0  0  0  0  0
  -12.9676   34.1304  -17.0448 C   0  0  0  0  0  0  0  0  0  0  0  0
  -13.5792   34.0052  -18.3430 N   0  0  0  0  0  0  0  0  0  0  0  0
  -11.8526   31.9068  -16.6085 N   0  0  0  0  0  0  0  0  0  0  0  0
  -11.1364   31.4436  -15.5444 C   0  0  0  0  0  0  0  0  0  0  0  0
  -11.0817   32.4339  -14.6309 N   0  0  0  0  0  0  0  0  0  0  0  0
  1  3  1  1  0  0  0
  1  5  2  0  0  0  0
  1  9  1  0  0  0  0
  1 18  1  0  0  0  0
  2  4  1  6  0  0  0
  2  6  2  0  0  0  0
  2 10  1  0  0  0  0
  2 17  1  0  0  0  0
  7  9  1  0  0  0  0
  8 10  1  0  0  0  0
 11  7  1  6  0  0  0
 11 13  1  0  0  0  0
 11 15  1  0  0  0  0
 12  8  1  6  0  0  0
 12 14  1  0  0  0  0
 12 16  1  0  0  0  0
 13 23  1  0  0  0  0
 14 24  1  0  0  0  0
 15 17  1  1  0  0  0
 15 19  1  0  0  0  0
 16 18  1  1  0  0  0
 16 20  1  0  0  0  0
 19 21  1  1  0  0  0
 19 23  1  0  0  0  0
 20 22  1  1  0  0  0
 20 24  1  0  0  0  0
 23 34  1  6  0  0  0
 24 44  1  6  0  0  0
 25 26  2  0  0  0  0
 25 30  1  0  0  0  0
 26 27  1  0  0  0  0
 27 28  2  0  0  0  0
 28 29  1  0  0  0  0
 28 34  1  0  0  0  0
 29 30  2  0  0  0  0
 29 32  1  0  0  0  0
 30 31  1  0  0  0  0
 32 33  2  0  0  0  0
 33 34  1  0  0  0  0
 35 36  2  0  0  0  0
 35 40  1  0  0  0  0
 36 37  1  0  0  0  0
 37 38  2  0  0  0  0
 38 39  1  0  0  0  0
 38 44  1  0  0  0  0
 39 40  2  0  0  0  0
 39 42  1  0  0  0  0
 40 41  1  0  0  0  0
 42 43  2  0  0  0  0
 43 44  1  0  0  0  0
M  CHG  2   3  -1   4  -1
M  END
>  <CHROM.1>
104.89805389,8.91747990,-8.30713580,35.65188742,-14.61653080,-0.50417112
0.40215146,2.19322675

>  <Name>
ligand

>  <RI>
0

>  <Rbt.Current_Directory>
/home/itssahil/PROJECTS/Mol_Feturizer/New_Systems/rnas/4QLM

>  <Rbt.Executable>
rbdock ($Id: //depot/dev/client3/rdock/2013.1/src/exe/rbdock.cxx#4 $)

>  <Rbt.Library>
libRbt.so (2013.1, Build901 2013/11/27)

>  <Rbt.Parameter_File>
/export/apps/rDock/src/rDock_2013.1_src/data/scripts/dock_solv.prm

>  <Rbt.Receptor>
prm/pocket_docking_5.prm

>  <SCORE>
-13.2272

>  <SCORE.INTER>
-12.5005

>  <SCORE.INTER.CONST>
1

>  <SCORE.INTER.POLAR>
0

>  <SCORE.INTER.ROT>
2

>  <SCORE.INTER.SOLV>
17.1271

>  <SCORE.INTER.VDW>
-18.9761

>  <SCORE.INTER.norm>
-0.284103

>  <SCORE.INTRA>
-0.727285

>  <SCORE.INTRA.DIHEDRAL>
-0.0024337

>  <SCORE.INTRA.DIHEDRAL.0>
2.32994

>  <SCORE.INTRA.POLAR>
0

>  <SCORE.INTRA.POLAR.0>
0

>  <SCORE.INTRA.REPUL>
0

>  <SCORE.INTRA.REPUL.0>
0

>  <SCORE.INTRA.SOLV>
1.16703

>  <SCORE.INTRA.SOLV.lig_0>
-117.703

>  <SCORE.INTRA.VDW>
-1.30958

>  <SCORE.INTRA.VDW.0>
-1.59997

>  <SCORE.INTRA.norm>
-0.0165292

>  <SCORE.RESTR>
0.000635738

>  <SCORE.RESTR.CAVITY>
0.000635738

>  <SCORE.RESTR.norm>
1.44486e-05

>  <SCORE.SYSTEM>
0

>  <SCORE.SYSTEM.CONST>
0

>  <SCORE.SYSTEM.DIHEDRAL>
0

>  <SCORE.SYSTEM.SOLV>
0

>  <SCORE.SYSTEM.norm>
0

>  <SCORE.heavy>
44

>  <SCORE.norm>
-0.300618

>  <RMSD>
3.996

$$$$
ligand
 OpenBabel11021811513D
libRbt.so/2013.1/901 2013/11/27
 44 50  0  0  0  0  0  0  0  0999 V2000
   -6.2313   33.9568  -12.8076 P   0  0  2  0  0  0  0  0  0  0  0  0
  -10.2044   37.5453  -13.5444 P   0  0  1  0  0  0  0  0  0  0  0  0
   -5.1271   34.0394  -11.7567 O   0  5  0  0  0  0  0  0  0  0  0  0
  -10.3050   37.7103  -15.0413 O   0  5  0  0  0  0  0  0  0  0  0  0
   -5.6709   33.1309  -13.9404 O   0  0  0  0  0  0  0  0  0  0  0  0
  -11.4611   38.1964  -12.9233 O   0  0  0  0  0  0  0  0  0  0  0  0
   -6.3142   36.4092  -12.1595 C   0  0  0  0  0  0  0  0  0  0  0  0
   -9.7347   35.5910  -11.9232 C   0  0  0  0  0  0  0  0  0  0  0  0
   -6.5342   35.4407  -13.1938 O   0  0  0  0  0  0  0  0  0  0  0  0
   -9.9684   35.9334  -13.3184 O   0  0  0  0  0  0  0  0  0  0  0  0
   -6.6014   37.8121  -12.6838 C   0  0  1  0  0  0  0  0  0  0  0  0
   -9.6694   34.0183  -11.8612 C   0  0  1  0  0  0  0  0  0  0  0  0
   -5.5335   38.2486  -13.2766 O   0  0  0  0  0  0  0  0  0  0  0  0
  -10.7180   33.6174  -12.4559 O   0  0  0  0  0  0  0  0  0  0  0  0
   -7.7119   37.8499  -13.7084 C   0  0  1  0  0  0  0  0  0  0  0  0
   -8.5431   33.4767  -12.7641 C   0  0  1  0  0  0  0  0  0  0  0  0
   -8.8306   38.2609  -13.0543 O   0  0  0  0  0  0  0  0  0  0  0  0
   -7.4621   33.1427  -12.0487 O   0  0  0  0  0  0  0  0  0  0  0  0
   -7.2396   38.9486  -14.7232 C   0  0  1  0  0  0  0  0  0  0  0  0
   -9.1169   32.2531  -13.5143 C   0  0  1  0  0  0  0  0  0  0  0  0
   -7.9621   40.2239  -14.4684 O   0  0  0  0  0  0  0  0  0  0  0  0
   -8.6282   30.9802  -12.8929 O   0  0  0  0  0  0  0  0  0  0  0  0
   -5.9652   39.0928  -14.5473 C   0  0  2  0  0  0  0  0  0  0  0  0
  -10.3942   32.3425  -13.3677 C   0  0  2  0  0  0  0  0  0  0  0  0
   -5.4112   36.5323  -19.2332 N   0  0  0  0  0  0  0  0  0  0  0  0
   -6.5593   36.6151  -18.5038 C   0  0  0  0  0  0  0  0  0  0  0  0
   -6.5974   37.2972  -17.3143 N   0  0  0  0  0  0  0  0  0  0  0  0
   -5.4577   37.8998  -16.8581 C   0  0  0  0  0  0  0  0  0  0  0  0
   -4.3191   37.8210  -17.5608 C   0  0  0  0  0  0  0  0  0  0  0  0
   -4.2914   37.1339  -18.7732 C   0  0  0  0  0  0  0  0  0  0  0  0
   -3.1647   36.9778  -19.6045 N   0  0  0  0  0  0  0  0  0  0  0  0
   -3.3686   38.5019  -16.8862 N   0  0  0  0  0  0  0  0  0  0  0  0
   -3.9357   38.9978  -15.7496 C   0  0  0  0  0  0  0  0  0  0  0  0
   -5.2271   38.6428  -15.7388 N   0  0  0  0  0  0  0  0  0  0  0  0
  -13.1923   35.3654  -16.5541 N   0  0  0  0  0  0  0  0  0  0  0  0
  -12.7114   35.7000  -15.3281 C   0  0  0  0  0  0  0  0  0  0  0  0
  -11.9962   34.7830  -14.6105 N   0  0  0  0  0  0  0  0  0  0  0  0
  -11.7618   33.5445  -15.1220 C   0  0  0  0  0  0  0  0  0  0  0  0
  -12.2320   33.2070  -16.3399 C   0  0  0  0  0  0  0  0  0  0  0  0
  -12.9629   34.1458  -17.0623 C   0  0  0  0  0  0  0  0  0  0  0  0
  -13.5700   33.9973  -18.3601 N   0  0  0  0  0  0  0  0  0  0  0  0
  -11.8516   31.9295  -16.5812 N   0  0  0  0  0  0  0  0  0  0  0  0
  -11.1397   31.4853  -15.5061 C   0  0  0  0  0  0  0  0  0  0  0  0
  -11.0872   32.4921  -14.6109 N   0  0  0  0  0  0  0  0  0  0  0  0
  1  3  1  1  0  0  0
  1  5  2  0  0  0  0
  1  9  1  0  0  0  0
  1 18  1  0  0  0  0
  2  4  1  6  0  0  0
  2  6  2  0  0  0  0
  2 10  1  0  0  0  0
  2 17  1  0  0  0  0
  7  9  1  0  0  0  0
  8 10  1  0  0  0  0
 11  7  1  6  0  0  0
 11 13  1  0  0  0  0
 11 15  1  0  0  0  0
 12  8  1  6  0  0  0
 12 14  1  0  0  0  0
 12 16  1  0  0  0  0
 13 23  1  0  0  0  0
 14 24  1  0  0  0  0
 15 17  1  1  0  0  0
 15 19  1  0  0  0  0
 16 18  1  1  0  0  0
 16 20  1  0  0  0  0
 19 21  1  1  0  0  0
 19 23  1  0  0  0  0
 20 22  1  1  0  0  0
 20 24  1  0  0  0  0
 23 34  1  6  0  0  0
 24 44  1  6  0  0  0
 25 26  2  0  0  0  0
 25 30  1  0  0  0  0
 26 27  1  0  0  0  0
 27 28  2  0  0  0  0
 28 29  1  0  0  0  0
 28 34  1  0  0  0  0
 29 30  2  0  0  0  0
 29 32  1  0  0  0  0
 30 31  1  0  0  0  0
 32 33  2  0  0  0  0
 33 34  1  0  0  0  0
 35 36  2  0  0  0  0
 35 40  1  0  0  0  0
 36 37  1  0  0  0  0
 37 38  2  0  0  0  0
 38 39  1  0  0  0  0
 38 44  1  0  0  0  0
 39 40  2  0  0  0  0
 39 42  1  0  0  0  0
 40 41  1  0  0  0  0
 42 43  2  0  0  0  0
 43 44  1  0  0  0  0
M  CHG  2   3  -1   4  -1
M  END
>  <CHROM.1>
104.21488248,9.15387286,-8.31971674,35.71604187,-14.63761941,-0.50167120
0.40656479,2.17640664

>  <Name>
ligand

>  <RI>
0

>  <Rbt.Current_Directory>
/home/itssahil/PROJECTS/Mol_Feturizer/New_Systems/rnas/4QLM

>  <Rbt.Executable>
rbdock ($Id: //depot/dev/client3/rdock/2013.1/src/exe/rbdock.cxx#4 $)

>  <Rbt.Library>
libRbt.so (2013.1, Build901 2013/11/27)

>  <Rbt.Parameter_File>
/export/apps/rDock/src/rDock_2013.1_src/data/scripts/dock_solv.prm

>  <Rbt.Receptor>
prm/pocket_docking_6.prm

>  <SCORE>
-13.3718

>  <SCORE.INTER>
-12.6243

>  <SCORE.INTER.CONST>
1

>  <SCORE.INTER.POLAR>
0

>  <SCORE.INTER.ROT>
2

>  <SCORE.INTER.SOLV>
16.9735

>  <SCORE.INTER.VDW>
-19.0074

>  <SCORE.INTER.norm>
-0.286917

>  <SCORE.INTRA>
-0.747453

>  <SCORE.INTRA.DIHEDRAL>
-0.00536491

>  <SCORE.INTRA.DIHEDRAL.0>
2.32994

>  <SCORE.INTRA.POLAR>
0

>  <SCORE.INTRA.POLAR.0>
0

>  <SCORE.INTRA.REPUL>
0

>  <SCORE.INTRA.REPUL.0>
0

>  <SCORE.INTRA.SOLV>
1.17912

>  <SCORE.INTRA.SOLV.lig_0>
-117.703

>  <SCORE.INTRA.VDW>
-1.33433

>  <SCORE.INTRA.VDW.0>
-1.59997

>  <SCORE.INTRA.norm>
-0.0169876

>  <SCORE.RESTR>
0

>  <SCORE.RESTR.CAVITY>
0

>  <SCORE.RESTR.norm>
0

>  <SCORE.SYSTEM>
0

>  <SCORE.SYSTEM.CONST>
0

>  <SCORE.SYSTEM.DIHEDRAL>
0

>  <SCORE.SYSTEM.SOLV>
0

>  <SCORE.SYSTEM.norm>
0

>  <SCORE.heavy>
44

>  <SCORE.norm>
-0.303905

>  <RMSD>
3.999

$$$$
ligand
 OpenBabel11021811513D
libRbt.so/2013.1/901 2013/11/27
 44 50  0  0  0  0  0  0  0  0999 V2000
   -6.2370   33.9698  -12.8055 P   0  0  2  0  0  0  0  0  0  0  0  0
  -10.1934   37.5734  -13.5581 P   0  0  1  0  0  0  0  0  0  0  0  0
   -5.1344   34.0502  -11.7527 O   0  5  0  0  0  0  0  0  0  0  0  0
  -10.2906   37.7352  -15.0556 O   0  5  0  0  0  0  0  0  0  0  0  0
   -5.6780   33.1388  -13.9353 O   0  0  0  0  0  0  0  0  0  0  0  0
  -11.4485   38.2313  -12.9409 O   0  0  0  0  0  0  0  0  0  0  0  0
   -6.3106   36.4241  -12.1633 C   0  0  0  0  0  0  0  0  0  0  0  0
   -9.7350   35.6209  -11.9314 C   0  0  0  0  0  0  0  0  0  0  0  0
   -6.5329   35.4540  -13.1957 O   0  0  0  0  0  0  0  0  0  0  0  0
   -9.9647   35.9611  -13.3279 O   0  0  0  0  0  0  0  0  0  0  0  0
   -6.5909   37.8270  -12.6915 C   0  0  1  0  0  0  0  0  0  0  0  0
   -9.6765   34.0481  -11.8656 C   0  0  1  0  0  0  0  0  0  0  0  0
   -5.5201   38.2575  -13.2834 O   0  0  0  0  0  0  0  0  0  0  0  0
  -10.7258   33.6503  -12.4613 O   0  0  0  0  0  0  0  0  0  0  0  0
   -7.6993   37.8670  -13.7182 C   0  0  1  0  0  0  0  0  0  0  0  0
   -8.5509   33.4996  -12.7651 C   0  0  1  0  0  0  0  0  0  0  0  0
   -8.8175   38.2843  -13.0672 O   0  0  0  0  0  0  0  0  0  0  0  0
   -7.4727   33.1628  -12.0470 O   0  0  0  0  0  0  0  0  0  0  0  0
   -7.2205   38.9613  -14.7348 C   0  0  1  0  0  0  0  0  0  0  0  0
   -9.1285   32.2767  -13.5135 C   0  0  1  0  0  0  0  0  0  0  0  0
   -7.9381   40.2403  -14.4844 O   0  0  0  0  0  0  0  0  0  0  0  0
   -8.6464   31.0032  -12.8881 O   0  0  0  0  0  0  0  0  0  0  0  0
   -5.9459   39.1005  -14.5568 C   0  0  2  0  0  0  0  0  0  0  0  0
  -10.4057   32.3719  -13.3695 C   0  0  2  0  0  0  0  0  0  0  0  0
   -5.4049   36.5601  -19.2552 N   0  0  0  0  0  0  0  0  0  0  0  0
   -6.5566   36.6595  -18.5335 C   0  0  0  0  0  0  0  0  0  0  0  0
   -6.5908   37.3346  -17.3400 N   0  0  0  0  0  0  0  0  0  0  0  0
   -5.4435   37.9131  -16.8717 C   0  0  0  0  0  0  0  0  0  0  0  0
   -4.3015   37.8177  -17.5667 C   0  0  0  0  0  0  0  0  0  0  0  0
   -4.2776   37.1380  -18.7833 C   0  0  0  0  0  0  0  0  0  0  0  0
   -3.1479   36.9663  -19.6074 N   0  0  0  0  0  0  0  0  0  0  0  0
   -3.3435   38.4766  -16.8808 N   0  0  0  0  0  0  0  0  0  0  0  0
   -3.9097   38.9756  -15.7451 C   0  0  0  0  0  0  0  0  0  0  0  0
   -5.2075   38.6445  -15.7460 N   0  0  0  0  0  0  0  0  0  0  0  0
  -13.1900   35.3971  -16.5657 N   0  0  0  0  0  0  0  0  0  0  0  0
  -12.7109   35.7322  -15.3391 C   0  0  0  0  0  0  0  0  0  0  0  0
  -11.9993   34.8145  -14.6189 N   0  0  0  0  0  0  0  0  0  0  0  0
  -11.7668   33.5748  -15.1282 C   0  0  0  0  0  0  0  0  0  0  0  0
  -12.2353   33.2368  -16.3466 C   0  0  0  0  0  0  0  0  0  0  0  0
  -12.9624   34.1763  -17.0718 C   0  0  0  0  0  0  0  0  0  0  0  0
  -13.5672   34.0275  -18.3707 N   0  0  0  0  0  0  0  0  0  0  0  0
  -11.8574   31.9580  -16.5854 N   0  0  0  0  0  0  0  0  0  0  0  0
  -11.1487   31.5136  -15.5084 C   0  0  0  0  0  0  0  0  0  0  0  0
  -11.0958   32.5215  -14.6143 N   0  0  0  0  0  0  0  0  0  0  0  0
  1  3  1  1  0  0  0
  1  5  2  0  0  0  0
  1  9  1  0  0  0  0
  1 18  1  0  0  0  0
  2  4  1  6  0  0  0
  2  6  2  0  0  0  0
  2 10  1  0  0  0  0
  2 17  1  0  0  0  0
  7  9  1  0  0  0  0
  8 10  1  0  0  0  0
 11  7  1  6  0  0  0
 11 13  1  0  0  0  0
 11 15  1  0  0  0  0
 12  8  1  6  0  0  0
 12 14  1  0  0  0  0
 12 16  1  0  0  0  0
 13 23  1  0  0  0  0
 14 24  1  0  0  0  0
 15 17  1  1  0  0  0
 15 19  1  0  0  0  0
 16 18  1  1  0  0  0
 16 20  1  0  0  0  0
 19 21  1  1  0  0  0
 19 23  1  0  0  0  0
 20 22  1  1  0  0  0
 20 24  1  0  0  0  0
 23 34  1  6  0  0  0
 24 44  1  6  0  0  0
 25 26  2  0  0  0  0
 25 30  1  0  0  0  0
 26 27  1  0  0  0  0
 27 28  2  0  0  0  0
 28 29  1  0  0  0  0
 28 34  1  0  0  0  0
 29 30  2  0  0  0  0
 29 32  1  0  0  0  0
 30 31  1  0  0  0  0
 32 33  2  0  0  0  0
 33 34  1  0  0  0  0
 35 36  2  0  0  0  0
 35 40  1  0  0  0  0
 36 37  1  0  0  0  0
 37 38  2  0  0  0  0
 38 39  1  0  0  0  0
 38 44  1  0  0  0  0
 39 40  2  0  0  0  0
 39 42  1  0  0  0  0
 40 41  1  0  0  0  0
 42 43  2  0  0  0  0
 43 44  1  0  0  0  0
M  CHG  2   3  -1   4  -1
M  END
>  <CHROM.1>
105.22234996,9.02838535,-8.31571854,35.73563012,-14.64470179,-0.49839048
0.40468748,2.17136398

>  <Name>
ligand

>  <RI>
0

>  <Rbt.Current_Directory>
/home/itssahil/PROJECTS/Mol_Feturizer/New_Systems/rnas/4QLM

>  <Rbt.Executable>
rbdock ($Id: //depot/dev/client3/rdock/2013.1/src/exe/rbdock.cxx#4 $)

>  <Rbt.Library>
libRbt.so (2013.1, Build901 2013/11/27)

>  <Rbt.Parameter_File>
/export/apps/rDock/src/rDock_2013.1_src/data/scripts/dock_solv.prm

>  <Rbt.Receptor>
prm/pocket_docking_8.prm

>  <SCORE>
-13.3346

>  <SCORE.INTER>
-12.596

>  <SCORE.INTER.CONST>
1

>  <SCORE.INTER.POLAR>
0

>  <SCORE.INTER.ROT>
2

>  <SCORE.INTER.SOLV>
16.9631

>  <SCORE.INTER.VDW>
-18.9851

>  <SCORE.INTER.norm>
-0.286273

>  <SCORE.INTRA>
-0.738622

>  <SCORE.INTRA.DIHEDRAL>
-0.00112536

>  <SCORE.INTRA.DIHEDRAL.0>
2.32994

>  <SCORE.INTRA.POLAR>
0

>  <SCORE.INTRA.POLAR.0>
0

>  <SCORE.INTRA.REPUL>
0

>  <SCORE.INTRA.REPUL.0>
0

>  <SCORE.INTRA.SOLV>
1.17277

>  <SCORE.INTRA.SOLV.lig_0>
-117.703

>  <SCORE.INTRA.VDW>
-1.32444

>  <SCORE.INTRA.VDW.0>
-1.59997

>  <SCORE.INTRA.norm>
-0.0167869

>  <SCORE.RESTR>
0

>  <SCORE.RESTR.CAVITY>
0

>  <SCORE.RESTR.norm>
0

>  <SCORE.SYSTEM>
0

>  <SCORE.SYSTEM.CONST>
0

>  <SCORE.SYSTEM.DIHEDRAL>
0

>  <SCORE.SYSTEM.SOLV>
0

>  <SCORE.SYSTEM.norm>
0

>  <SCORE.heavy>
44

>  <SCORE.norm>
-0.30306

>  <RMSD>
4.003

$$$$
ligand
 OpenBabel11021811513D
libRbt.so/2013.1/901 2013/11/27
 44 50  0  0  0  0  0  0  0  0999 V2000
   -6.1064   33.7694  -13.1041 P   0  0  2  0  0  0  0  0  0  0  0  0
   -9.8818   37.6037  -13.6042 P   0  0  1  0  0  0  0  0  0  0  0  0
   -4.9789   33.7449  -12.0751 O   0  5  0  0  0  0  0  0  0  0  0  0
  -10.0021   37.8377  -15.0904 O   0  5  0  0  0  0  0  0  0  0  0  0
   -5.6163   32.9622  -14.2821 O   0  0  0  0  0  0  0  0  0  0  0  0
  -11.0868   38.2974  -12.9292 O   0  0  0  0  0  0  0  0  0  0  0  0
   -6.0364   36.1928  -12.3533 C   0  0  0  0  0  0  0  0  0  0  0  0
   -9.4928   35.5588  -12.0760 C   0  0  0  0  0  0  0  0  0  0  0  0
   -6.3316   35.2830  -13.4217 O   0  0  0  0  0  0  0  0  0  0  0  0
   -9.7338   35.9730  -13.4504 O   0  0  0  0  0  0  0  0  0  0  0  0
   -6.2533   37.6306  -12.8126 C   0  0  1  0  0  0  0  0  0  0  0  0
   -9.5162   33.9837  -12.0806 C   0  0  1  0  0  0  0  0  0  0  0  0
   -5.1740   38.0312  -13.4102 O   0  0  0  0  0  0  0  0  0  0  0  0
  -10.5974   33.6681  -12.6683 O   0  0  0  0  0  0  0  0  0  0  0  0
   -7.3796   37.7743  -13.8101 C   0  0  1  0  0  0  0  0  0  0  0  0
   -8.4406   33.4186  -13.0297 C   0  0  1  0  0  0  0  0  0  0  0  0
   -8.4600   38.2194  -13.1152 O   0  0  0  0  0  0  0  0  0  0  0  0
   -7.3666   32.9942  -12.3527 O   0  0  0  0  0  0  0  0  0  0  0  0
   -6.8653   38.8870  -14.7887 C   0  0  1  0  0  0  0  0  0  0  0  0
   -9.0979   32.2622  -13.8171 C   0  0  1  0  0  0  0  0  0  0  0  0
   -7.5087   40.1889  -14.4656 O   0  0  0  0  0  0  0  0  0  0  0  0
   -8.6706   30.9386  -13.2598 O   0  0  0  0  0  0  0  0  0  0  0  0
   -5.5816   38.9517  -14.6350 C   0  0  2  0  0  0  0  0  0  0  0  0
  -10.3649   32.4170  -13.6390 C   0  0  2  0  0  0  0  0  0  0  0  0
   -5.2366   36.4687  -19.3823 N   0  0  0  0  0  0  0  0  0  0  0  0
   -6.3565   36.5560  -18.6107 C   0  0  0  0  0  0  0  0  0  0  0  0
   -6.3411   37.2168  -17.4088 N   0  0  0  0  0  0  0  0  0  0  0  0
   -5.1762   37.7933  -16.9833 C   0  0  0  0  0  0  0  0  0  0  0  0
   -4.0649   37.7096  -17.7278 C   0  0  0  0  0  0  0  0  0  0  0  0
   -4.0915   37.0444  -18.9523 C   0  0  0  0  0  0  0  0  0  0  0  0
   -2.9978   36.8859  -19.8262 N   0  0  0  0  0  0  0  0  0  0  0  0
   -3.0800   38.3632  -17.0758 N   0  0  0  0  0  0  0  0  0  0  0  0
   -3.5980   38.8471  -15.9111 C   0  0  0  0  0  0  0  0  0  0  0  0
   -4.8939   38.5120  -15.8601 N   0  0  0  0  0  0  0  0  0  0  0  0
  -13.0223   35.7340  -16.6483 N   0  0  0  0  0  0  0  0  0  0  0  0
  -12.4945   35.9903  -15.4227 C   0  0  0  0  0  0  0  0  0  0  0  0
  -11.8269   35.0021  -14.7555 N   0  0  0  0  0  0  0  0  0  0  0  0
  -11.6861   33.7709  -15.3165 C   0  0  0  0  0  0  0  0  0  0  0  0
  -12.2033   33.5108  -16.5343 C   0  0  0  0  0  0  0  0  0  0  0  0
  -12.8851   34.5218  -17.2052 C   0  0  0  0  0  0  0  0  0  0  0  0
  -13.5279   34.4621  -18.4929 N   0  0  0  0  0  0  0  0  0  0  0  0
  -11.9138   32.2209  -16.8301 N   0  0  0  0  0  0  0  0  0  0  0  0
  -11.2105   31.6911  -15.7888 C   0  0  0  0  0  0  0  0  0  0  0  0
  -11.0724   32.6582  -14.8594 N   0  0  0  0  0  0  0  0  0  0  0  0
  1  3  1  1  0  0  0
  1  5  2  0  0  0  0
  1  9  1  0  0  0  0
  1 18  1  0  0  0  0
  2  4  1  6  0  0  0
  2  6  2  0  0  0  0
  2 10  1  0  0  0  0
  2 17  1  0  0  0  0
  7  9  1  0  0  0  0
  8 10  1  0  0  0  0
 11  7  1  6  0  0  0
 11 13  1  0  0  0  0
 11 15  1  0  0  0  0
 12  8  1  6  0  0  0
 12 14  1  0  0  0  0
 12 16  1  0  0  0  0
 13 23  1  0  0  0  0
 14 24  1  0  0  0  0
 15 17  1  1  0  0  0
 15 19  1  0  0  0  0
 16 18  1  1  0  0  0
 16 20  1  0  0  0  0
 19 21  1  1  0  0  0
 19 23  1  0  0  0  0
 20 22  1  1  0  0  0
 20 24  1  0  0  0  0
 23 34  1  6  0  0  0
 24 44  1  6  0  0  0
 25 26  2  0  0  0  0
 25 30  1  0  0  0  0
 26 27  1  0  0  0  0
 27 28  2  0  0  0  0
 28 29  1  0  0  0  0
 28 34  1  0  0  0  0
 29 30  2  0  0  0  0
 29 32  1  0  0  0  0
 30 31  1  0  0  0  0
 32 33  2  0  0  0  0
 33 34  1  0  0  0  0
 35 36  2  0  0  0  0
 35 40  1  0  0  0  0
 36 37  1  0  0  0  0
 37 38  2  0  0  0  0
 38 39  1  0  0  0  0
 38 44  1  0  0  0  0
 39 40  2  0  0  0  0
 39 42  1  0  0  0  0
 40 41  1  0  0  0  0
 42 43  2  0  0  0  0
 43 44  1  0  0  0  0
M  CHG  2   3  -1   4  -1
M  END
>  <CHROM.1>
101.36433203,9.77914007,-8.12220751,35.71377502,-14.81080413,-0.48197375
0.34689275,2.21523990

>  <Name>
ligand

>  <RI>
0

>  <Rbt.Current_Directory>
/home/itssahil/PROJECTS/Mol_Feturizer/New_Systems/rnas/4QLM

>  <Rbt.Executable>
rbdock ($Id: //depot/dev/client3/rdock/2013.1/src/exe/rbdock.cxx#4 $)

>  <Rbt.Library>
libRbt.so (2013.1, Build901 2013/11/27)

>  <Rbt.Parameter_File>
/export/apps/rDock/src/rDock_2013.1_src/data/scripts/dock_solv.prm

>  <Rbt.Receptor>
prm/pocket_docking_4.prm

>  <SCORE>
-12.3061

>  <SCORE.INTER>
-11.6145

>  <SCORE.INTER.CONST>
1

>  <SCORE.INTER.POLAR>
0

>  <SCORE.INTER.ROT>
2

>  <SCORE.INTER.SOLV>
17.5229

>  <SCORE.INTER.VDW>
-18.5173

>  <SCORE.INTER.norm>
-0.263967

>  <SCORE.INTRA>
-0.780955

>  <SCORE.INTRA.DIHEDRAL>
-0.0163957

>  <SCORE.INTRA.DIHEDRAL.0>
2.32994

>  <SCORE.INTRA.POLAR>
0

>  <SCORE.INTRA.POLAR.0>
0

>  <SCORE.INTRA.REPUL>
0

>  <SCORE.INTRA.REPUL.0>
0

>  <SCORE.INTRA.SOLV>
1.21035

>  <SCORE.INTRA.SOLV.lig_0>
-117.703

>  <SCORE.INTRA.VDW>
-1.37793

>  <SCORE.INTRA.VDW.0>
-1.59997

>  <SCORE.INTRA.norm>
-0.017749

>  <SCORE.RESTR>
0.0893901

>  <SCORE.RESTR.CAVITY>
0.0893901

>  <SCORE.RESTR.norm>
0.00203159

>  <SCORE.SYSTEM>
0

>  <SCORE.SYSTEM.CONST>
0

>  <SCORE.SYSTEM.DIHEDRAL>
0

>  <SCORE.SYSTEM.SOLV>
0

>  <SCORE.SYSTEM.norm>
0

>  <SCORE.heavy>
44

>  <SCORE.norm>
-0.279684

>  <RMSD>
4.006

$$$$
ligand
 OpenBabel11021811513D
libRbt.so/2013.1/901 2013/11/27
 44 50  0  0  0  0  0  0  0  0999 V2000
   -6.2604   33.5924  -13.5384 P   0  0  2  0  0  0  0  0  0  0  0  0
   -9.9629   37.5180  -13.8324 P   0  0  1  0  0  0  0  0  0  0  0  0
   -5.1630   33.4670  -12.4846 O   0  5  0  0  0  0  0  0  0  0  0  0
  -10.0376   37.8713  -15.2979 O   0  5  0  0  0  0  0  0  0  0  0  0
   -5.7492   32.8731  -14.7635 O   0  0  0  0  0  0  0  0  0  0  0  0
  -11.1761   38.1763  -13.1370 O   0  0  0  0  0  0  0  0  0  0  0  0
   -6.1757   35.9469  -12.5948 C   0  0  0  0  0  0  0  0  0  0  0  0
   -9.6476   35.3518  -12.4625 C   0  0  0  0  0  0  0  0  0  0  0  0
   -6.4540   35.1300  -13.7401 O   0  0  0  0  0  0  0  0  0  0  0  0
   -9.8435   35.8779  -13.8055 O   0  0  0  0  0  0  0  0  0  0  0  0
   -6.3582   37.4202  -12.9435 C   0  0  1  0  0  0  0  0  0  0  0  0
   -9.6942   33.7827  -12.5935 C   0  0  1  0  0  0  0  0  0  0  0  0
   -5.2567   37.8485  -13.4778 O   0  0  0  0  0  0  0  0  0  0  0  0
  -10.7630   33.5333  -13.2335 O   0  0  0  0  0  0  0  0  0  0  0  0
   -7.4536   37.6618  -13.9564 C   0  0  1  0  0  0  0  0  0  0  0  0
   -8.6007   33.2765  -13.5553 C   0  0  1  0  0  0  0  0  0  0  0  0
   -8.5466   38.0686  -13.2576 O   0  0  0  0  0  0  0  0  0  0  0  0
   -7.5527   32.7815  -12.8856 O   0  0  0  0  0  0  0  0  0  0  0  0
   -6.8954   38.8398  -14.8287 C   0  0  1  0  0  0  0  0  0  0  0  0
   -9.2525   32.1977  -14.4501 C   0  0  1  0  0  0  0  0  0  0  0  0
   -7.5284   40.1227  -14.4201 O   0  0  0  0  0  0  0  0  0  0  0  0
   -8.8608   30.8269  -13.9890 O   0  0  0  0  0  0  0  0  0  0  0  0
   -5.6158   38.8702  -14.6357 C   0  0  2  0  0  0  0  0  0  0  0  0
  -10.5216   32.3594  -14.2944 C   0  0  2  0  0  0  0  0  0  0  0  0
   -5.0418   36.4299  -19.3830 N   0  0  0  0  0  0  0  0  0  0  0  0
   -6.1486   36.3748  -18.5898 C   0  0  0  0  0  0  0  0  0  0  0  0
   -6.1962   37.0379  -17.3900 N   0  0  0  0  0  0  0  0  0  0  0  0
   -5.1082   37.7628  -16.9887 C   0  0  0  0  0  0  0  0  0  0  0  0
   -4.0098   37.8205  -17.7546 C   0  0  0  0  0  0  0  0  0  0  0  0
   -3.9732   37.1515  -18.9768 C   0  0  0  0  0  0  0  0  0  0  0  0
   -2.8851   37.1321  -19.8716 N   0  0  0  0  0  0  0  0  0  0  0  0
   -3.1060   38.5996  -17.1236 N   0  0  0  0  0  0  0  0  0  0  0  0
   -3.6601   39.0179  -15.9501 C   0  0  0  0  0  0  0  0  0  0  0  0
   -4.9003   38.5176  -15.8730 N   0  0  0  0  0  0  0  0  0  0  0  0
  -11.1569   35.7508  -18.1950 N   0  0  0  0  0  0  0  0  0  0  0  0
  -10.3109   35.8737  -17.1389 C   0  0  0  0  0  0  0  0  0  0  0  0
  -10.2689   34.8911  -16.1901 N   0  0  0  0  0  0  0  0  0  0  0  0
  -11.0647   33.7938  -16.3045 C   0  0  0  0  0  0  0  0  0  0  0  0
  -11.9033   33.6630  -17.3522 C   0  0  0  0  0  0  0  0  0  0  0  0
  -11.9426   34.6704  -18.3119 C   0  0  0  0  0  0  0  0  0  0  0  0
  -12.7668   34.7481  -19.4907 N   0  0  0  0  0  0  0  0  0  0  0  0
  -12.5614   32.4887  -17.2002 N   0  0  0  0  0  0  0  0  0  0  0  0
  -12.1180   31.8955  -16.0551 C   0  0  0  0  0  0  0  0  0  0  0  0
  -11.1907   32.7088  -15.5103 N   0  0  0  0  0  0  0  0  0  0  0  0
  1  3  1  1  0  0  0
  1  5  2  0  0  0  0
  1  9  1  0  0  0  0
  1 18  1  0  0  0  0
  2  4  1  6  0  0  0
  2  6  2  0  0  0  0
  2 10  1  0  0  0  0
  2 17  1  0  0  0  0
  7  9  1  0  0  0  0
  8 10  1  0  0  0  0
 11  7  1  6  0  0  0
 11 13  1  0  0  0  0
 11 15  1  0  0  0  0
 12  8  1  6  0  0  0
 12 14  1  0  0  0  0
 12 16  1  0  0  0  0
 13 23  1  0  0  0  0
 14 24  1  0  0  0  0
 15 17  1  1  0  0  0
 15 19  1  0  0  0  0
 16 18  1  1  0  0  0
 16 20  1  0  0  0  0
 19 21  1  1  0  0  0
 19 23  1  0  0  0  0
 20 22  1  1  0  0  0
 20 24  1  0  0  0  0
 23 34  1  6  0  0  0
 24 44  1  6  0  0  0
 25 26  2  0  0  0  0
 25 30  1  0  0  0  0
 26 27  1  0  0  0  0
 27 28  2  0  0  0  0
 28 29  1  0  0  0  0
 28 34  1  0  0  0  0
 29 30  2  0  0  0  0
 29 32  1  0  0  0  0
 30 31  1  0  0  0  0
 32 33  2  0  0  0  0
 33 34  1  0  0  0  0
 35 36  2  0  0  0  0
 35 40  1  0  0  0  0
 36 37  1  0  0  0  0
 37 38  2  0  0  0  0
 38 39  1  0  0  0  0
 38 44  1  0  0  0  0
 39 40  2  0  0  0  0
 39 42  1  0  0  0  0
 40 41  1  0  0  0  0
 42 43  2  0  0  0  0
 43 44  1  0  0  0  0
M  CHG  2   3  -1   4  -1
M  END
>  <CHROM.1>
91.35141501,57.20667306,-8.04387298,35.66208529,-15.21039212,-0.35424659
0.54381545,1.95994936

>  <Name>
ligand

>  <RI>
0

>  <Rbt.Current_Directory>
/home/itssahil/PROJECTS/Mol_Feturizer/New_Systems/rnas/4QLM

>  <Rbt.Executable>
rbdock ($Id: //depot/dev/client3/rdock/2013.1/src/exe/rbdock.cxx#4 $)

>  <Rbt.Library>
libRbt.so (2013.1, Build901 2013/11/27)

>  <Rbt.Parameter_File>
/export/apps/rDock/src/rDock_2013.1_src/data/scripts/dock_solv.prm

>  <Rbt.Receptor>
prm/pocket_docking_5.prm

>  <SCORE>
-12.9561

>  <SCORE.INTER>
-11.7959

>  <SCORE.INTER.CONST>
1

>  <SCORE.INTER.POLAR>
0

>  <SCORE.INTER.ROT>
2

>  <SCORE.INTER.SOLV>
22.6089

>  <SCORE.INTER.VDW>
-20.3336

>  <SCORE.INTER.norm>
-0.268088

>  <SCORE.INTRA>
-1.16019

>  <SCORE.INTRA.DIHEDRAL>
-0.0349659

>  <SCORE.INTRA.DIHEDRAL.0>
2.32994

>  <SCORE.INTRA.POLAR>
0

>  <SCORE.INTRA.POLAR.0>
0

>  <SCORE.INTRA.REPUL>
0

>  <SCORE.INTRA.REPUL.0>
0

>  <SCORE.INTRA.SOLV>
1.11121

>  <SCORE.INTRA.SOLV.lig_0>
-117.703

>  <SCORE.INTRA.VDW>
-1.69832

>  <SCORE.INTRA.VDW.0>
-1.59997

>  <SCORE.INTRA.norm>
-0.026368

>  <SCORE.RESTR>
0

>  <SCORE.RESTR.CAVITY>
0

>  <SCORE.RESTR.norm>
0

>  <SCORE.SYSTEM>
0

>  <SCORE.SYSTEM.CONST>
0

>  <SCORE.SYSTEM.DIHEDRAL>
0

>  <SCORE.SYSTEM.SOLV>
0

>  <SCORE.SYSTEM.norm>
0

>  <SCORE.heavy>
44

>  <SCORE.norm>
-0.294456

>  <RMSD>
4.081

$$$$
ligand
 OpenBabel11021811513D
libRbt.so/2013.1/901 2013/11/27
 44 50  0  0  0  0  0  0  0  0999 V2000
   -6.3186   33.5634  -13.5629 P   0  0  2  0  0  0  0  0  0  0  0  0
  -10.0016   37.5064  -13.8697 P   0  0  1  0  0  0  0  0  0  0  0  0
   -5.2250   33.4332  -12.5057 O   0  5  0  0  0  0  0  0  0  0  0  0
  -10.0701   37.8595  -15.3355 O   0  5  0  0  0  0  0  0  0  0  0  0
   -5.8071   32.8412  -14.7862 O   0  0  0  0  0  0  0  0  0  0  0  0
  -11.2138   38.1707  -13.1782 O   0  0  0  0  0  0  0  0  0  0  0  0
   -6.2257   35.9178  -12.6199 C   0  0  0  0  0  0  0  0  0  0  0  0
   -9.7007   35.3392  -12.4981 C   0  0  0  0  0  0  0  0  0  0  0  0
   -6.5044   35.1019  -13.7657 O   0  0  0  0  0  0  0  0  0  0  0  0
   -9.8901   35.8657  -13.8418 O   0  0  0  0  0  0  0  0  0  0  0  0
   -6.4001   37.3918  -12.9697 C   0  0  1  0  0  0  0  0  0  0  0  0
   -9.7544   33.7703  -12.6287 C   0  0  1  0  0  0  0  0  0  0  0  0
   -5.2949   37.8147  -13.5008 O   0  0  0  0  0  0  0  0  0  0  0  0
  -10.8224   33.5257  -13.2719 O   0  0  0  0  0  0  0  0  0  0  0  0
   -7.4913   37.6383  -13.9860 C   0  0  1  0  0  0  0  0  0  0  0  0
   -8.6603   33.2586  -13.5870 C   0  0  1  0  0  0  0  0  0  0  0  0
   -8.5844   38.0505  -13.2907 O   0  0  0  0  0  0  0  0  0  0  0  0
   -7.6167   32.7589  -12.9139 O   0  0  0  0  0  0  0  0  0  0  0  0
   -6.9248   38.8133  -14.8570 C   0  0  1  0  0  0  0  0  0  0  0  0
   -9.3145   32.1826  -14.4833 C   0  0  1  0  0  0  0  0  0  0  0  0
   -7.5530   40.0993  -14.4508 O   0  0  0  0  0  0  0  0  0  0  0  0
   -8.9307   30.8101  -14.0205 O   0  0  0  0  0  0  0  0  0  0  0  0
   -5.6457   38.8377  -14.6601 C   0  0  2  0  0  0  0  0  0  0  0  0
  -10.5833   32.3504  -14.3316 C   0  0  2  0  0  0  0  0  0  0  0  0
   -5.0581   36.3717  -19.3924 N   0  0  0  0  0  0  0  0  0  0  0  0
   -6.1648   36.3158  -18.5992 C   0  0  0  0  0  0  0  0  0  0  0  0
   -6.2161   36.9859  -17.4034 N   0  0  0  0  0  0  0  0  0  0  0  0
   -5.1319   37.7187  -17.0063 C   0  0  0  0  0  0  0  0  0  0  0  0
   -4.0336   37.7773  -17.7723 C   0  0  0  0  0  0  0  0  0  0  0  0
   -3.9933   37.1012  -18.9904 C   0  0  0  0  0  0  0  0  0  0  0  0
   -2.9048   37.0819  -19.8848 N   0  0  0  0  0  0  0  0  0  0  0  0
   -3.1338   38.5648  -17.1458 N   0  0  0  0  0  0  0  0  0  0  0  0
   -3.6904   38.9873  -15.9749 C   0  0  0  0  0  0  0  0  0  0  0  0
   -4.9281   38.4813  -15.8951 N   0  0  0  0  0  0  0  0  0  0  0  0
  -11.1732   35.7315  -18.2483 N   0  0  0  0  0  0  0  0  0  0  0  0
  -10.3265   35.8486  -17.1919 C   0  0  0  0  0  0  0  0  0  0  0  0
  -10.2976   34.8700  -16.2387 N   0  0  0  0  0  0  0  0  0  0  0  0
  -11.1069   33.7821  -16.3487 C   0  0  0  0  0  0  0  0  0  0  0  0
  -11.9462   33.6570  -17.3966 C   0  0  0  0  0  0  0  0  0  0  0  0
  -11.9721   34.6604  -18.3608 C   0  0  0  0  0  0  0  0  0  0  0  0
  -12.7944   34.7430  -19.5407 N   0  0  0  0  0  0  0  0  0  0  0  0
  -12.6189   32.4917  -17.2398 N   0  0  0  0  0  0  0  0  0  0  0  0
  -12.1839   31.8983  -16.0916 C   0  0  0  0  0  0  0  0  0  0  0  0
  -11.2470   32.7024  -15.5497 N   0  0  0  0  0  0  0  0  0  0  0  0
  1  3  1  1  0  0  0
  1  5  2  0  0  0  0
  1  9  1  0  0  0  0
  1 18  1  0  0  0  0
  2  4  1  6  0  0  0
  2  6  2  0  0  0  0
  2 10  1  0  0  0  0
  2 17  1  0  0  0  0
  7  9  1  0  0  0  0
  8 10  1  0  0  0  0
 11  7  1  6  0  0  0
 11 13  1  0  0  0  0
 11 15  1  0  0  0  0
 12  8  1  6  0  0  0
 12 14  1  0  0  0  0
 12 16  1  0  0  0  0
 13 23  1  0  0  0  0
 14 24  1  0  0  0  0
 15 17  1  1  0  0  0
 15 19  1  0  0  0  0
 16 18  1  1  0  0  0
 16 20  1  0  0  0  0
 19 21  1  1  0  0  0
 19 23  1  0  0  0  0
 20 22  1  1  0  0  0
 20 24  1  0  0  0  0
 23 34  1  6  0  0  0
 24 44  1  6  0  0  0
 25 26  2  0  0  0  0
 25 30  1  0  0  0  0
 26 27  1  0  0  0  0
 27 28  2  0  0  0  0
 28 29  1  0  0  0  0
 28 34  1  0  0  0  0
 29 30  2  0  0  0  0
 29 32  1  0  0  0  0
 30 31  1  0  0  0  0
 32 33  2  0  0  0  0
 33 34  1  0  0  0  0
 35 36  2  0  0  0  0
 35 40  1  0  0  0  0
 36 37  1  0  0  0  0
 37 38  2  0  0  0  0
 38 39  1  0  0  0  0
 38 44  1  0  0  0  0
 39 40  2  0  0  0  0
 39 42  1  0  0  0  0
 40 41  1  0  0  0  0
 42 43  2  0  0  0  0
 43 44  1  0  0  0  0
M  CHG  2   3  -1   4  -1
M  END
>  <CHROM.1>
90.68315183,57.72603750,-8.08506380,35.63859356,-15.24128696,-0.34476103
0.54292565,1.94996659

>  <Name>
ligand

>  <RI>
0

>  <Rbt.Current_Directory>
/home/itssahil/PROJECTS/Mol_Feturizer/New_Systems/rnas/4QLM

>  <Rbt.Executable>
rbdock ($Id: //depot/dev/client3/rdock/2013.1/src/exe/rbdock.cxx#4 $)

>  <Rbt.Library>
libRbt.so (2013.1, Build901 2013/11/27)

>  <Rbt.Parameter_File>
/export/apps/rDock/src/rDock_2013.1_src/data/scripts/dock_solv.prm

>  <Rbt.Receptor>
prm/pocket_docking_5.prm

>  <SCORE>
-12.9732

>  <SCORE.INTER>
-11.747

>  <SCORE.INTER.CONST>
1

>  <SCORE.INTER.POLAR>
0

>  <SCORE.INTER.ROT>
2

>  <SCORE.INTER.SOLV>
22.696

>  <SCORE.INTER.VDW>
-20.33

>  <SCORE.INTER.norm>
-0.266976

>  <SCORE.INTRA>
-1.22623

>  <SCORE.INTRA.DIHEDRAL>
-0.0351864

>  <SCORE.INTRA.DIHEDRAL.0>
2.32994

>  <SCORE.INTRA.POLAR>
0

>  <SCORE.INTRA.POLAR.0>
0

>  <SCORE.INTRA.REPUL>
0

>  <SCORE.INTRA.REPUL.0>
0

>  <SCORE.INTRA.SOLV>
1.09161

>  <SCORE.INTRA.SOLV.lig_0>
-117.703

>  <SCORE.INTRA.VDW>
-1.75444

>  <SCORE.INTRA.VDW.0>
-1.59997

>  <SCORE.INTRA.norm>
-0.0278689

>  <SCORE.RESTR>
0

>  <SCORE.RESTR.CAVITY>
0

>  <SCORE.RESTR.norm>
0

>  <SCORE.SYSTEM>
0

>  <SCORE.SYSTEM.CONST>
0

>  <SCORE.SYSTEM.DIHEDRAL>
0

>  <SCORE.SYSTEM.SOLV>
0

>  <SCORE.SYSTEM.norm>
0

>  <SCORE.heavy>
44

>  <SCORE.norm>
-0.294845

>  <RMSD>
4.084

$$$$
ligand
 OpenBabel11021811513D
libRbt.so/2013.1/901 2013/11/27
 44 50  0  0  0  0  0  0  0  0999 V2000
   -6.2544   33.5415  -13.5116 P   0  0  2  0  0  0  0  0  0  0  0  0
   -9.9001   37.5233  -13.7563 P   0  0  1  0  0  0  0  0  0  0  0  0
   -5.1507   33.3944  -12.4673 O   0  5  0  0  0  0  0  0  0  0  0  0
   -9.9813   37.8851  -15.2194 O   0  5  0  0  0  0  0  0  0  0  0  0
   -5.7639   32.8209  -14.7443 O   0  0  0  0  0  0  0  0  0  0  0  0
  -11.0979   38.1960  -13.0479 O   0  0  0  0  0  0  0  0  0  0  0  0
   -6.1272   35.8896  -12.5570 C   0  0  0  0  0  0  0  0  0  0  0  0
   -9.6063   35.3457  -12.3998 C   0  0  0  0  0  0  0  0  0  0  0  0
   -6.4267   35.0829  -13.7041 O   0  0  0  0  0  0  0  0  0  0  0  0
   -9.8051   35.8815  -13.7385 O   0  0  0  0  0  0  0  0  0  0  0  0
   -6.2904   37.3672  -12.8969 C   0  0  1  0  0  0  0  0  0  0  0  0
   -9.6774   33.7781  -12.5382 C   0  0  1  0  0  0  0  0  0  0  0  0
   -5.1869   37.7819  -13.4380 O   0  0  0  0  0  0  0  0  0  0  0  0
  -10.7549   33.5479  -13.1708 O   0  0  0  0  0  0  0  0  0  0  0  0
   -7.3901   37.6303  -13.8998 C   0  0  1  0  0  0  0  0  0  0  0  0
   -8.5993   33.2606  -13.5113 C   0  0  1  0  0  0  0  0  0  0  0  0
   -8.4712   38.0498  -13.1902 O   0  0  0  0  0  0  0  0  0  0  0  0
   -7.5535   32.7466  -12.8525 O   0  0  0  0  0  0  0  0  0  0  0  0
   -6.8213   38.8043  -14.7707 C   0  0  1  0  0  0  0  0  0  0  0  0
   -9.2742   32.1962  -14.4061 C   0  0  1  0  0  0  0  0  0  0  0  0
   -7.4318   40.0944  -14.3507 O   0  0  0  0  0  0  0  0  0  0  0  0
   -8.8994   30.8174  -13.9550 O   0  0  0  0  0  0  0  0  0  0  0  0
   -5.5399   38.8147  -14.5879 C   0  0  2  0  0  0  0  0  0  0  0  0
  -10.5395   32.3760  -14.2395 C   0  0  2  0  0  0  0  0  0  0  0  0
   -5.0124   36.3351  -19.3202 N   0  0  0  0  0  0  0  0  0  0  0  0
   -6.1063   36.2760  -18.5096 C   0  0  0  0  0  0  0  0  0  0  0  0
   -6.1427   36.9500  -17.3155 N   0  0  0  0  0  0  0  0  0  0  0  0
   -5.0565   37.6901  -16.9379 C   0  0  0  0  0  0  0  0  0  0  0  0
   -3.9706   37.7520  -17.7210 C   0  0  0  0  0  0  0  0  0  0  0  0
   -3.9455   37.0717  -18.9373 C   0  0  0  0  0  0  0  0  0  0  0  0
   -2.8710   37.0552  -19.8484 N   0  0  0  0  0  0  0  0  0  0  0  0
   -3.0655   38.5466  -17.1113 N   0  0  0  0  0  0  0  0  0  0  0  0
   -3.6062   38.9702  -15.9334 C   0  0  0  0  0  0  0  0  0  0  0  0
   -4.8396   38.4577  -15.8326 N   0  0  0  0  0  0  0  0  0  0  0  0
  -11.1175   35.7698  -18.1470 N   0  0  0  0  0  0  0  0  0  0  0  0
  -10.2543   35.8699  -17.1024 C   0  0  0  0  0  0  0  0  0  0  0  0
  -10.2312   34.8905  -16.1498 N   0  0  0  0  0  0  0  0  0  0  0  0
  -11.0629   33.8186  -16.2489 C   0  0  0  0  0  0  0  0  0  0  0  0
  -11.9189   33.7103  -17.2851 C   0  0  0  0  0  0  0  0  0  0  0  0
  -11.9386   34.7144  -18.2487 C   0  0  0  0  0  0  0  0  0  0  0  0
  -12.7753   34.8135  -19.4171 N   0  0  0  0  0  0  0  0  0  0  0  0
  -12.6119   32.5582  -17.1192 N   0  0  0  0  0  0  0  0  0  0  0  0
  -12.1727   31.9559  -15.9772 C   0  0  0  0  0  0  0  0  0  0  0  0
  -11.2130   32.7415  -15.4482 N   0  0  0  0  0  0  0  0  0  0  0  0
  1  3  1  1  0  0  0
  1  5  2  0  0  0  0
  1  9  1  0  0  0  0
  1 18  1  0  0  0  0
  2  4  1  6  0  0  0
  2  6  2  0  0  0  0
  2 10  1  0  0  0  0
  2 17  1  0  0  0  0
  7  9  1  0  0  0  0
  8 10  1  0  0  0  0
 11  7  1  6  0  0  0
 11 13  1  0  0  0  0
 11 15  1  0  0  0  0
 12  8  1  6  0  0  0
 12 14  1  0  0  0  0
 12 16  1  0  0  0  0
 13 23  1  0  0  0  0
 14 24  1  0  0  0  0
 15 17  1  1  0  0  0
 15 19  1  0  0  0  0
 16 18  1  1  0  0  0
 16 20  1  0  0  0  0
 19 21  1  1  0  0  0
 19 23  1  0  0  0  0
 20 22  1  1  0  0  0
 20 24  1  0  0  0  0
 23 34  1  6  0  0  0
 24 44  1  6  0  0  0
 25 26  2  0  0  0  0
 25 30  1  0  0  0  0
 26 27  1  0  0  0  0
 27 28  2  0  0  0  0
 28 29  1  0  0  0  0
 28 34  1  0  0  0  0
 29 30  2  0  0  0  0
 29 32  1  0  0  0  0
 30 31  1  0  0  0  0
 32 33  2  0  0  0  0
 33 34  1  0  0  0  0
 35 36  2  0  0  0  0
 35 40  1  0  0  0  0
 36 37  1  0  0  0  0
 37 38  2  0  0  0  0
 38 39  1  0  0  0  0
 38 44  1  0  0  0  0
 39 40  2  0  0  0  0
 39 42  1  0  0  0  0
 40 41  1  0  0  0  0
 42 43  2  0  0  0  0
 43 44  1  0  0  0  0
M  CHG  2   3  -1   4  -1
M  END
>  <CHROM.1>
89.61990529,58.35148569,-8.01523766,35.64032878,-15.15898516,-0.34678016
0.53223335,1.95032902

>  <Name>
ligand

>  <RI>
0

>  <Rbt.Current_Directory>
/home/itssahil/PROJECTS/Mol_Feturizer/New_Systems/rnas/4QLM

>  <Rbt.Executable>
rbdock ($Id: //depot/dev/client3/rdock/2013.1/src/exe/rbdock.cxx#4 $)

>  <Rbt.Library>
libRbt.so (2013.1, Build901 2013/11/27)

>  <Rbt.Parameter_File>
/export/apps/rDock/src/rDock_2013.1_src/data/scripts/dock_solv.prm

>  <Rbt.Receptor>
prm/pocket_docking_4.prm

>  <SCORE>
-12.7683

>  <SCORE.INTER>
-11.4845

>  <SCORE.INTER.CONST>
1

>  <SCORE.INTER.POLAR>
0

>  <SCORE.INTER.ROT>
2

>  <SCORE.INTER.SOLV>
21.9211

>  <SCORE.INTER.VDW>
-19.8967

>  <SCORE.INTER.norm>
-0.26101

>  <SCORE.INTRA>
-1.28387

>  <SCORE.INTRA.DIHEDRAL>
-0.0353868

>  <SCORE.INTRA.DIHEDRAL.0>
2.32994

>  <SCORE.INTRA.POLAR>
0

>  <SCORE.INTRA.POLAR.0>
0

>  <SCORE.INTRA.REPUL>
0

>  <SCORE.INTRA.REPUL.0>
0

>  <SCORE.INTRA.SOLV>
1.06741

>  <SCORE.INTRA.SOLV.lig_0>
-117.703

>  <SCORE.INTRA.VDW>
-1.79988

>  <SCORE.INTRA.VDW.0>
-1.59997

>  <SCORE.INTRA.norm>
-0.0291789

>  <SCORE.RESTR>
0

>  <SCORE.RESTR.CAVITY>
0

>  <SCORE.RESTR.norm>
0

>  <SCORE.SYSTEM>
0

>  <SCORE.SYSTEM.CONST>
0

>  <SCORE.SYSTEM.DIHEDRAL>
0

>  <SCORE.SYSTEM.SOLV>
0

>  <SCORE.SYSTEM.norm>
0

>  <SCORE.heavy>
44

>  <SCORE.norm>
-0.290189

>  <RMSD>
4.086

$$$$
ligand
 OpenBabel11021811513D
libRbt.so/2013.1/901 2013/11/27
 44 50  0  0  0  0  0  0  0  0999 V2000
   -6.2138   33.5634  -13.3931 P   0  0  2  0  0  0  0  0  0  0  0  0
   -9.8874   37.5221  -13.5915 P   0  0  1  0  0  0  0  0  0  0  0  0
   -5.0866   33.4317  -12.3721 O   0  5  0  0  0  0  0  0  0  0  0  0
  -10.0028   37.8708  -15.0554 O   0  5  0  0  0  0  0  0  0  0  0  0
   -5.7462   32.8351  -14.6301 O   0  0  0  0  0  0  0  0  0  0  0  0
  -11.0733   38.1941  -12.8626 O   0  0  0  0  0  0  0  0  0  0  0  0
   -6.0795   35.9204  -12.4615 C   0  0  0  0  0  0  0  0  0  0  0  0
   -9.5511   35.3580  -12.2233 C   0  0  0  0  0  0  0  0  0  0  0  0
   -6.3994   35.1021  -13.5948 O   0  0  0  0  0  0  0  0  0  0  0  0
   -9.7823   35.8811  -13.5618 O   0  0  0  0  0  0  0  0  0  0  0  0
   -6.2588   37.3941  -12.8103 C   0  0  1  0  0  0  0  0  0  0  0  0
   -9.6160   33.7889  -12.3468 C   0  0  1  0  0  0  0  0  0  0  0  0
   -5.1699   37.8103  -13.3789 O   0  0  0  0  0  0  0  0  0  0  0  0
  -10.7056   33.5471  -12.9536 O   0  0  0  0  0  0  0  0  0  0  0  0
   -7.3818   37.6422  -13.7909 C   0  0  1  0  0  0  0  0  0  0  0  0
   -8.5564   33.2692  -13.3389 C   0  0  1  0  0  0  0  0  0  0  0  0
   -8.4496   38.0616  -13.0613 O   0  0  0  0  0  0  0  0  0  0  0  0
   -7.4934   32.7669  -12.6989 O   0  0  0  0  0  0  0  0  0  0  0  0
   -6.8392   38.8119  -14.6841 C   0  0  1  0  0  0  0  0  0  0  0  0
   -9.2445   32.1933  -14.2096 C   0  0  1  0  0  0  0  0  0  0  0  0
   -7.4479   40.1020  -14.2617 O   0  0  0  0  0  0  0  0  0  0  0  0
   -8.8518   30.8206  -13.7551 O   0  0  0  0  0  0  0  0  0  0  0  0
   -5.5541   38.8312  -14.5295 C   0  0  2  0  0  0  0  0  0  0  0  0
  -10.5069   32.3673  -14.0167 C   0  0  2  0  0  0  0  0  0  0  0  0
   -5.1381   36.3556  -19.2750 N   0  0  0  0  0  0  0  0  0  0  0  0
   -6.2194   36.3098  -18.4469 C   0  0  0  0  0  0  0  0  0  0  0  0
   -6.2271   36.9814  -17.2509 N   0  0  0  0  0  0  0  0  0  0  0  0
   -5.1247   37.7056  -16.8895 C   0  0  0  0  0  0  0  0  0  0  0  0
   -4.0509   37.7543  -17.6901 C   0  0  0  0  0  0  0  0  0  0  0  0
   -4.0550   37.0766  -18.9080 C   0  0  0  0  0  0  0  0  0  0  0  0
   -2.9958   37.0474  -19.8366 N   0  0  0  0  0  0  0  0  0  0  0  0
   -3.1251   38.5349  -17.0935 N   0  0  0  0  0  0  0  0  0  0  0  0
   -3.6406   38.9632  -15.9061 C   0  0  0  0  0  0  0  0  0  0  0  0
   -4.8792   38.4675  -15.7863 N   0  0  0  0  0  0  0  0  0  0  0  0
  -11.2100   35.7381  -17.9236 N   0  0  0  0  0  0  0  0  0  0  0  0
  -10.3284   35.8547  -16.8962 C   0  0  0  0  0  0  0  0  0  0  0  0
  -10.2725   34.8791  -15.9410 N   0  0  0  0  0  0  0  0  0  0  0  0
  -11.0901   33.7948  -16.0204 C   0  0  0  0  0  0  0  0  0  0  0  0
  -11.9642   33.6702  -17.0395 C   0  0  0  0  0  0  0  0  0  0  0  0
  -12.0172   34.6704  -18.0059 C   0  0  0  0  0  0  0  0  0  0  0  0
  -12.8777   34.7530  -19.1583 N   0  0  0  0  0  0  0  0  0  0  0  0
  -12.6368   32.5087  -16.8565 N   0  0  0  0  0  0  0  0  0  0  0  0
  -12.1668   31.9170  -15.7212 C   0  0  0  0  0  0  0  0  0  0  0  0
  -11.2088   32.7185  -15.2134 N   0  0  0  0  0  0  0  0  0  0  0  0
  1  3  1  1  0  0  0
  1  5  2  0  0  0  0
  1  9  1  0  0  0  0
  1 18  1  0  0  0  0
  2  4  1  6  0  0  0
  2  6  2  0  0  0  0
  2 10  1  0  0  0  0
  2 17  1  0  0  0  0
  7  9  1  0  0  0  0
  8 10  1  0  0  0  0
 11  7  1  6  0  0  0
 11 13  1  0  0  0  0
 11 15  1  0  0  0  0
 12  8  1  6  0  0  0
 12 14  1  0  0  0  0
 12 16  1  0  0  0  0
 13 23  1  0  0  0  0
 14 24  1  0  0  0  0
 15 17  1  1  0  0  0
 15 19  1  0  0  0  0
 16 18  1  1  0  0  0
 16 20  1  0  0  0  0
 19 21  1  1  0  0  0
 19 23  1  0  0  0  0
 20 22  1  1  0  0  0
 20 24  1  0  0  0  0
 23 34  1  6  0  0  0
 24 44  1  6  0  0  0
 25 26  2  0  0  0  0
 25 30  1  0  0  0  0
 26 27  1  0  0  0  0
 27 28  2  0  0  0  0
 28 29  1  0  0  0  0
 28 34  1  0  0  0  0
 29 30  2  0  0  0  0
 29 32  1  0  0  0  0
 30 31  1  0  0  0  0
 32 33  2  0  0  0  0
 33 34  1  0  0  0  0
 35 36  2  0  0  0  0
 35 40  1  0  0  0  0
 36 37  1  0  0  0  0
 37 38  2  0  0  0  0
 38 39  1  0  0  0  0
 38 44  1  0  0  0  0
 39 40  2  0  0  0  0
 39 42  1  0  0  0  0
 40 41  1  0  0  0  0
 42 43  2  0  0  0  0
 43 44  1  0  0  0  0
M  CHG  2   3  -1   4  -1
M  END
>  <CHROM.1>
90.94363285,57.74585785,-8.02574718,35.64178010,-15.01957713,-0.37886944
0.52640146,1.96423328

>  <Name>
ligand

>  <RI>
0

>  <Rbt.Current_Directory>
/home/itssahil/PROJECTS/Mol_Feturizer/New_Systems/rnas/4QLM

>  <Rbt.Executable>
rbdock ($Id: //depot/dev/client3/rdock/2013.1/src/exe/rbdock.cxx#4 $)

>  <Rbt.Library>
libRbt.so (2013.1, Build901 2013/11/27)

>  <Rbt.Parameter_File>
/export/apps/rDock/src/rDock_2013.1_src/data/scripts/dock_solv.prm

>  <Rbt.Receptor>
prm/pocket_docking_4.prm

>  <SCORE>
-12.8213

>  <SCORE.INTER>
-11.5975

>  <SCORE.INTER.CONST>
1

>  <SCORE.INTER.POLAR>
0

>  <SCORE.INTER.ROT>
2

>  <SCORE.INTER.SOLV>
20.0796

>  <SCORE.INTER.VDW>
-19.3582

>  <SCORE.INTER.norm>
-0.263579

>  <SCORE.INTRA>
-1.22583

>  <SCORE.INTRA.DIHEDRAL>
-0.0349903

>  <SCORE.INTRA.DIHEDRAL.0>
2.32994

>  <SCORE.INTRA.POLAR>
0

>  <SCORE.INTRA.POLAR.0>
0

>  <SCORE.INTRA.REPUL>
0

>  <SCORE.INTRA.REPUL.0>
0

>  <SCORE.INTRA.SOLV>
1.0909

>  <SCORE.INTRA.SOLV.lig_0>
-117.703

>  <SCORE.INTRA.VDW>
-1.75378

>  <SCORE.INTRA.VDW.0>
-1.59997

>  <SCORE.INTRA.norm>
-0.0278597

>  <SCORE.RESTR>
0.00202775

>  <SCORE.RESTR.CAVITY>
0.00202775

>  <SCORE.RESTR.norm>
4.60852e-05

>  <SCORE.SYSTEM>
0

>  <SCORE.SYSTEM.CONST>
0

>  <SCORE.SYSTEM.DIHEDRAL>
0

>  <SCORE.SYSTEM.SOLV>
0

>  <SCORE.SYSTEM.norm>
0

>  <SCORE.heavy>
44

>  <SCORE.norm>
-0.291393

>  <RMSD>
4.086

$$$$
ligand
 OpenBabel11021811513D
libRbt.so/2013.1/901 2013/11/27
 44 50  0  0  0  0  0  0  0  0999 V2000
   -6.1938   33.6526  -13.2704 P   0  0  2  0  0  0  0  0  0  0  0  0
   -9.8454   37.6304  -13.4905 P   0  0  1  0  0  0  0  0  0  0  0  0
   -5.0571   33.5289  -12.2590 O   0  5  0  0  0  0  0  0  0  0  0  0
   -9.9734   37.9582  -14.9582 O   0  5  0  0  0  0  0  0  0  0  0  0
   -5.7431   32.9032  -14.5012 O   0  0  0  0  0  0  0  0  0  0  0  0
  -11.0197   38.3204  -12.7598 O   0  0  0  0  0  0  0  0  0  0  0  0
   -6.0359   36.0221  -12.3753 C   0  0  0  0  0  0  0  0  0  0  0  0
   -9.5082   35.4847  -12.0938 C   0  0  0  0  0  0  0  0  0  0  0  0
   -6.3721   35.1892  -13.4930 O   0  0  0  0  0  0  0  0  0  0  0  0
   -9.7499   35.9894  -13.4375 O   0  0  0  0  0  0  0  0  0  0  0  0
   -6.2099   37.4916  -12.7440 C   0  0  1  0  0  0  0  0  0  0  0  0
   -9.5838   33.9144  -12.1935 C   0  0  1  0  0  0  0  0  0  0  0  0
   -5.1243   37.8927  -13.3296 O   0  0  0  0  0  0  0  0  0  0  0  0
  -10.6810   33.6704  -12.7856 O   0  0  0  0  0  0  0  0  0  0  0  0
   -7.3412   37.7322  -13.7169 C   0  0  1  0  0  0  0  0  0  0  0  0
   -8.5374   33.3736  -13.1883 C   0  0  1  0  0  0  0  0  0  0  0  0
   -8.3990   38.1688  -12.9829 O   0  0  0  0  0  0  0  0  0  0  0  0
   -7.4710   32.8743  -12.5517 O   0  0  0  0  0  0  0  0  0  0  0  0
   -6.8007   38.8851  -14.6326 C   0  0  1  0  0  0  0  0  0  0  0  0
   -9.2408   32.2892  -14.0361 C   0  0  1  0  0  0  0  0  0  0  0  0
   -7.3973   40.1851  -14.2233 O   0  0  0  0  0  0  0  0  0  0  0  0
   -8.8517   30.9209  -13.5653 O   0  0  0  0  0  0  0  0  0  0  0  0
   -5.5140   38.8988  -14.4913 C   0  0  2  0  0  0  0  0  0  0  0  0
  -10.5001   32.4738  -13.8331 C   0  0  2  0  0  0  0  0  0  0  0  0
   -5.1515   36.3330  -19.1931 N   0  0  0  0  0  0  0  0  0  0  0  0
   -6.2222   36.3006  -18.3506 C   0  0  0  0  0  0  0  0  0  0  0  0
   -6.2164   36.9952  -17.1678 N   0  0  0  0  0  0  0  0  0  0  0  0
   -5.1115   37.7288  -16.8344 C   0  0  0  0  0  0  0  0  0  0  0  0
   -4.0480   37.7645  -17.6493 C   0  0  0  0  0  0  0  0  0  0  0  0
   -4.0658   37.0634  -18.8538 C   0  0  0  0  0  0  0  0  0  0  0  0
   -3.0183   37.0188  -19.7950 N   0  0  0  0  0  0  0  0  0  0  0  0
   -3.1168   38.5587  -17.0797 N   0  0  0  0  0  0  0  0  0  0  0  0
   -3.6184   39.0086  -15.8943 C   0  0  0  0  0  0  0  0  0  0  0  0
   -4.8541   38.5125  -15.7493 N   0  0  0  0  0  0  0  0  0  0  0  0
  -11.2137   35.7843  -17.7893 N   0  0  0  0  0  0  0  0  0  0  0  0
  -10.3193   35.9094  -16.7740 C   0  0  0  0  0  0  0  0  0  0  0  0
  -10.2624   34.9498  -15.8028 N   0  0  0  0  0  0  0  0  0  0  0  0
  -11.0917   33.8727  -15.8544 C   0  0  0  0  0  0  0  0  0  0  0  0
  -11.9785   33.7396  -16.8614 C   0  0  0  0  0  0  0  0  0  0  0  0
  -12.0325   34.7237  -17.8442 C   0  0  0  0  0  0  0  0  0  0  0  0
  -12.9050   34.7954  -18.9881 N   0  0  0  0  0  0  0  0  0  0  0  0
  -12.6606   32.5884  -16.6509 N   0  0  0  0  0  0  0  0  0  0  0  0
  -12.1837   32.0114  -15.5109 C   0  0  0  0  0  0  0  0  0  0  0  0
  -11.2120   32.8116  -15.0277 N   0  0  0  0  0  0  0  0  0  0  0  0
  1  3  1  1  0  0  0
  1  5  2  0  0  0  0
  1  9  1  0  0  0  0
  1 18  1  0  0  0  0
  2  4  1  6  0  0  0
  2  6  2  0  0  0  0
  2 10  1  0  0  0  0
  2 17  1  0  0  0  0
  7  9  1  0  0  0  0
  8 10  1  0  0  0  0
 11  7  1  6  0  0  0
 11 13  1  0  0  0  0
 11 15  1  0  0  0  0
 12  8  1  6  0  0  0
 12 14  1  0  0  0  0
 12 16  1  0  0  0  0
 13 23  1  0  0  0  0
 14 24  1  0  0  0  0
 15 17  1  1  0  0  0
 15 19  1  0  0  0  0
 16 18  1  1  0  0  0
 16 20  1  0  0  0  0
 19 21  1  1  0  0  0
 19 23  1  0  0  0  0
 20 22  1  1  0  0  0
 20 24  1  0  0  0  0
 23 34  1  6  0  0  0
 24 44  1  6  0  0  0
 25 26  2  0  0  0  0
 25 30  1  0  0  0  0
 26 27  1  0  0  0  0
 27 28  2  0  0  0  0
 28 29  1  0  0  0  0
 28 34  1  0  0  0  0
 29 30  2  0  0  0  0
 29 32  1  0  0  0  0
 30 31  1  0  0  0  0
 32 33  2  0  0  0  0
 33 34  1  0  0  0  0
 35 36  2  0  0  0  0
 35 40  1  0  0  0  0
 36 37  1  0  0  0  0
 37 38  2  0  0  0  0
 38 39  1  0  0  0  0
 38 44  1  0  0  0  0
 39 40  2  0  0  0  0
 39 42  1  0  0  0  0
 40 41  1  0  0  0  0
 42 43  2  0  0  0  0
 43 44  1  0  0  0  0
M  CHG  2   3  -1   4  -1
M  END
>  <CHROM.1>
90.36939638,58.02155103,-8.00825071,35.71610956,-14.90906105,-0.38440805
0.51835595,1.94942268

>  <Name>
ligand

>  <RI>
0

>  <Rbt.Current_Directory>
/home/itssahil/PROJECTS/Mol_Feturizer/New_Systems/rnas/4QLM

>  <Rbt.Executable>
rbdock ($Id: //depot/dev/client3/rdock/2013.1/src/exe/rbdock.cxx#4 $)

>  <Rbt.Library>
libRbt.so (2013.1, Build901 2013/11/27)

>  <Rbt.Parameter_File>
/export/apps/rDock/src/rDock_2013.1_src/data/scripts/dock_solv.prm

>  <Rbt.Receptor>
prm/pocket_docking_5.prm

>  <SCORE>
-12.8744

>  <SCORE.INTER>
-11.6136

>  <SCORE.INTER.CONST>
1

>  <SCORE.INTER.POLAR>
0

>  <SCORE.INTER.ROT>
2

>  <SCORE.INTER.SOLV>
18.8731

>  <SCORE.INTER.VDW>
-18.9668

>  <SCORE.INTER.norm>
-0.263945

>  <SCORE.INTRA>
-1.2608

>  <SCORE.INTRA.DIHEDRAL>
-0.0352166

>  <SCORE.INTRA.DIHEDRAL.0>
2.32994

>  <SCORE.INTRA.POLAR>
0

>  <SCORE.INTRA.POLAR.0>
0

>  <SCORE.INTRA.REPUL>
0

>  <SCORE.INTRA.REPUL.0>
0

>  <SCORE.INTRA.SOLV>
1.08028

>  <SCORE.INTRA.SOLV.lig_0>
-117.703

>  <SCORE.INTRA.VDW>
-1.78333

>  <SCORE.INTRA.VDW.0>
-1.59997

>  <SCORE.INTRA.norm>
-0.0286545

>  <SCORE.RESTR>
0

>  <SCORE.RESTR.CAVITY>
0

>  <SCORE.RESTR.norm>
0

>  <SCORE.SYSTEM>
0

>  <SCORE.SYSTEM.CONST>
0

>  <SCORE.SYSTEM.DIHEDRAL>
0

>  <SCORE.SYSTEM.SOLV>
0

>  <SCORE.SYSTEM.norm>
0

>  <SCORE.heavy>
44

>  <SCORE.norm>
-0.292599

>  <RMSD>
4.109

$$$$
ligand
 OpenBabel11021811513D
libRbt.so/2013.1/901 2013/11/27
 44 50  0  0  0  0  0  0  0  0999 V2000
   -6.3639   33.8163  -13.1002 P   0  0  2  0  0  0  0  0  0  0  0  0
  -10.0784   37.7148  -13.5577 P   0  0  1  0  0  0  0  0  0  0  0  0
   -5.2558   33.7470  -12.0524 O   0  5  0  0  0  0  0  0  0  0  0  0
  -10.1684   37.9925  -15.0385 O   0  5  0  0  0  0  0  0  0  0  0  0
   -5.8632   33.0362  -14.2919 O   0  0  0  0  0  0  0  0  0  0  0  0
  -11.2863   38.4056  -12.8848 O   0  0  0  0  0  0  0  0  0  0  0  0
   -6.2755   36.2161  -12.2792 C   0  0  0  0  0  0  0  0  0  0  0  0
   -9.7444   35.6222  -12.0820 C   0  0  0  0  0  0  0  0  0  0  0  0
   -6.5632   35.3413  -13.3783 O   0  0  0  0  0  0  0  0  0  0  0  0
   -9.9549   36.0785  -13.4481 O   0  0  0  0  0  0  0  0  0  0  0  0
   -6.4649   37.6693  -12.7010 C   0  0  1  0  0  0  0  0  0  0  0  0
   -9.7886   34.0483  -12.1321 C   0  0  1  0  0  0  0  0  0  0  0  0
   -5.3697   38.0718  -13.2675 O   0  0  0  0  0  0  0  0  0  0  0  0
  -10.8631   33.7645  -12.7477 O   0  0  0  0  0  0  0  0  0  0  0  0
   -7.5708   37.8568  -13.7140 C   0  0  1  0  0  0  0  0  0  0  0  0
   -8.7035   33.4956  -13.0776 C   0  0  1  0  0  0  0  0  0  0  0  0
   -8.6578   38.2968  -13.0260 O   0  0  0  0  0  0  0  0  0  0  0  0
   -7.6478   33.0375  -12.3939 O   0  0  0  0  0  0  0  0  0  0  0  0
   -7.0241   38.9896  -14.6509 C   0  0  1  0  0  0  0  0  0  0  0  0
   -9.3616   32.3713  -13.9094 C   0  0  1  0  0  0  0  0  0  0  0  0
   -7.6560   40.2905  -14.3022 O   0  0  0  0  0  0  0  0  0  0  0  0
   -8.9621   31.0265  -13.3827 O   0  0  0  0  0  0  0  0  0  0  0  0
   -5.7426   39.0322  -14.4725 C   0  0  2  0  0  0  0  0  0  0  0  0
  -10.6295   32.5384  -13.7495 C   0  0  2  0  0  0  0  0  0  0  0  0
   -5.2208   36.3744  -19.1077 N   0  0  0  0  0  0  0  0  0  0  0  0
   -6.3225   36.3644  -18.3056 C   0  0  0  0  0  0  0  0  0  0  0  0
   -6.3566   37.0816  -17.1368 N   0  0  0  0  0  0  0  0  0  0  0  0
   -5.2602   37.8151  -16.7762 C   0  0  0  0  0  0  0  0  0  0  0  0
   -4.1667   37.8291  -17.5511 C   0  0  0  0  0  0  0  0  0  0  0  0
   -4.1439   37.1051  -18.7419 C   0  0  0  0  0  0  0  0  0  0  0  0
   -3.0622   37.0363  -19.6421 N   0  0  0  0  0  0  0  0  0  0  0  0
   -3.2524   38.6287  -16.9622 N   0  0  0  0  0  0  0  0  0  0  0  0
   -3.7952   39.1042  -15.8052 C   0  0  0  0  0  0  0  0  0  0  0  0
   -5.0386   38.6180  -15.6973 N   0  0  0  0  0  0  0  0  0  0  0  0
  -11.3289   35.7367  -17.7994 N   0  0  0  0  0  0  0  0  0  0  0  0
  -10.4761   35.9172  -16.7570 C   0  0  0  0  0  0  0  0  0  0  0  0
  -10.4169   34.9806  -15.7637 N   0  0  0  0  0  0  0  0  0  0  0  0
  -11.2024   33.8715  -15.8201 C   0  0  0  0  0  0  0  0  0  0  0  0
  -12.0477   33.6835  -16.8537 C   0  0  0  0  0  0  0  0  0  0  0  0
  -12.1045   34.6444  -17.8591 C   0  0  0  0  0  0  0  0  0  0  0  0
  -12.9385   34.6587  -19.0335 N   0  0  0  0  0  0  0  0  0  0  0  0
  -12.6926   32.5113  -16.6415 N   0  0  0  0  0  0  0  0  0  0  0  0
  -12.2345   31.9768  -15.4735 C   0  0  0  0  0  0  0  0  0  0  0  0
  -11.3113   32.8238  -14.9750 N   0  0  0  0  0  0  0  0  0  0  0  0
  1  3  1  1  0  0  0
  1  5  2  0  0  0  0
  1  9  1  0  0  0  0
  1 18  1  0  0  0  0
  2  4  1  6  0  0  0
  2  6  2  0  0  0  0
  2 10  1  0  0  0  0
  2 17  1  0  0  0  0
  7  9  1  0  0  0  0
  8 10  1  0  0  0  0
 11  7  1  6  0  0  0
 11 13  1  0  0  0  0
 11 15  1  0  0  0  0
 12  8  1  6  0  0  0
 12 14  1  0  0  0  0
 12 16  1  0  0  0  0
 13 23  1  0  0  0  0
 14 24  1  0  0  0  0
 15 17  1  1  0  0  0
 15 19  1  0  0  0  0
 16 18  1  1  0  0  0
 16 20  1  0  0  0  0
 19 21  1  1  0  0  0
 19 23  1  0  0  0  0
 20 22  1  1  0  0  0
 20 24  1  0  0  0  0
 23 34  1  6  0  0  0
 24 44  1  6  0  0  0
 25 26  2  0  0  0  0
 25 30  1  0  0  0  0
 26 27  1  0  0  0  0
 27 28  2  0  0  0  0
 28 29  1  0  0  0  0
 28 34  1  0  0  0  0
 29 30  2  0  0  0  0
 29 32  1  0  0  0  0
 30 31  1  0  0  0  0
 32 33  2  0  0  0  0
 33 34  1  0  0  0  0
 35 36  2  0  0  0  0
 35 40  1  0  0  0  0
 36 37  1  0  0  0  0
 37 38  2  0  0  0  0
 38 39  1  0  0  0  0
 38 44  1  0  0  0  0
 39 40  2  0  0  0  0
 39 42  1  0  0  0  0
 40 41  1  0  0  0  0
 42 43  2  0  0  0  0
 43 44  1  0  0  0  0
M  CHG  2   3  -1   4  -1
M  END
>  <CHROM.1>
92.03994607,56.68189702,-8.17084745,35.79672684,-14.85798169,-0.37005691
0.53974976,1.92161774

>  <Name>
ligand

>  <RI>
0

>  <Rbt.Current_Directory>
/home/itssahil/PROJECTS/Mol_Feturizer/New_Systems/rnas/4QLM

>  <Rbt.Executable>
rbdock ($Id: //depot/dev/client3/rdock/2013.1/src/exe/rbdock.cxx#4 $)

>  <Rbt.Library>
libRbt.so (2013.1, Build901 2013/11/27)

>  <Rbt.Parameter_File>
/export/apps/rDock/src/rDock_2013.1_src/data/scripts/dock_solv.prm

>  <Rbt.Receptor>
prm/pocket_docking_6.prm

>  <SCORE>
-12.8959

>  <SCORE.INTER>
-11.8082

>  <SCORE.INTER.CONST>
1

>  <SCORE.INTER.POLAR>
0

>  <SCORE.INTER.ROT>
2

>  <SCORE.INTER.SOLV>
18.415

>  <SCORE.INTER.VDW>
-18.9438

>  <SCORE.INTER.norm>
-0.268368

>  <SCORE.INTRA>
-1.08775

>  <SCORE.INTRA.DIHEDRAL>
-0.0345993

>  <SCORE.INTRA.DIHEDRAL.0>
2.32994

>  <SCORE.INTRA.POLAR>
0

>  <SCORE.INTRA.POLAR.0>
0

>  <SCORE.INTRA.REPUL>
0

>  <SCORE.INTRA.REPUL.0>
0

>  <SCORE.INTRA.SOLV>
1.1306

>  <SCORE.INTRA.SOLV.lig_0>
-117.703

>  <SCORE.INTRA.VDW>
-1.63575

>  <SCORE.INTRA.VDW.0>
-1.59997

>  <SCORE.INTRA.norm>
-0.0247217

>  <SCORE.RESTR>
0

>  <SCORE.RESTR.CAVITY>
0

>  <SCORE.RESTR.norm>
0

>  <SCORE.SYSTEM>
0

>  <SCORE.SYSTEM.CONST>
0

>  <SCORE.SYSTEM.DIHEDRAL>
0

>  <SCORE.SYSTEM.SOLV>
0

>  <SCORE.SYSTEM.norm>
0

>  <SCORE.heavy>
44

>  <SCORE.norm>
-0.293089

>  <RMSD>
4.137

$$$$
ligand
 OpenBabel11021811513D
libRbt.so/2013.1/901 2013/11/27
 44 50  0  0  0  0  0  0  0  0999 V2000
   -6.3770   33.8055  -13.0835 P   0  0  2  0  0  0  0  0  0  0  0  0
  -10.0720   37.7198  -13.5638 P   0  0  1  0  0  0  0  0  0  0  0  0
   -5.2804   33.7277  -12.0244 O   0  5  0  0  0  0  0  0  0  0  0  0
  -10.1453   38.0041  -15.0443 O   0  5  0  0  0  0  0  0  0  0  0  0
   -5.8665   33.0285  -14.2732 O   0  0  0  0  0  0  0  0  0  0  0  0
  -11.2843   38.4123  -12.9008 O   0  0  0  0  0  0  0  0  0  0  0  0
   -6.2884   36.2015  -12.2515 C   0  0  0  0  0  0  0  0  0  0  0  0
   -9.7614   35.6198  -12.0935 C   0  0  0  0  0  0  0  0  0  0  0  0
   -6.5677   35.3324  -13.3573 O   0  0  0  0  0  0  0  0  0  0  0  0
   -9.9557   36.0826  -13.4598 O   0  0  0  0  0  0  0  0  0  0  0  0
   -6.4680   37.6572  -12.6691 C   0  0  1  0  0  0  0  0  0  0  0  0
   -9.8109   34.0463  -12.1508 C   0  0  1  0  0  0  0  0  0  0  0  0
   -5.3653   38.0579  -13.2222 O   0  0  0  0  0  0  0  0  0  0  0  0
  -10.8798   33.7691  -12.7790 O   0  0  0  0  0  0  0  0  0  0  0  0
   -7.5624   37.8530  -13.6929 C   0  0  1  0  0  0  0  0  0  0  0  0
   -8.7179   33.4935  -13.0871 C   0  0  1  0  0  0  0  0  0  0  0  0
   -8.6549   38.2942  -13.0146 O   0  0  0  0  0  0  0  0  0  0  0  0
   -7.6711   33.0286  -12.3943 O   0  0  0  0  0  0  0  0  0  0  0  0
   -7.0015   38.9877  -14.6192 C   0  0  1  0  0  0  0  0  0  0  0  0
   -9.3712   32.3751  -13.9306 C   0  0  1  0  0  0  0  0  0  0  0  0
   -7.6323   40.2895  -14.2716 O   0  0  0  0  0  0  0  0  0  0  0  0
   -8.9824   31.0267  -13.4054 O   0  0  0  0  0  0  0  0  0  0  0  0
   -5.7219   39.0248  -14.4270 C   0  0  2  0  0  0  0  0  0  0  0  0
  -10.6401   32.5463  -13.7835 C   0  0  2  0  0  0  0  0  0  0  0  0
   -5.1278   36.3213  -19.0270 N   0  0  0  0  0  0  0  0  0  0  0  0
   -6.2294   36.2931  -18.2252 C   0  0  0  0  0  0  0  0  0  0  0  0
   -6.2830   37.0243  -17.0659 N   0  0  0  0  0  0  0  0  0  0  0  0
   -5.2063   37.7907  -16.7144 C   0  0  0  0  0  0  0  0  0  0  0  0
   -4.1130   37.8231  -17.4891 C   0  0  0  0  0  0  0  0  0  0  0  0
   -4.0705   37.0844  -18.6703 C   0  0  0  0  0  0  0  0  0  0  0  0
   -2.9868   37.0321  -19.5691 N   0  0  0  0  0  0  0  0  0  0  0  0
   -3.2203   38.6538  -16.9103 N   0  0  0  0  0  0  0  0  0  0  0  0
   -3.7760   39.1301  -15.7598 C   0  0  0  0  0  0  0  0  0  0  0  0
   -5.0064   38.6132  -15.6460 N   0  0  0  0  0  0  0  0  0  0  0  0
  -11.2204   35.7183  -17.8727 N   0  0  0  0  0  0  0  0  0  0  0  0
  -10.3660   35.8831  -16.8291 C   0  0  0  0  0  0  0  0  0  0  0  0
  -10.3409   34.9568  -15.8248 N   0  0  0  0  0  0  0  0  0  0  0  0
  -11.1619   33.8731  -15.8715 C   0  0  0  0  0  0  0  0  0  0  0  0
  -12.0091   33.7007  -16.9063 C   0  0  0  0  0  0  0  0  0  0  0  0
  -12.0309   34.6511  -17.9229 C   0  0  0  0  0  0  0  0  0  0  0  0
  -12.8597   34.6789  -19.1008 N   0  0  0  0  0  0  0  0  0  0  0  0
  -12.6926   32.5527  -16.6832 N   0  0  0  0  0  0  0  0  0  0  0  0
  -12.2563   32.0172  -15.5073 C   0  0  0  0  0  0  0  0  0  0  0  0
  -11.3079   32.8394  -15.0148 N   0  0  0  0  0  0  0  0  0  0  0  0
  1  3  1  1  0  0  0
  1  5  2  0  0  0  0
  1  9  1  0  0  0  0
  1 18  1  0  0  0  0
  2  4  1  6  0  0  0
  2  6  2  0  0  0  0
  2 10  1  0  0  0  0
  2 17  1  0  0  0  0
  7  9  1  0  0  0  0
  8 10  1  0  0  0  0
 11  7  1  6  0  0  0
 11 13  1  0  0  0  0
 11 15  1  0  0  0  0
 12  8  1  6  0  0  0
 12 14  1  0  0  0  0
 12 16  1  0  0  0  0
 13 23  1  0  0  0  0
 14 24  1  0  0  0  0
 15 17  1  1  0  0  0
 15 19  1  0  0  0  0
 16 18  1  1  0  0  0
 16 20  1  0  0  0  0
 19 21  1  1  0  0  0
 19 23  1  0  0  0  0
 20 22  1  1  0  0  0
 20 24  1  0  0  0  0
 23 34  1  6  0  0  0
 24 44  1  6  0  0  0
 25 26  2  0  0  0  0
 25 30  1  0  0  0  0
 26 27  1  0  0  0  0
 27 28  2  0  0  0  0
 28 29  1  0  0  0  0
 28 34  1  0  0  0  0
 29 30  2  0  0  0  0
 29 32  1  0  0  0  0
 30 31  1  0  0  0  0
 32 33  2  0  0  0  0
 33 34  1  0  0  0  0
 35 36  2  0  0  0  0
 35 40  1  0  0  0  0
 36 37  1  0  0  0  0
 37 38  2  0  0  0  0
 38 39  1  0  0  0  0
 38 44  1  0  0  0  0
 39 40  2  0  0  0  0
 39 42  1  0  0  0  0
 40 41  1  0  0  0  0
 42 43  2  0  0  0  0
 43 44  1  0  0  0  0
M  CHG  2   3  -1   4  -1
M  END
>  <CHROM.1>
89.98727467,58.60436156,-8.15056865,35.79236924,-14.85266997,-0.34282631
0.54853952,1.89478650

>  <Name>
ligand

>  <RI>
0

>  <Rbt.Current_Directory>
/home/itssahil/PROJECTS/Mol_Feturizer/New_Systems/rnas/4QLM

>  <Rbt.Executable>
rbdock ($Id: //depot/dev/client3/rdock/2013.1/src/exe/rbdock.cxx#4 $)

>  <Rbt.Library>
libRbt.so (2013.1, Build901 2013/11/27)

>  <Rbt.Parameter_File>
/export/apps/rDock/src/rDock_2013.1_src/data/scripts/dock_solv.prm

>  <Rbt.Receptor>
prm/pocket_docking_5.prm

>  <SCORE>
-12.9121

>  <SCORE.INTER>
-11.6253

>  <SCORE.INTER.CONST>
1

>  <SCORE.INTER.POLAR>
0

>  <SCORE.INTER.ROT>
2

>  <SCORE.INTER.SOLV>
18.7949

>  <SCORE.INTER.VDW>
-18.9485

>  <SCORE.INTER.norm>
-0.264212

>  <SCORE.INTRA>
-1.28675

>  <SCORE.INTRA.DIHEDRAL>
-0.0350886

>  <SCORE.INTRA.DIHEDRAL.0>
2.32994

>  <SCORE.INTRA.POLAR>
0

>  <SCORE.INTRA.POLAR.0>
0

>  <SCORE.INTRA.REPUL>
0

>  <SCORE.INTRA.REPUL.0>
0

>  <SCORE.INTRA.SOLV>
1.05759

>  <SCORE.INTRA.SOLV.lig_0>
-117.703

>  <SCORE.INTRA.VDW>
-1.798

>  <SCORE.INTRA.VDW.0>
-1.59997

>  <SCORE.INTRA.norm>
-0.0292443

>  <SCORE.RESTR>
0

>  <SCORE.RESTR.CAVITY>
0

>  <SCORE.RESTR.norm>
0

>  <SCORE.SYSTEM>
0

>  <SCORE.SYSTEM.CONST>
0

>  <SCORE.SYSTEM.DIHEDRAL>
0

>  <SCORE.SYSTEM.SOLV>
0

>  <SCORE.SYSTEM.norm>
0

>  <SCORE.heavy>
44

>  <SCORE.norm>
-0.293456

>  <RMSD>
4.138

$$$$
ligand
 OpenBabel11021811513D
libRbt.so/2013.1/901 2013/11/27
 44 50  0  0  0  0  0  0  0  0999 V2000
   -9.8452   38.0152  -13.2763 P   0  0  2  0  0  0  0  0  0  0  0  0
   -5.7944   34.4682  -12.8121 P   0  0  1  0  0  0  0  0  0  0  0  0
  -10.9823   38.2188  -12.2782 O   0  5  0  0  0  0  0  0  0  0  0  0
   -5.6416   33.8719  -14.1902 O   0  5  0  0  0  0  0  0  0  0  0  0
  -10.3805   38.4564  -14.6172 O   0  0  0  0  0  0  0  0  0  0  0  0
   -4.5490   34.0603  -11.9925 O   0  0  0  0  0  0  0  0  0  0  0  0
   -9.7457   35.8656  -11.9306 C   0  0  0  0  0  0  0  0  0  0  0  0
   -6.3481   36.8014  -11.8539 C   0  0  0  0  0  0  0  0  0  0  0  0
   -9.5066   36.4914  -13.1985 O   0  0  0  0  0  0  0  0  0  0  0  0
   -6.0628   36.0687  -13.0789 O   0  0  0  0  0  0  0  0  0  0  0  0
   -9.4194   34.3780  -12.0092 C   0  0  1  0  0  0  0  0  0  0  0  0
   -6.4399   38.3204  -12.2610 C   0  0  1  0  0  0  0  0  0  0  0  0
  -10.4600   33.7600  -12.4754 O   0  0  0  0  0  0  0  0  0  0  0  0
   -5.3785   38.5538  -12.9189 O   0  0  0  0  0  0  0  0  0  0  0  0
   -8.2750   34.0674  -12.9464 C   0  0  1  0  0  0  0  0  0  0  0  0
   -7.5438   38.5437  -13.3138 C   0  0  1  0  0  0  0  0  0  0  0  0
   -7.1724   33.8951  -12.1700 O   0  0  0  0  0  0  0  0  0  0  0  0
   -8.6531   39.0469  -12.7586 O   0  0  0  0  0  0  0  0  0  0  0  0
   -8.6962   32.7070  -13.6038 C   0  0  1  0  0  0  0  0  0  0  0  0
   -6.9646   39.5056  -14.3761 C   0  0  1  0  0  0  0  0  0  0  0  0
   -7.9627   31.5817  -12.9642 O   0  0  0  0  0  0  0  0  0  0  0  0
   -7.4934   40.8927  -14.1719 O   0  0  0  0  0  0  0  0  0  0  0  0
   -9.9733   32.5897  -13.4277 C   0  0  2  0  0  0  0  0  0  0  0  0
   -5.6916   39.4949  -14.1751 C   0  0  2  0  0  0  0  0  0  0  0  0
  -11.2031   34.7409  -18.1902 N   0  0  0  0  0  0  0  0  0  0  0  0
  -10.2918   35.2360  -17.3061 C   0  0  0  0  0  0  0  0  0  0  0  0
  -10.0483   34.6084  -16.1109 N   0  0  0  0  0  0  0  0  0  0  0  0
  -10.7386   33.4674  -15.8078 C   0  0  0  0  0  0  0  0  0  0  0  0
  -11.6431   32.9725  -16.6641 C   0  0  0  0  0  0  0  0  0  0  0  0
  -11.8777   33.6111  -17.8805 C   0  0  0  0  0  0  0  0  0  0  0  0
  -12.7972   33.1955  -18.8638 N   0  0  0  0  0  0  0  0  0  0  0  0
  -12.1614   31.8525  -16.1168 N   0  0  0  0  0  0  0  0  0  0  0  0
  -11.5679   31.6659  -14.9035 C   0  0  0  0  0  0  0  0  0  0  0  0
  -10.6783   32.6501  -14.7187 N   0  0  0  0  0  0  0  0  0  0  0  0
   -5.7193   37.0520  -18.7741 N   0  0  0  0  0  0  0  0  0  0  0  0
   -6.7926   37.3060  -17.9806 C   0  0  0  0  0  0  0  0  0  0  0  0
   -6.6141   37.9556  -16.7917 N   0  0  0  0  0  0  0  0  0  0  0  0
   -5.3706   38.3509  -16.4068 C   0  0  0  0  0  0  0  0  0  0  0  0
   -4.3016   38.1062  -17.1913 C   0  0  0  0  0  0  0  0  0  0  0  0
   -4.4919   37.4406  -18.3988 C   0  0  0  0  0  0  0  0  0  0  0  0
   -3.5022   37.0614  -19.3743 N   0  0  0  0  0  0  0  0  0  0  0  0
   -3.2123   38.6043  -16.5585 N   0  0  0  0  0  0  0  0  0  0  0  0
   -3.6191   39.1619  -15.3823 C   0  0  0  0  0  0  0  0  0  0  0  0
   -4.9555   39.0027  -15.2993 N   0  0  0  0  0  0  0  0  0  0  0  0
  1  3  1  1  0  0  0
  1  5  2  0  0  0  0
  1  9  1  0  0  0  0
  1 18  1  0  0  0  0
  2  4  1  6  0  0  0
  2  6  2  0  0  0  0
  2 10  1  0  0  0  0
  2 17  1  0  0  0  0
  7  9  1  0  0  0  0
  8 10  1  0  0  0  0
 11  7  1  6  0  0  0
 11 13  1  0  0  0  0
 11 15  1  0  0  0  0
 12  8  1  6  0  0  0
 12 14  1  0  0  0  0
 12 16  1  0  0  0  0
 13 23  1  0  0  0  0
 14 24  1  0  0  0  0
 15 17  1  1  0  0  0
 15 19  1  0  0  0  0
 16 18  1  1  0  0  0
 16 20  1  0  0  0  0
 19 21  1  1  0  0  0
 19 23  1  0  0  0  0
 20 22  1  1  0  0  0
 20 24  1  0  0  0  0
 23 34  1  6  0  0  0
 24 44  1  6  0  0  0
 25 26  2  0  0  0  0
 25 30  1  0  0  0  0
 26 27  1  0  0  0  0
 27 28  2  0  0  0  0
 28 29  1  0  0  0  0
 28 34  1  0  0  0  0
 29 30  2  0  0  0  0
 29 32  1  0  0  0  0
 30 31  1  0  0  0  0
 32 33  2  0  0  0  0
 33 34  1  0  0  0  0
 35 36  2  0  0  0  0
 35 40  1  0  0  0  0
 36 37  1  0  0  0  0
 37 38  2  0  0  0  0
 38 39  1  0  0  0  0
 38 44  1  0  0  0  0
 39 40  2  0  0  0  0
 39 42  1  0  0  0  0
 40 41  1  0  0  0  0
 42 43  2  0  0  0  0
 43 44  1  0  0  0  0
M  CHG  2   3  -1   4  -1
M  END
>  <CHROM.1>
67.65653215,107.41809944,-7.95343980,36.02089746,-14.60775205,-3.08451361
-0.75112839,-1.51344601

>  <Name>
ligand

>  <RI>
0

>  <Rbt.Current_Directory>
/home/itssahil/PROJECTS/Mol_Feturizer/New_Systems/rnas/4QLM

>  <Rbt.Executable>
rbdock ($Id: //depot/dev/client3/rdock/2013.1/src/exe/rbdock.cxx#4 $)

>  <Rbt.Library>
libRbt.so (2013.1, Build901 2013/11/27)

>  <Rbt.Parameter_File>
/export/apps/rDock/src/rDock_2013.1_src/data/scripts/dock_solv.prm

>  <Rbt.Receptor>
prm/pocket_docking_6.prm

>  <SCORE>
-12.7318

>  <SCORE.INTER>
-12.1175

>  <SCORE.INTER.CONST>
1

>  <SCORE.INTER.POLAR>
0

>  <SCORE.INTER.ROT>
2

>  <SCORE.INTER.SOLV>
19.8097

>  <SCORE.INTER.VDW>
-19.6149

>  <SCORE.INTER.norm>
-0.275397

>  <SCORE.INTRA>
-0.614389

>  <SCORE.INTRA.DIHEDRAL>
0.0277033

>  <SCORE.INTRA.DIHEDRAL.0>
2.32994

>  <SCORE.INTRA.POLAR>
0

>  <SCORE.INTRA.POLAR.0>
0

>  <SCORE.INTRA.REPUL>
0

>  <SCORE.INTRA.REPUL.0>
0

>  <SCORE.INTRA.SOLV>
0.0238797

>  <SCORE.INTRA.SOLV.lig_0>
-117.703

>  <SCORE.INTRA.VDW>
-0.640181

>  <SCORE.INTRA.VDW.0>
-1.59997

>  <SCORE.INTRA.norm>
-0.0139634

>  <SCORE.RESTR>
0

>  <SCORE.RESTR.CAVITY>
0

>  <SCORE.RESTR.norm>
0

>  <SCORE.SYSTEM>
0

>  <SCORE.SYSTEM.CONST>
0

>  <SCORE.SYSTEM.DIHEDRAL>
0

>  <SCORE.SYSTEM.SOLV>
0

>  <SCORE.SYSTEM.norm>
0

>  <SCORE.heavy>
44

>  <SCORE.norm>
-0.28936

>  <RMSD>
4.144

$$$$
ligand
 OpenBabel11021811513D
libRbt.so/2013.1/901 2013/11/27
 44 50  0  0  0  0  0  0  0  0999 V2000
  -10.0266   37.7886  -13.1655 P   0  0  2  0  0  0  0  0  0  0  0  0
   -5.9375   34.2678  -12.8668 P   0  0  1  0  0  0  0  0  0  0  0  0
  -11.1532   37.9484  -12.1478 O   0  5  0  0  0  0  0  0  0  0  0  0
   -5.7960   33.7186  -14.2654 O   0  5  0  0  0  0  0  0  0  0  0  0
  -10.5823   38.2684  -14.4848 O   0  0  0  0  0  0  0  0  0  0  0  0
   -4.6785   33.8454  -12.0759 O   0  0  0  0  0  0  0  0  0  0  0  0
   -9.8906   35.5971  -11.8927 C   0  0  0  0  0  0  0  0  0  0  0  0
   -6.5012   36.5628  -11.8257 C   0  0  0  0  0  0  0  0  0  0  0  0
   -9.6728   36.2664  -13.1421 O   0  0  0  0  0  0  0  0  0  0  0  0
   -6.2241   35.8736  -13.0774 O   0  0  0  0  0  0  0  0  0  0  0  0
   -9.5514   34.1162  -12.0241 C   0  0  1  0  0  0  0  0  0  0  0  0
   -6.6121   38.0934  -12.1814 C   0  0  1  0  0  0  0  0  0  0  0  0
  -10.5919   33.5036  -12.4980 O   0  0  0  0  0  0  0  0  0  0  0  0
   -5.5610   38.3586  -12.8439 O   0  0  0  0  0  0  0  0  0  0  0  0
   -8.4158   33.8476  -12.9846 C   0  0  1  0  0  0  0  0  0  0  0  0
   -7.7309   38.3405  -13.2131 C   0  0  1  0  0  0  0  0  0  0  0  0
   -7.3021   33.6607  -12.2275 O   0  0  0  0  0  0  0  0  0  0  0  0
   -8.8379   38.8143  -12.6285 O   0  0  0  0  0  0  0  0  0  0  0  0
   -8.8322   32.5055  -13.6814 C   0  0  1  0  0  0  0  0  0  0  0  0
   -7.1737   39.3423  -14.2499 C   0  0  1  0  0  0  0  0  0  0  0  0
   -8.0805   31.3670  -13.0880 O   0  0  0  0  0  0  0  0  0  0  0  0
   -7.7129   40.7167  -13.9939 O   0  0  0  0  0  0  0  0  0  0  0  0
  -10.1059   32.3700  -13.4941 C   0  0  2  0  0  0  0  0  0  0  0  0
   -5.8983   39.3374  -14.0645 C   0  0  2  0  0  0  0  0  0  0  0  0
  -11.0641   34.3576  -18.3882 N   0  0  0  0  0  0  0  0  0  0  0  0
  -10.0502   34.7376  -17.5607 C   0  0  0  0  0  0  0  0  0  0  0  0
   -9.8899   34.1650  -16.3246 N   0  0  0  0  0  0  0  0  0  0  0  0
  -10.7692   33.1980  -15.9221 C   0  0  0  0  0  0  0  0  0  0  0  0
  -11.7756   32.8189  -16.7220 C   0  0  0  0  0  0  0  0  0  0  0  0
  -11.9257   33.3991  -17.9804 C   0  0  0  0  0  0  0  0  0  0  0  0
  -12.9360   33.0911  -18.9128 N   0  0  0  0  0  0  0  0  0  0  0  0
  -12.4744   31.8584  -16.0807 N   0  0  0  0  0  0  0  0  0  0  0  0
  -11.8884   31.6539  -14.8666 C   0  0  0  0  0  0  0  0  0  0  0  0
  -10.8272   32.4659  -14.7738 N   0  0  0  0  0  0  0  0  0  0  0  0
   -5.9159   36.8305  -18.6292 N   0  0  0  0  0  0  0  0  0  0  0  0
   -6.9727   37.0087  -17.7939 C   0  0  0  0  0  0  0  0  0  0  0  0
   -6.7990   37.6886  -16.6214 N   0  0  0  0  0  0  0  0  0  0  0  0
   -5.5772   38.1893  -16.2943 C   0  0  0  0  0  0  0  0  0  0  0  0
   -4.5250   38.0203  -17.1204 C   0  0  0  0  0  0  0  0  0  0  0  0
   -4.7099   37.3231  -18.3107 C   0  0  0  0  0  0  0  0  0  0  0  0
   -3.7336   37.0108  -19.3228 N   0  0  0  0  0  0  0  0  0  0  0  0
   -3.4549   38.6148  -16.5402 N   0  0  0  0  0  0  0  0  0  0  0  0
   -3.8571   39.1553  -15.3545 C   0  0  0  0  0  0  0  0  0  0  0  0
   -5.1714   38.8894  -15.2130 N   0  0  0  0  0  0  0  0  0  0  0  0
  1  3  1  1  0  0  0
  1  5  2  0  0  0  0
  1  9  1  0  0  0  0
  1 18  1  0  0  0  0
  2  4  1  6  0  0  0
  2  6  2  0  0  0  0
  2 10  1  0  0  0  0
  2 17  1  0  0  0  0
  7  9  1  0  0  0  0
  8 10  1  0  0  0  0
 11  7  1  6  0  0  0
 11 13  1  0  0  0  0
 11 15  1  0  0  0  0
 12  8  1  6  0  0  0
 12 14  1  0  0  0  0
 12 16  1  0  0  0  0
 13 23  1  0  0  0  0
 14 24  1  0  0  0  0
 15 17  1  1  0  0  0
 15 19  1  0  0  0  0
 16 18  1  1  0  0  0
 16 20  1  0  0  0  0
 19 21  1  1  0  0  0
 19 23  1  0  0  0  0
 20 22  1  1  0  0  0
 20 24  1  0  0  0  0
 23 34  1  6  0  0  0
 24 44  1  6  0  0  0
 25 26  2  0  0  0  0
 25 30  1  0  0  0  0
 26 27  1  0  0  0  0
 27 28  2  0  0  0  0
 28 29  1  0  0  0  0
 28 34  1  0  0  0  0
 29 30  2  0  0  0  0
 29 32  1  0  0  0  0
 30 31  1  0  0  0  0
 32 33  2  0  0  0  0
 33 34  1  0  0  0  0
 35 36  2  0  0  0  0
 35 40  1  0  0  0  0
 36 37  1  0  0  0  0
 37 38  2  0  0  0  0
 38 39  1  0  0  0  0
 38 44  1  0  0  0  0
 39 40  2  0  0  0  0
 39 42  1  0  0  0  0
 40 41  1  0  0  0  0
 42 43  2  0  0  0  0
 43 44  1  0  0  0  0
M  CHG  2   3  -1   4  -1
M  END
>  <CHROM.1>
80.53578998,102.21905309,-8.10524952,35.82117368,-14.59100026,0.03612078
0.76902001,1.53530587

>  <Name>
ligand

>  <RI>
0

>  <Rbt.Current_Directory>
/home/itssahil/PROJECTS/Mol_Feturizer/New_Systems/rnas/4QLM

>  <Rbt.Executable>
rbdock ($Id: //depot/dev/client3/rdock/2013.1/src/exe/rbdock.cxx#4 $)

>  <Rbt.Library>
libRbt.so (2013.1, Build901 2013/11/27)

>  <Rbt.Parameter_File>
/export/apps/rDock/src/rDock_2013.1_src/data/scripts/dock_solv.prm

>  <Rbt.Receptor>
prm/pocket_docking_5.prm

>  <SCORE>
-12.3395

>  <SCORE.INTER>
-11.8136

>  <SCORE.INTER.CONST>
1

>  <SCORE.INTER.POLAR>
0

>  <SCORE.INTER.ROT>
2

>  <SCORE.INTER.SOLV>
20.1294

>  <SCORE.INTER.VDW>
-19.5189

>  <SCORE.INTER.norm>
-0.268491

>  <SCORE.INTRA>
-0.642547

>  <SCORE.INTRA.DIHEDRAL>
-0.0172148

>  <SCORE.INTRA.DIHEDRAL.0>
2.32994

>  <SCORE.INTRA.POLAR>
0

>  <SCORE.INTRA.POLAR.0>
0

>  <SCORE.INTRA.REPUL>
0

>  <SCORE.INTRA.REPUL.0>
0

>  <SCORE.INTRA.SOLV>
0.0260724

>  <SCORE.INTRA.SOLV.lig_0>
-117.703

>  <SCORE.INTRA.VDW>
-0.646976

>  <SCORE.INTRA.VDW.0>
-1.59997

>  <SCORE.INTRA.norm>
-0.0146033

>  <SCORE.RESTR>
0.116669

>  <SCORE.RESTR.CAVITY>
0.116669

>  <SCORE.RESTR.norm>
0.00265158

>  <SCORE.SYSTEM>
0

>  <SCORE.SYSTEM.CONST>
0

>  <SCORE.SYSTEM.DIHEDRAL>
0

>  <SCORE.SYSTEM.SOLV>
0

>  <SCORE.SYSTEM.norm>
0

>  <SCORE.heavy>
44

>  <SCORE.norm>
-0.280443

>  <RMSD>
4.148

$$$$
ligand
 OpenBabel11021811513D
libRbt.so/2013.1/901 2013/11/27
 44 50  0  0  0  0  0  0  0  0999 V2000
  -10.0752   37.7276  -13.2009 P   0  0  2  0  0  0  0  0  0  0  0  0
   -6.0045   34.1838  -12.9252 P   0  0  1  0  0  0  0  0  0  0  0  0
  -11.2076   37.8785  -12.1882 O   0  5  0  0  0  0  0  0  0  0  0  0
   -5.8566   33.6534  -14.3305 O   0  5  0  0  0  0  0  0  0  0  0  0
  -10.6202   38.2284  -14.5168 O   0  0  0  0  0  0  0  0  0  0  0  0
   -4.7525   33.7445  -12.1324 O   0  0  0  0  0  0  0  0  0  0  0  0
   -9.9576   35.5180  -11.9579 C   0  0  0  0  0  0  0  0  0  0  0  0
   -6.5642   36.4667  -11.8559 C   0  0  0  0  0  0  0  0  0  0  0  0
   -9.7287   36.2036  -13.1964 O   0  0  0  0  0  0  0  0  0  0  0  0
   -6.2823   35.7936  -13.1153 O   0  0  0  0  0  0  0  0  0  0  0  0
   -9.6244   34.0375  -12.1077 C   0  0  1  0  0  0  0  0  0  0  0  0
   -6.6658   38.0026  -12.1909 C   0  0  1  0  0  0  0  0  0  0  0  0
  -10.6647   33.4365  -12.5967 O   0  0  0  0  0  0  0  0  0  0  0  0
   -5.6092   38.2721  -12.8429 O   0  0  0  0  0  0  0  0  0  0  0  0
   -8.4839   33.7769  -13.0646 C   0  0  1  0  0  0  0  0  0  0  0  0
   -7.7767   38.2693  -13.2261 C   0  0  1  0  0  0  0  0  0  0  0  0
   -7.3760   33.5742  -12.3031 O   0  0  0  0  0  0  0  0  0  0  0  0
   -8.8853   38.7402  -12.6420 O   0  0  0  0  0  0  0  0  0  0  0  0
   -8.9021   32.4466  -13.7827 C   0  0  1  0  0  0  0  0  0  0  0  0
   -7.2082   39.2828  -14.2454 C   0  0  1  0  0  0  0  0  0  0  0  0
   -8.1595   31.2964  -13.2004 O   0  0  0  0  0  0  0  0  0  0  0  0
   -7.7427   40.6560  -13.9736 O   0  0  0  0  0  0  0  0  0  0  0  0
  -10.1776   32.3146  -13.6054 C   0  0  2  0  0  0  0  0  0  0  0  0
   -5.9341   39.2692  -14.0519 C   0  0  2  0  0  0  0  0  0  0  0  0
  -11.0862   34.3647  -18.4832 N   0  0  0  0  0  0  0  0  0  0  0  0
  -10.0736   34.7254  -17.6456 C   0  0  0  0  0  0  0  0  0  0  0  0
   -9.9264   34.1378  -16.4149 N   0  0  0  0  0  0  0  0  0  0  0  0
  -10.8179   33.1755  -16.0281 C   0  0  0  0  0  0  0  0  0  0  0  0
  -11.8232   32.8153  -16.8380 C   0  0  0  0  0  0  0  0  0  0  0  0
  -11.9599   33.4107  -18.0909 C   0  0  0  0  0  0  0  0  0  0  0  0
  -12.9677   33.1231  -19.0325 N   0  0  0  0  0  0  0  0  0  0  0  0
  -12.5356   31.8551  -16.2113 N   0  0  0  0  0  0  0  0  0  0  0  0
  -11.9589   31.6316  -14.9961 C   0  0  0  0  0  0  0  0  0  0  0  0
  -10.8902   32.4317  -14.8882 N   0  0  0  0  0  0  0  0  0  0  0  0
   -5.9379   36.8427  -18.6598 N   0  0  0  0  0  0  0  0  0  0  0  0
   -7.0000   37.0172  -17.8304 C   0  0  0  0  0  0  0  0  0  0  0  0
   -6.8295   37.6747  -16.6448 N   0  0  0  0  0  0  0  0  0  0  0  0
   -5.6055   38.1570  -16.2986 C   0  0  0  0  0  0  0  0  0  0  0  0
   -4.5480   37.9915  -17.1187 C   0  0  0  0  0  0  0  0  0  0  0  0
   -4.7298   37.3171  -18.3226 C   0  0  0  0  0  0  0  0  0  0  0  0
   -3.7480   37.0124  -19.3317 N   0  0  0  0  0  0  0  0  0  0  0  0
   -3.4770   38.5647  -16.5191 N   0  0  0  0  0  0  0  0  0  0  0  0
   -3.8838   39.0886  -15.3276 C   0  0  0  0  0  0  0  0  0  0  0  0
   -5.2019   38.8339  -15.2019 N   0  0  0  0  0  0  0  0  0  0  0  0
  1  3  1  1  0  0  0
  1  5  2  0  0  0  0
  1  9  1  0  0  0  0
  1 18  1  0  0  0  0
  2  4  1  6  0  0  0
  2  6  2  0  0  0  0
  2 10  1  0  0  0  0
  2 17  1  0  0  0  0
  7  9  1  0  0  0  0
  8 10  1  0  0  0  0
 11  7  1  6  0  0  0
 11 13  1  0  0  0  0
 11 15  1  0  0  0  0
 12  8  1  6  0  0  0
 12 14  1  0  0  0  0
 12 16  1  0  0  0  0
 13 23  1  0  0  0  0
 14 24  1  0  0  0  0
 15 17  1  1  0  0  0
 15 19  1  0  0  0  0
 16 18  1  1  0  0  0
 16 20  1  0  0  0  0
 19 21  1  1  0  0  0
 19 23  1  0  0  0  0
 20 22  1  1  0  0  0
 20 24  1  0  0  0  0
 23 34  1  6  0  0  0
 24 44  1  6  0  0  0
 25 26  2  0  0  0  0
 25 30  1  0  0  0  0
 26 27  1  0  0  0  0
 27 28  2  0  0  0  0
 28 29  1  0  0  0  0
 28 34  1  0  0  0  0
 29 30  2  0  0  0  0
 29 32  1  0  0  0  0
 30 31  1  0  0  0  0
 32 33  2  0  0  0  0
 33 34  1  0  0  0  0
 35 36  2  0  0  0  0
 35 40  1  0  0  0  0
 36 37  1  0  0  0  0
 37 38  2  0  0  0  0
 38 39  1  0  0  0  0
 38 44  1  0  0  0  0
 39 40  2  0  0  0  0
 39 42  1  0  0  0  0
 40 41  1  0  0  0  0
 42 43  2  0  0  0  0
 43 44  1  0  0  0  0
M  CHG  2   3  -1   4  -1
M  END
>  <CHROM.1>
80.89601206,102.61847811,-8.15358454,35.77179533,-14.64243275,0.04338501
0.76482390,1.54444239

>  <Name>
ligand

>  <RI>
0

>  <Rbt.Current_Directory>
/home/itssahil/PROJECTS/Mol_Feturizer/New_Systems/rnas/4QLM

>  <Rbt.Executable>
rbdock ($Id: //depot/dev/client3/rdock/2013.1/src/exe/rbdock.cxx#4 $)

>  <Rbt.Library>
libRbt.so (2013.1, Build901 2013/11/27)

>  <Rbt.Parameter_File>
/export/apps/rDock/src/rDock_2013.1_src/data/scripts/dock_solv.prm

>  <Rbt.Receptor>
prm/pocket_docking_5.prm

>  <SCORE>
-12.2369

>  <SCORE.INTER>
-11.6653

>  <SCORE.INTER.CONST>
1

>  <SCORE.INTER.POLAR>
0

>  <SCORE.INTER.ROT>
2

>  <SCORE.INTER.SOLV>
20.7416

>  <SCORE.INTER.VDW>
-19.624

>  <SCORE.INTER.norm>
-0.26512

>  <SCORE.INTRA>
-0.627645

>  <SCORE.INTRA.DIHEDRAL>
-0.0181172

>  <SCORE.INTRA.DIHEDRAL.0>
2.32994

>  <SCORE.INTRA.POLAR>
0

>  <SCORE.INTRA.POLAR.0>
0

>  <SCORE.INTRA.REPUL>
0

>  <SCORE.INTRA.REPUL.0>
0

>  <SCORE.INTRA.SOLV>
0.0264172

>  <SCORE.INTRA.SOLV.lig_0>
-117.703

>  <SCORE.INTRA.VDW>
-0.631795

>  <SCORE.INTRA.VDW.0>
-1.59997

>  <SCORE.INTRA.norm>
-0.0142647

>  <SCORE.RESTR>
0.0559838

>  <SCORE.RESTR.CAVITY>
0.0559838

>  <SCORE.RESTR.norm>
0.00127236

>  <SCORE.SYSTEM>
0

>  <SCORE.SYSTEM.CONST>
0

>  <SCORE.SYSTEM.DIHEDRAL>
0

>  <SCORE.SYSTEM.SOLV>
0

>  <SCORE.SYSTEM.norm>
0

>  <SCORE.heavy>
44

>  <SCORE.norm>
-0.278112

>  <RMSD>
4.154

$$$$
ligand
 OpenBabel11021811513D
libRbt.so/2013.1/901 2013/11/27
 44 50  0  0  0  0  0  0  0  0999 V2000
   -7.0960   33.7234  -13.4860 P   0  0  2  0  0  0  0  0  0  0  0  0
  -10.3049   38.0684  -13.6590 P   0  0  1  0  0  0  0  0  0  0  0  0
   -6.0456   33.4219  -12.4200 O   0  5  0  0  0  0  0  0  0  0  0  0
  -10.3037   38.4937  -15.1071 O   0  5  0  0  0  0  0  0  0  0  0  0
   -6.6444   33.0046  -14.7346 O   0  0  0  0  0  0  0  0  0  0  0  0
  -11.4484   38.8334  -12.9547 O   0  0  0  0  0  0  0  0  0  0  0  0
   -6.7578   36.0065  -12.4303 C   0  0  0  0  0  0  0  0  0  0  0  0
  -10.2776   35.8206  -12.3880 C   0  0  0  0  0  0  0  0  0  0  0  0
   -7.1033   35.2807  -13.6179 O   0  0  0  0  0  0  0  0  0  0  0  0
  -10.3793   36.4261  -13.7078 O   0  0  0  0  0  0  0  0  0  0  0  0
   -6.7581   37.5052  -12.7119 C   0  0  1  0  0  0  0  0  0  0  0  0
  -10.5048   34.2755  -12.5942 C   0  0  1  0  0  0  0  0  0  0  0  0
   -5.6019   37.8240  -13.2057 O   0  0  0  0  0  0  0  0  0  0  0  0
  -11.5803   34.1832  -13.2641 O   0  0  0  0  0  0  0  0  0  0  0  0
   -7.7939   37.9200  -13.7315 C   0  0  1  0  0  0  0  0  0  0  0  0
   -9.4562   33.6875  -13.5594 C   0  0  1  0  0  0  0  0  0  0  0  0
   -8.8475   38.4213  -13.0336 O   0  0  0  0  0  0  0  0  0  0  0  0
   -8.4892   33.0424  -12.8955 O   0  0  0  0  0  0  0  0  0  0  0  0
   -7.0813   39.0618  -14.5369 C   0  0  1  0  0  0  0  0  0  0  0  0
  -10.2090   32.7347  -14.5157 C   0  0  1  0  0  0  0  0  0  0  0  0
   -7.5688   40.3909  -14.0791 O   0  0  0  0  0  0  0  0  0  0  0  0
   -9.9916   31.3078  -14.1133 O   0  0  0  0  0  0  0  0  0  0  0  0
   -5.8117   38.9321  -14.3200 C   0  0  2  0  0  0  0  0  0  0  0  0
  -11.4537   33.0381  -14.3751 C   0  0  2  0  0  0  0  0  0  0  0  0
   -5.4127   36.6421  -19.1592 N   0  0  0  0  0  0  0  0  0  0  0  0
   -6.5351   36.6782  -18.3872 C   0  0  0  0  0  0  0  0  0  0  0  0
   -6.5340   37.2920  -17.1606 N   0  0  0  0  0  0  0  0  0  0  0  0
   -5.3810   37.8736  -16.7106 C   0  0  0  0  0  0  0  0  0  0  0  0
   -4.2672   37.8400  -17.4553 C   0  0  0  0  0  0  0  0  0  0  0  0
   -4.2794   37.2224  -18.7048 C   0  0  0  0  0  0  0  0  0  0  0  0
   -3.1817   37.1189  -19.5819 N   0  0  0  0  0  0  0  0  0  0  0  0
   -3.2959   38.4865  -16.7764 N   0  0  0  0  0  0  0  0  0  0  0  0
   -3.8247   38.9149  -15.5949 C   0  0  0  0  0  0  0  0  0  0  0  0
   -5.1140   38.5535  -15.5598 N   0  0  0  0  0  0  0  0  0  0  0  0
  -13.8464   31.9673  -18.8749 N   0  0  0  0  0  0  0  0  0  0  0  0
  -13.4101   31.0713  -17.9513 C   0  0  0  0  0  0  0  0  0  0  0  0
  -12.7904   31.5177  -16.8182 N   0  0  0  0  0  0  0  0  0  0  0  0
  -12.6161   32.8511  -16.6126 C   0  0  0  0  0  0  0  0  0  0  0  0
  -13.0506   33.7462  -17.5227 C   0  0  0  0  0  0  0  0  0  0  0  0
  -13.6771   33.2826  -18.6758 C   0  0  0  0  0  0  0  0  0  0  0  0
  -14.1975   34.0497  -19.7785 N   0  0  0  0  0  0  0  0  0  0  0  0
  -12.7412   34.9801  -17.0569 N   0  0  0  0  0  0  0  0  0  0  0  0
  -12.1186   34.8382  -15.8519 C   0  0  0  0  0  0  0  0  0  0  0  0
  -12.0488   33.5185  -15.5847 N   0  0  0  0  0  0  0  0  0  0  0  0
  1  3  1  1  0  0  0
  1  5  2  0  0  0  0
  1  9  1  0  0  0  0
  1 18  1  0  0  0  0
  2  4  1  6  0  0  0
  2  6  2  0  0  0  0
  2 10  1  0  0  0  0
  2 17  1  0  0  0  0
  7  9  1  0  0  0  0
  8 10  1  0  0  0  0
 11  7  1  6  0  0  0
 11 13  1  0  0  0  0
 11 15  1  0  0  0  0
 12  8  1  6  0  0  0
 12 14  1  0  0  0  0
 12 16  1  0  0  0  0
 13 23  1  0  0  0  0
 14 24  1  0  0  0  0
 15 17  1  1  0  0  0
 15 19  1  0  0  0  0
 16 18  1  1  0  0  0
 16 20  1  0  0  0  0
 19 21  1  1  0  0  0
 19 23  1  0  0  0  0
 20 22  1  1  0  0  0
 20 24  1  0  0  0  0
 23 34  1  6  0  0  0
 24 44  1  6  0  0  0
 25 26  2  0  0  0  0
 25 30  1  0  0  0  0
 26 27  1  0  0  0  0
 27 28  2  0  0  0  0
 28 29  1  0  0  0  0
 28 34  1  0  0  0  0
 29 30  2  0  0  0  0
 29 32  1  0  0  0  0
 30 31  1  0  0  0  0
 32 33  2  0  0  0  0
 33 34  1  0  0  0  0
 35 36  2  0  0  0  0
 35 40  1  0  0  0  0
 36 37  1  0  0  0  0
 37 38  2  0  0  0  0
 38 39  1  0  0  0  0
 38 44  1  0  0  0  0
 39 40  2  0  0  0  0
 39 42  1  0  0  0  0
 40 41  1  0  0  0  0
 42 43  2  0  0  0  0
 43 44  1  0  0  0  0
M  CHG  2   3  -1   4  -1
M  END
>  <CHROM.1>
90.90866063,-153.48646830,-8.75863055,35.70245394,-15.14586557,0.21036862
0.58071280,1.36332492

>  <Name>
ligand

>  <RI>
0

>  <Rbt.Current_Directory>
/home/itssahil/PROJECTS/Mol_Feturizer/New_Systems/rnas/4QLM

>  <Rbt.Executable>
rbdock ($Id: //depot/dev/client3/rdock/2013.1/src/exe/rbdock.cxx#4 $)

>  <Rbt.Library>
libRbt.so (2013.1, Build901 2013/11/27)

>  <Rbt.Parameter_File>
/export/apps/rDock/src/rDock_2013.1_src/data/scripts/dock_solv.prm

>  <Rbt.Receptor>
prm/pocket_docking_7.prm

>  <SCORE>
-12.4672

>  <SCORE.INTER>
-11.9472

>  <SCORE.INTER.CONST>
1

>  <SCORE.INTER.POLAR>
0

>  <SCORE.INTER.ROT>
2

>  <SCORE.INTER.SOLV>
18.4412

>  <SCORE.INTER.VDW>
-19.0452

>  <SCORE.INTER.norm>
-0.271528

>  <SCORE.INTRA>
-0.520011

>  <SCORE.INTRA.DIHEDRAL>
-0.0229716

>  <SCORE.INTRA.DIHEDRAL.0>
2.32994

>  <SCORE.INTRA.POLAR>
0

>  <SCORE.INTRA.POLAR.0>
0

>  <SCORE.INTRA.REPUL>
0

>  <SCORE.INTRA.REPUL.0>
0

>  <SCORE.INTRA.SOLV>
0.00830861

>  <SCORE.INTRA.SOLV.lig_0>
-117.703

>  <SCORE.INTRA.VDW>
-0.51268

>  <SCORE.INTRA.VDW.0>
-1.59997

>  <SCORE.INTRA.norm>
-0.0118184

>  <SCORE.RESTR>
0

>  <SCORE.RESTR.CAVITY>
0

>  <SCORE.RESTR.norm>
0

>  <SCORE.SYSTEM>
0

>  <SCORE.SYSTEM.CONST>
0

>  <SCORE.SYSTEM.DIHEDRAL>
0

>  <SCORE.SYSTEM.SOLV>
0

>  <SCORE.SYSTEM.norm>
0

>  <SCORE.heavy>
44

>  <SCORE.norm>
-0.283346

>  <RMSD>
4.162

$$$$
ligand
 OpenBabel11021811513D
libRbt.so/2013.1/901 2013/11/27
 44 50  0  0  0  0  0  0  0  0999 V2000
  -10.1553   37.7145  -13.1739 P   0  0  2  0  0  0  0  0  0  0  0  0
   -6.0854   34.1675  -12.9292 P   0  0  1  0  0  0  0  0  0  0  0  0
  -11.2857   37.8592  -12.1581 O   0  5  0  0  0  0  0  0  0  0  0  0
   -5.9403   33.6462  -14.3382 O   0  5  0  0  0  0  0  0  0  0  0  0
  -10.7027   38.2240  -14.4855 O   0  0  0  0  0  0  0  0  0  0  0  0
   -4.8320   33.7226  -12.1417 O   0  0  0  0  0  0  0  0  0  0  0  0
  -10.0361   35.4968  -11.9456 C   0  0  0  0  0  0  0  0  0  0  0  0
   -6.6422   36.4436  -11.8439 C   0  0  0  0  0  0  0  0  0  0  0  0
   -9.8093   36.1904  -13.1800 O   0  0  0  0  0  0  0  0  0  0  0  0
   -6.3629   35.7786  -13.1083 O   0  0  0  0  0  0  0  0  0  0  0  0
   -9.7037   34.0171  -12.1057 C   0  0  1  0  0  0  0  0  0  0  0  0
   -6.7438   37.9817  -12.1688 C   0  0  1  0  0  0  0  0  0  0  0  0
  -10.7452   33.4197  -12.5966 O   0  0  0  0  0  0  0  0  0  0  0  0
   -5.6884   38.2550  -12.8210 O   0  0  0  0  0  0  0  0  0  0  0  0
   -8.5652   33.7624  -13.0665 C   0  0  1  0  0  0  0  0  0  0  0  0
   -7.8567   38.2555  -13.2001 C   0  0  1  0  0  0  0  0  0  0  0  0
   -7.4559   33.5544  -12.3085 O   0  0  0  0  0  0  0  0  0  0  0  0
   -8.9639   38.7230  -12.6107 O   0  0  0  0  0  0  0  0  0  0  0  0
   -8.9852   32.4370  -13.7924 C   0  0  1  0  0  0  0  0  0  0  0  0
   -7.2898   39.2754  -14.2138 C   0  0  1  0  0  0  0  0  0  0  0  0
   -8.2419   31.2827  -13.2191 O   0  0  0  0  0  0  0  0  0  0  0  0
   -7.8232   40.6470  -13.9320 O   0  0  0  0  0  0  0  0  0  0  0  0
  -10.2604   32.3042  -13.6135 C   0  0  2  0  0  0  0  0  0  0  0  0
   -6.0153   39.2602  -14.0229 C   0  0  2  0  0  0  0  0  0  0  0  0
  -11.0853   34.2752  -18.5386 N   0  0  0  0  0  0  0  0  0  0  0  0
  -10.0459   34.5964  -17.7179 C   0  0  0  0  0  0  0  0  0  0  0  0
   -9.9239   34.0339  -16.4728 N   0  0  0  0  0  0  0  0  0  0  0  0
  -10.8682   33.1376  -16.0542 C   0  0  0  0  0  0  0  0  0  0  0  0
  -11.9001   32.8172  -16.8472 C   0  0  0  0  0  0  0  0  0  0  0  0
  -12.0114   33.3862  -18.1147 C   0  0  0  0  0  0  0  0  0  0  0  0
  -13.0425   33.1350  -19.0414 N   0  0  0  0  0  0  0  0  0  0  0  0
  -12.6635   31.9186  -16.1900 N   0  0  0  0  0  0  0  0  0  0  0  0
  -12.0912   31.6930  -14.9732 C   0  0  0  0  0  0  0  0  0  0  0  0
  -10.9754   32.4299  -14.8942 N   0  0  0  0  0  0  0  0  0  0  0  0
   -6.0289   36.8640  -18.6466 N   0  0  0  0  0  0  0  0  0  0  0  0
   -7.0894   37.0335  -17.8141 C   0  0  0  0  0  0  0  0  0  0  0  0
   -6.9163   37.6832  -16.6245 N   0  0  0  0  0  0  0  0  0  0  0  0
   -5.6914   38.1626  -16.2775 C   0  0  0  0  0  0  0  0  0  0  0  0
   -4.6356   38.0021  -17.1006 C   0  0  0  0  0  0  0  0  0  0  0  0
   -4.8199   37.3357  -18.3086 C   0  0  0  0  0  0  0  0  0  0  0  0
   -3.8402   37.0372  -19.3215 N   0  0  0  0  0  0  0  0  0  0  0  0
   -3.5632   38.5708  -16.4994 N   0  0  0  0  0  0  0  0  0  0  0  0
   -3.9675   39.0870  -15.3036 C   0  0  0  0  0  0  0  0  0  0  0  0
   -5.2855   38.8321  -15.1771 N   0  0  0  0  0  0  0  0  0  0  0  0
  1  3  1  1  0  0  0
  1  5  2  0  0  0  0
  1  9  1  0  0  0  0
  1 18  1  0  0  0  0
  2  4  1  6  0  0  0
  2  6  2  0  0  0  0
  2 10  1  0  0  0  0
  2 17  1  0  0  0  0
  7  9  1  0  0  0  0
  8 10  1  0  0  0  0
 11  7  1  6  0  0  0
 11 13  1  0  0  0  0
 11 15  1  0  0  0  0
 12  8  1  6  0  0  0
 12 14  1  0  0  0  0
 12 16  1  0  0  0  0
 13 23  1  0  0  0  0
 14 24  1  0  0  0  0
 15 17  1  1  0  0  0
 15 19  1  0  0  0  0
 16 18  1  1  0  0  0
 16 20  1  0  0  0  0
 19 21  1  1  0  0  0
 19 23  1  0  0  0  0
 20 22  1  1  0  0  0
 20 24  1  0  0  0  0
 23 34  1  6  0  0  0
 24 44  1  6  0  0  0
 25 26  2  0  0  0  0
 25 30  1  0  0  0  0
 26 27  1  0  0  0  0
 27 28  2  0  0  0  0
 28 29  1  0  0  0  0
 28 34  1  0  0  0  0
 29 30  2  0  0  0  0
 29 32  1  0  0  0  0
 30 31  1  0  0  0  0
 32 33  2  0  0  0  0
 33 34  1  0  0  0  0
 35 36  2  0  0  0  0
 35 40  1  0  0  0  0
 36 37  1  0  0  0  0
 37 38  2  0  0  0  0
 38 39  1  0  0  0  0
 38 44  1  0  0  0  0
 39 40  2  0  0  0  0
 39 42  1  0  0  0  0
 40 41  1  0  0  0  0
 42 43  2  0  0  0  0
 43 44  1  0  0  0  0
M  CHG  2   3  -1   4  -1
M  END
>  <CHROM.1>
84.83028669,102.62534334,-8.23074028,35.76018185,-14.63622900,0.06274036
0.76683879,1.52483079

>  <Name>
ligand

>  <RI>
0

>  <Rbt.Current_Directory>
/home/itssahil/PROJECTS/Mol_Feturizer/New_Systems/rnas/4QLM

>  <Rbt.Executable>
rbdock ($Id: //depot/dev/client3/rdock/2013.1/src/exe/rbdock.cxx#4 $)

>  <Rbt.Library>
libRbt.so (2013.1, Build901 2013/11/27)

>  <Rbt.Parameter_File>
/export/apps/rDock/src/rDock_2013.1_src/data/scripts/dock_solv.prm

>  <Rbt.Receptor>
prm/pocket_docking_5.prm

>  <SCORE>
-12.1778

>  <SCORE.INTER>
-11.663

>  <SCORE.INTER.CONST>
1

>  <SCORE.INTER.POLAR>
0

>  <SCORE.INTER.ROT>
2

>  <SCORE.INTER.SOLV>
20.7614

>  <SCORE.INTER.VDW>
-19.6291

>  <SCORE.INTER.norm>
-0.265069

>  <SCORE.INTRA>
-0.561763

>  <SCORE.INTRA.DIHEDRAL>
-0.0241981

>  <SCORE.INTRA.DIHEDRAL.0>
2.32994

>  <SCORE.INTRA.POLAR>
0

>  <SCORE.INTRA.POLAR.0>
0

>  <SCORE.INTRA.REPUL>
0

>  <SCORE.INTRA.REPUL.0>
0

>  <SCORE.INTRA.SOLV>
0.0297549

>  <SCORE.INTRA.SOLV.lig_0>
-117.703

>  <SCORE.INTRA.VDW>
-0.564541

>  <SCORE.INTRA.VDW.0>
-1.59997

>  <SCORE.INTRA.norm>
-0.0127673

>  <SCORE.RESTR>
0.0470052

>  <SCORE.RESTR.CAVITY>
0.0470052

>  <SCORE.RESTR.norm>
0.0010683

>  <SCORE.SYSTEM>
0

>  <SCORE.SYSTEM.CONST>
0

>  <SCORE.SYSTEM.DIHEDRAL>
0

>  <SCORE.SYSTEM.SOLV>
0

>  <SCORE.SYSTEM.norm>
0

>  <SCORE.heavy>
44

>  <SCORE.norm>
-0.276768

>  <RMSD>
4.185

$$$$
ligand
 OpenBabel11021811513D
libRbt.so/2013.1/901 2013/11/27
 44 50  0  0  0  0  0  0  0  0999 V2000
   -9.8282   38.2510  -13.1412 P   0  0  2  0  0  0  0  0  0  0  0  0
   -5.9436   34.5098  -12.7971 P   0  0  1  0  0  0  0  0  0  0  0  0
  -10.9315   38.5002  -12.1159 O   0  5  0  0  0  0  0  0  0  0  0  0
   -5.8507   33.9190  -14.1829 O   0  5  0  0  0  0  0  0  0  0  0  0
  -10.3715   38.7294  -14.4662 O   0  0  0  0  0  0  0  0  0  0  0  0
   -4.7013   34.0353  -12.0094 O   0  0  0  0  0  0  0  0  0  0  0  0
   -9.8023   36.0873  -11.8150 C   0  0  0  0  0  0  0  0  0  0  0  0
   -6.3627   36.8582  -11.8085 C   0  0  0  0  0  0  0  0  0  0  0  0
   -9.5617   36.7121  -13.0831 O   0  0  0  0  0  0  0  0  0  0  0  0
   -6.1405   36.1236  -13.0453 O   0  0  0  0  0  0  0  0  0  0  0  0
   -9.5499   34.5866  -11.9125 C   0  0  1  0  0  0  0  0  0  0  0  0
   -6.3903   38.3834  -12.2015 C   0  0  1  0  0  0  0  0  0  0  0  0
  -10.6293   34.0233  -12.3596 O   0  0  0  0  0  0  0  0  0  0  0  0
   -5.3338   38.5715  -12.8816 O   0  0  0  0  0  0  0  0  0  0  0  0
   -8.4431   34.2297  -12.8779 C   0  0  1  0  0  0  0  0  0  0  0  0
   -7.5055   38.6689  -13.2271 C   0  0  1  0  0  0  0  0  0  0  0  0
   -7.3329   33.9978  -12.1282 O   0  0  0  0  0  0  0  0  0  0  0  0
   -8.5765   39.2198  -12.6429 O   0  0  0  0  0  0  0  0  0  0  0  0
   -8.9440   32.8970  -13.5361 C   0  0  1  0  0  0  0  0  0  0  0  0
   -6.9045   39.6112  -14.2948 C   0  0  1  0  0  0  0  0  0  0  0  0
   -8.2514   31.7321  -12.9222 O   0  0  0  0  0  0  0  0  0  0  0  0
   -7.3612   41.0202  -14.0679 O   0  0  0  0  0  0  0  0  0  0  0  0
  -10.2209   32.8395  -13.3319 C   0  0  2  0  0  0  0  0  0  0  0  0
   -5.6293   39.5377  -14.1230 C   0  0  2  0  0  0  0  0  0  0  0  0
  -10.8138   34.2195  -18.4861 N   0  0  0  0  0  0  0  0  0  0  0  0
   -9.6882   34.4003  -17.7394 C   0  0  0  0  0  0  0  0  0  0  0  0
   -9.6374   34.0102  -16.4253 N   0  0  0  0  0  0  0  0  0  0  0  0
  -10.7413   33.4327  -15.8614 C   0  0  0  0  0  0  0  0  0  0  0  0
  -11.8580   33.2549  -16.5809 C   0  0  0  0  0  0  0  0  0  0  0  0
  -11.8981   33.6455  -17.9183 C   0  0  0  0  0  0  0  0  0  0  0  0
  -13.0046   33.5147  -18.7805 N   0  0  0  0  0  0  0  0  0  0  0  0
  -12.7747   32.6667  -15.7835 N   0  0  0  0  0  0  0  0  0  0  0  0
  -12.2096   32.4897  -14.5553 C   0  0  0  0  0  0  0  0  0  0  0  0
  -10.9510   32.9452  -14.6059 N   0  0  0  0  0  0  0  0  0  0  0  0
   -5.8467   36.9318  -18.6266 N   0  0  0  0  0  0  0  0  0  0  0  0
   -6.8818   37.1921  -17.7856 C   0  0  0  0  0  0  0  0  0  0  0  0
   -6.6549   37.8873  -16.6313 N   0  0  0  0  0  0  0  0  0  0  0  0
   -5.4019   38.3213  -16.3278 C   0  0  0  0  0  0  0  0  0  0  0  0
   -4.3708   38.0706  -17.1598 C   0  0  0  0  0  0  0  0  0  0  0  0
   -4.6101   37.3584  -18.3315 C   0  0  0  0  0  0  0  0  0  0  0  0
   -3.6653   36.9649  -19.3452 N   0  0  0  0  0  0  0  0  0  0  0  0
   -3.2608   38.6131  -16.6042 N   0  0  0  0  0  0  0  0  0  0  0  0
   -3.6170   39.2039  -15.4278 C   0  0  0  0  0  0  0  0  0  0  0  0
   -4.9431   39.0206  -15.2675 N   0  0  0  0  0  0  0  0  0  0  0  0
  1  3  1  1  0  0  0
  1  5  2  0  0  0  0
  1  9  1  0  0  0  0
  1 18  1  0  0  0  0
  2  4  1  6  0  0  0
  2  6  2  0  0  0  0
  2 10  1  0  0  0  0
  2 17  1  0  0  0  0
  7  9  1  0  0  0  0
  8 10  1  0  0  0  0
 11  7  1  6  0  0  0
 11 13  1  0  0  0  0
 11 15  1  0  0  0  0
 12  8  1  6  0  0  0
 12 14  1  0  0  0  0
 12 16  1  0  0  0  0
 13 23  1  0  0  0  0
 14 24  1  0  0  0  0
 15 17  1  1  0  0  0
 15 19  1  0  0  0  0
 16 18  1  1  0  0  0
 16 20  1  0  0  0  0
 19 21  1  1  0  0  0
 19 23  1  0  0  0  0
 20 22  1  1  0  0  0
 20 24  1  0  0  0  0
 23 34  1  6  0  0  0
 24 44  1  6  0  0  0
 25 26  2  0  0  0  0
 25 30  1  0  0  0  0
 26 27  1  0  0  0  0
 27 28  2  0  0  0  0
 28 29  1  0  0  0  0
 28 34  1  0  0  0  0
 29 30  2  0  0  0  0
 29 32  1  0  0  0  0
 30 31  1  0  0  0  0
 32 33  2  0  0  0  0
 33 34  1  0  0  0  0
 35 36  2  0  0  0  0
 35 40  1  0  0  0  0
 36 37  1  0  0  0  0
 37 38  2  0  0  0  0
 38 39  1  0  0  0  0
 38 44  1  0  0  0  0
 39 40  2  0  0  0  0
 39 42  1  0  0  0  0
 40 41  1  0  0  0  0
 42 43  2  0  0  0  0
 43 44  1  0  0  0  0
M  CHG  2   3  -1   4  -1
M  END
>  <CHROM.1>
97.05292558,102.39987930,-8.01799720,36.10714797,-14.55270362,0.10479634
0.72152489,1.41238771

>  <Name>
ligand

>  <RI>
0

>  <Rbt.Current_Directory>
/home/itssahil/PROJECTS/Mol_Feturizer/New_Systems/rnas/4QLM

>  <Rbt.Executable>
rbdock ($Id: //depot/dev/client3/rdock/2013.1/src/exe/rbdock.cxx#4 $)

>  <Rbt.Library>
libRbt.so (2013.1, Build901 2013/11/27)

>  <Rbt.Parameter_File>
/export/apps/rDock/src/rDock_2013.1_src/data/scripts/dock_solv.prm

>  <Rbt.Receptor>
prm/pocket_docking_6.prm

>  <SCORE>
-12.928

>  <SCORE.INTER>
-12.5583

>  <SCORE.INTER.CONST>
1

>  <SCORE.INTER.POLAR>
0

>  <SCORE.INTER.ROT>
2

>  <SCORE.INTER.SOLV>
17.5913

>  <SCORE.INTER.VDW>
-19.1693

>  <SCORE.INTER.norm>
-0.285416

>  <SCORE.INTRA>
-0.369713

>  <SCORE.INTRA.DIHEDRAL>
-0.0151542

>  <SCORE.INTRA.DIHEDRAL.0>
2.32994

>  <SCORE.INTRA.POLAR>
0

>  <SCORE.INTRA.POLAR.0>
0

>  <SCORE.INTRA.REPUL>
0

>  <SCORE.INTRA.REPUL.0>
0

>  <SCORE.INTRA.SOLV>
0.0317689

>  <SCORE.INTRA.SOLV.lig_0>
-117.703

>  <SCORE.INTRA.VDW>
-0.378021

>  <SCORE.INTRA.VDW.0>
-1.59997

>  <SCORE.INTRA.norm>
-0.00840257

>  <SCORE.RESTR>
0

>  <SCORE.RESTR.CAVITY>
0

>  <SCORE.RESTR.norm>
0

>  <SCORE.SYSTEM>
0

>  <SCORE.SYSTEM.CONST>
0

>  <SCORE.SYSTEM.DIHEDRAL>
0

>  <SCORE.SYSTEM.SOLV>
0

>  <SCORE.SYSTEM.norm>
0

>  <SCORE.heavy>
44

>  <SCORE.norm>
-0.293818

>  <RMSD>
4.219

$$$$
ligand
 OpenBabel11021811513D
libRbt.so/2013.1/901 2013/11/27
 44 50  0  0  0  0  0  0  0  0999 V2000
   -9.8183   38.2575  -13.1371 P   0  0  2  0  0  0  0  0  0  0  0  0
   -5.9272   34.5213  -12.8119 P   0  0  1  0  0  0  0  0  0  0  0  0
  -10.9200   38.5018  -12.1089 O   0  5  0  0  0  0  0  0  0  0  0  0
   -5.8360   33.9349  -14.1996 O   0  5  0  0  0  0  0  0  0  0  0  0
  -10.3650   38.7389  -14.4595 O   0  0  0  0  0  0  0  0  0  0  0  0
   -4.6826   34.0465  -12.0280 O   0  0  0  0  0  0  0  0  0  0  0  0
   -9.7864   36.0898  -11.8174 C   0  0  0  0  0  0  0  0  0  0  0  0
   -6.3480   36.8661  -11.8153 C   0  0  0  0  0  0  0  0  0  0  0  0
   -9.5493   36.7188  -13.0841 O   0  0  0  0  0  0  0  0  0  0  0  0
   -6.1271   36.1356  -13.0547 O   0  0  0  0  0  0  0  0  0  0  0  0
   -9.5318   34.5898  -11.9199 C   0  0  1  0  0  0  0  0  0  0  0  0
   -6.3788   38.3925  -12.2037 C   0  0  1  0  0  0  0  0  0  0  0  0
  -10.6112   34.0262  -12.3667 O   0  0  0  0  0  0  0  0  0  0  0  0
   -5.3239   38.5843  -12.8853 O   0  0  0  0  0  0  0  0  0  0  0  0
   -8.4264   34.2375  -12.8886 C   0  0  1  0  0  0  0  0  0  0  0  0
   -7.4964   38.6792  -13.2262 C   0  0  1  0  0  0  0  0  0  0  0  0
   -7.3143   34.0052  -12.1418 O   0  0  0  0  0  0  0  0  0  0  0  0
   -8.5672   39.2267  -12.6383 O   0  0  0  0  0  0  0  0  0  0  0  0
   -8.9264   32.9060  -13.5498 C   0  0  1  0  0  0  0  0  0  0  0  0
   -6.8990   39.6257  -14.2923 C   0  0  1  0  0  0  0  0  0  0  0  0
   -8.2308   31.7404  -12.9408 O   0  0  0  0  0  0  0  0  0  0  0  0
   -7.3575   41.0333  -14.0602 O   0  0  0  0  0  0  0  0  0  0  0  0
  -10.2029   32.8459  -13.3433 C   0  0  2  0  0  0  0  0  0  0  0  0
   -5.6234   39.5537  -14.1231 C   0  0  2  0  0  0  0  0  0  0  0  0
  -10.7885   34.1907  -18.5076 N   0  0  0  0  0  0  0  0  0  0  0  0
   -9.6567   34.3562  -17.7667 C   0  0  0  0  0  0  0  0  0  0  0  0
   -9.6085   33.9771  -16.4494 N   0  0  0  0  0  0  0  0  0  0  0  0
  -10.7213   33.4263  -15.8762 C   0  0  0  0  0  0  0  0  0  0  0  0
  -11.8439   33.2638  -16.5900 C   0  0  0  0  0  0  0  0  0  0  0  0
  -11.8815   33.6430  -17.9307 C   0  0  0  0  0  0  0  0  0  0  0  0
  -12.9937   33.5260  -18.7877 N   0  0  0  0  0  0  0  0  0  0  0  0
  -12.7689   32.7007  -15.7840 N   0  0  0  0  0  0  0  0  0  0  0  0
  -12.2026   32.5239  -14.5563 C   0  0  0  0  0  0  0  0  0  0  0  0
  -10.9356   32.9542  -14.6156 N   0  0  0  0  0  0  0  0  0  0  0  0
   -5.8248   36.8670  -18.5797 N   0  0  0  0  0  0  0  0  0  0  0  0
   -6.8543   37.1061  -17.7258 C   0  0  0  0  0  0  0  0  0  0  0  0
   -6.6326   37.8278  -16.5868 N   0  0  0  0  0  0  0  0  0  0  0  0
   -5.3904   38.3091  -16.3116 C   0  0  0  0  0  0  0  0  0  0  0  0
   -4.3650   38.0796  -17.1566 C   0  0  0  0  0  0  0  0  0  0  0  0
   -4.5988   37.3403  -18.3125 C   0  0  0  0  0  0  0  0  0  0  0  0
   -3.6578   36.9622  -19.3355 N   0  0  0  0  0  0  0  0  0  0  0  0
   -3.2654   38.6687  -16.6286 N   0  0  0  0  0  0  0  0  0  0  0  0
   -3.6223   39.2667  -15.4561 C   0  0  0  0  0  0  0  0  0  0  0  0
   -4.9387   39.0412  -15.2705 N   0  0  0  0  0  0  0  0  0  0  0  0
  1  3  1  1  0  0  0
  1  5  2  0  0  0  0
  1  9  1  0  0  0  0
  1 18  1  0  0  0  0
  2  4  1  6  0  0  0
  2  6  2  0  0  0  0
  2 10  1  0  0  0  0
  2 17  1  0  0  0  0
  7  9  1  0  0  0  0
  8 10  1  0  0  0  0
 11  7  1  6  0  0  0
 11 13  1  0  0  0  0
 11 15  1  0  0  0  0
 12  8  1  6  0  0  0
 12 14  1  0  0  0  0
 12 16  1  0  0  0  0
 13 23  1  0  0  0  0
 14 24  1  0  0  0  0
 15 17  1  1  0  0  0
 15 19  1  0  0  0  0
 16 18  1  1  0  0  0
 16 20  1  0  0  0  0
 19 21  1  1  0  0  0
 19 23  1  0  0  0  0
 20 22  1  1  0  0  0
 20 24  1  0  0  0  0
 23 34  1  6  0  0  0
 24 44  1  6  0  0  0
 25 26  2  0  0  0  0
 25 30  1  0  0  0  0
 26 27  1  0  0  0  0
 27 28  2  0  0  0  0
 28 29  1  0  0  0  0
 28 34  1  0  0  0  0
 29 30  2  0  0  0  0
 29 32  1  0  0  0  0
 30 31  1  0  0  0  0
 32 33  2  0  0  0  0
 33 34  1  0  0  0  0
 35 36  2  0  0  0  0
 35 40  1  0  0  0  0
 36 37  1  0  0  0  0
 37 38  2  0  0  0  0
 38 39  1  0  0  0  0
 38 44  1  0  0  0  0
 39 40  2  0  0  0  0
 39 42  1  0  0  0  0
 40 41  1  0  0  0  0
 42 43  2  0  0  0  0
 43 44  1  0  0  0  0
M  CHG  2   3  -1   4  -1
M  END
>  <CHROM.1>
98.44477532,100.07285339,-8.00451963,36.11016789,-14.55548244,0.12832334
0.71985990,1.38690834

>  <Name>
ligand

>  <RI>
0

>  <Rbt.Current_Directory>
/home/itssahil/PROJECTS/Mol_Feturizer/New_Systems/rnas/4QLM

>  <Rbt.Executable>
rbdock ($Id: //depot/dev/client3/rdock/2013.1/src/exe/rbdock.cxx#4 $)

>  <Rbt.Library>
libRbt.so (2013.1, Build901 2013/11/27)

>  <Rbt.Parameter_File>
/export/apps/rDock/src/rDock_2013.1_src/data/scripts/dock_solv.prm

>  <Rbt.Receptor>
prm/pocket_docking_6.prm

>  <SCORE>
-12.9307

>  <SCORE.INTER>
-12.4989

>  <SCORE.INTER.CONST>
1

>  <SCORE.INTER.POLAR>
0

>  <SCORE.INTER.ROT>
2

>  <SCORE.INTER.SOLV>
17.4337

>  <SCORE.INTER.VDW>
-19.0771

>  <SCORE.INTER.norm>
-0.284065

>  <SCORE.INTRA>
-0.431867

>  <SCORE.INTRA.DIHEDRAL>
-0.0108209

>  <SCORE.INTRA.DIHEDRAL.0>
2.32994

>  <SCORE.INTRA.POLAR>
0

>  <SCORE.INTRA.POLAR.0>
0

>  <SCORE.INTRA.REPUL>
0

>  <SCORE.INTRA.REPUL.0>
0

>  <SCORE.INTRA.SOLV>
0.0318902

>  <SCORE.INTRA.SOLV.lig_0>
-117.703

>  <SCORE.INTRA.VDW>
-0.442402

>  <SCORE.INTRA.VDW.0>
-1.59997

>  <SCORE.INTRA.norm>
-0.00981516

>  <SCORE.RESTR>
0

>  <SCORE.RESTR.CAVITY>
0

>  <SCORE.RESTR.norm>
0

>  <SCORE.SYSTEM>
0

>  <SCORE.SYSTEM.CONST>
0

>  <SCORE.SYSTEM.DIHEDRAL>
0

>  <SCORE.SYSTEM.SOLV>
0

>  <SCORE.SYSTEM.norm>
0

>  <SCORE.heavy>
44

>  <SCORE.norm>
-0.29388

>  <RMSD>
4.221

$$$$
ligand
 OpenBabel11021811513D
libRbt.so/2013.1/901 2013/11/27
 44 50  0  0  0  0  0  0  0  0999 V2000
   -6.7074   34.2286  -12.8699 P   0  0  2  0  0  0  0  0  0  0  0  0
   -9.7817   38.6687  -13.0669 P   0  0  1  0  0  0  0  0  0  0  0  0
   -5.5744   33.9612  -11.8823 O   0  5  0  0  0  0  0  0  0  0  0  0
   -9.8988   38.9942  -14.5361 O   0  5  0  0  0  0  0  0  0  0  0  0
   -6.3937   33.4102  -14.0992 O   0  0  0  0  0  0  0  0  0  0  0  0
  -10.8322   39.5222  -12.3205 O   0  0  0  0  0  0  0  0  0  0  0  0
   -6.2037   36.5639  -12.0133 C   0  0  0  0  0  0  0  0  0  0  0  0
   -9.7092   36.5132  -11.6468 C   0  0  0  0  0  0  0  0  0  0  0  0
   -6.6781   35.7725  -13.1110 O   0  0  0  0  0  0  0  0  0  0  0  0
   -9.9114   37.0309  -12.9920 O   0  0  0  0  0  0  0  0  0  0  0  0
   -6.1829   38.0390  -12.3996 C   0  0  1  0  0  0  0  0  0  0  0  0
  -10.0022   34.9672  -11.7216 C   0  0  1  0  0  0  0  0  0  0  0  0
   -5.0669   38.2800  -13.0151 O   0  0  0  0  0  0  0  0  0  0  0  0
  -11.1365   34.8699  -12.2855 O   0  0  0  0  0  0  0  0  0  0  0  0
   -7.2936   38.4220  -13.3505 C   0  0  1  0  0  0  0  0  0  0  0  0
   -9.0644   34.2761  -12.7315 C   0  0  1  0  0  0  0  0  0  0  0  0
   -8.2633   39.0086  -12.5996 O   0  0  0  0  0  0  0  0  0  0  0  0
   -8.0618   33.6419  -12.1115 O   0  0  0  0  0  0  0  0  0  0  0  0
   -6.6219   39.4789  -14.2949 C   0  0  1  0  0  0  0  0  0  0  0  0
   -9.9304   33.2893  -13.5473 C   0  0  1  0  0  0  0  0  0  0  0  0
   -7.0241   40.8533  -13.8915 O   0  0  0  0  0  0  0  0  0  0  0  0
   -9.7218   31.8859  -13.0653 O   0  0  0  0  0  0  0  0  0  0  0  0
   -5.3425   39.3168  -14.1825 C   0  0  2  0  0  0  0  0  0  0  0  0
  -11.1471   33.6479  -13.3191 C   0  0  2  0  0  0  0  0  0  0  0  0
   -5.5310   36.9444  -18.9948 N   0  0  0  0  0  0  0  0  0  0  0  0
   -6.5946   37.1500  -18.1679 C   0  0  0  0  0  0  0  0  0  0  0  0
   -6.4410   37.7696  -16.9538 N   0  0  0  0  0  0  0  0  0  0  0  0
   -5.1943   38.1831  -16.5728 C   0  0  0  0  0  0  0  0  0  0  0  0
   -4.1375   37.9815  -17.3721 C   0  0  0  0  0  0  0  0  0  0  0  0
   -4.3039   37.3595  -18.6083 C   0  0  0  0  0  0  0  0  0  0  0  0
   -3.2799   37.0897  -19.5377 N   0  0  0  0  0  0  0  0  0  0  0  0
   -3.0492   38.4877  -16.7545 N   0  0  0  0  0  0  0  0  0  0  0  0
   -3.4482   38.9999  -15.5555 C   0  0  0  0  0  0  0  0  0  0  0  0
   -4.7725   38.8288  -15.4490 N   0  0  0  0  0  0  0  0  0  0  0  0
  -13.4225   32.3585  -17.8224 N   0  0  0  0  0  0  0  0  0  0  0  0
  -12.8308   31.5137  -16.9379 C   0  0  0  0  0  0  0  0  0  0  0  0
  -12.2692   32.0156  -15.7977 N   0  0  0  0  0  0  0  0  0  0  0  0
  -12.3069   33.3519  -15.5462 C   0  0  0  0  0  0  0  0  0  0  0  0
  -12.8964   34.1957  -16.4173 C   0  0  0  0  0  0  0  0  0  0  0  0
  -13.4623   33.6765  -17.5780 C   0  0  0  0  0  0  0  0  0  0  0  0
  -14.1197   34.3866  -18.6450 N   0  0  0  0  0  0  0  0  0  0  0  0
  -12.7798   35.4468  -15.9112 N   0  0  0  0  0  0  0  0  0  0  0  0
  -12.1197   35.3665  -14.7206 C   0  0  0  0  0  0  0  0  0  0  0  0
  -11.8343   34.0668  -14.5024 N   0  0  0  0  0  0  0  0  0  0  0  0
  1  3  1  1  0  0  0
  1  5  2  0  0  0  0
  1  9  1  0  0  0  0
  1 18  1  0  0  0  0
  2  4  1  6  0  0  0
  2  6  2  0  0  0  0
  2 10  1  0  0  0  0
  2 17  1  0  0  0  0
  7  9  1  0  0  0  0
  8 10  1  0  0  0  0
 11  7  1  6  0  0  0
 11 13  1  0  0  0  0
 11 15  1  0  0  0  0
 12  8  1  6  0  0  0
 12 14  1  0  0  0  0
 12 16  1  0  0  0  0
 13 23  1  0  0  0  0
 14 24  1  0  0  0  0
 15 17  1  1  0  0  0
 15 19  1  0  0  0  0
 16 18  1  1  0  0  0
 16 20  1  0  0  0  0
 19 21  1  1  0  0  0
 19 23  1  0  0  0  0
 20 22  1  1  0  0  0
 20 24  1  0  0  0  0
 23 34  1  6  0  0  0
 24 44  1  6  0  0  0
 25 26  2  0  0  0  0
 25 30  1  0  0  0  0
 26 27  1  0  0  0  0
 27 28  2  0  0  0  0
 28 29  1  0  0  0  0
 28 34  1  0  0  0  0
 29 30  2  0  0  0  0
 29 32  1  0  0  0  0
 30 31  1  0  0  0  0
 32 33  2  0  0  0  0
 33 34  1  0  0  0  0
 35 36  2  0  0  0  0
 35 40  1  0  0  0  0
 36 37  1  0  0  0  0
 37 38  2  0  0  0  0
 38 39  1  0  0  0  0
 38 44  1  0  0  0  0
 39 40  2  0  0  0  0
 39 42  1  0  0  0  0
 40 41  1  0  0  0  0
 42 43  2  0  0  0  0
 43 44  1  0  0  0  0
M  CHG  2   3  -1   4  -1
M  END
>  <CHROM.1>
98.31778503,-166.87845202,-8.41500256,36.16734827,-14.54639631,0.09822709
0.58424101,1.36439006

>  <Name>
ligand

>  <RI>
0

>  <Rbt.Current_Directory>
/home/itssahil/PROJECTS/Mol_Feturizer/New_Systems/rnas/4QLM

>  <Rbt.Executable>
rbdock ($Id: //depot/dev/client3/rdock/2013.1/src/exe/rbdock.cxx#4 $)

>  <Rbt.Library>
libRbt.so (2013.1, Build901 2013/11/27)

>  <Rbt.Parameter_File>
/export/apps/rDock/src/rDock_2013.1_src/data/scripts/dock_solv.prm

>  <Rbt.Receptor>
prm/pocket_docking_7.prm

>  <SCORE>
-12.169

>  <SCORE.INTER>
-11.8964

>  <SCORE.INTER.CONST>
1

>  <SCORE.INTER.POLAR>
0

>  <SCORE.INTER.ROT>
2

>  <SCORE.INTER.SOLV>
14.6585

>  <SCORE.INTER.VDW>
-17.7504

>  <SCORE.INTER.norm>
-0.270372

>  <SCORE.INTRA>
-0.272641

>  <SCORE.INTRA.DIHEDRAL>
-0.0137936

>  <SCORE.INTRA.DIHEDRAL.0>
2.32994

>  <SCORE.INTRA.POLAR>
0

>  <SCORE.INTRA.POLAR.0>
0

>  <SCORE.INTRA.REPUL>
0

>  <SCORE.INTRA.REPUL.0>
0

>  <SCORE.INTRA.SOLV>
0.035677

>  <SCORE.INTRA.SOLV.lig_0>
-117.703

>  <SCORE.INTRA.VDW>
-0.283582

>  <SCORE.INTRA.VDW.0>
-1.59997

>  <SCORE.INTRA.norm>
-0.00619638

>  <SCORE.RESTR>
0

>  <SCORE.RESTR.CAVITY>
0

>  <SCORE.RESTR.norm>
0

>  <SCORE.SYSTEM>
0

>  <SCORE.SYSTEM.CONST>
0

>  <SCORE.SYSTEM.DIHEDRAL>
0

>  <SCORE.SYSTEM.SOLV>
0

>  <SCORE.SYSTEM.norm>
0

>  <SCORE.heavy>
44

>  <SCORE.norm>
-0.276569

>  <RMSD>
4.229

$$$$
ligand
 OpenBabel11021811513D
libRbt.so/2013.1/901 2013/11/27
 44 50  0  0  0  0  0  0  0  0999 V2000
   -6.6383   34.2309  -12.9099 P   0  0  2  0  0  0  0  0  0  0  0  0
   -9.9283   38.5027  -13.2750 P   0  0  1  0  0  0  0  0  0  0  0  0
   -5.4972   34.0562  -11.9110 O   0  5  0  0  0  0  0  0  0  0  0  0
  -10.0559   38.7682  -14.7553 O   0  5  0  0  0  0  0  0  0  0  0  0
   -6.2799   33.3848  -14.1079 O   0  0  0  0  0  0  0  0  0  0  0  0
  -11.0225   39.3295  -12.5622 O   0  0  0  0  0  0  0  0  0  0  0  0
   -6.2543   36.6180  -12.1383 C   0  0  0  0  0  0  0  0  0  0  0  0
   -9.7543   36.4066  -11.7769 C   0  0  0  0  0  0  0  0  0  0  0  0
   -6.6848   35.7645  -13.2072 O   0  0  0  0  0  0  0  0  0  0  0  0
   -9.9769   36.8643  -13.1405 O   0  0  0  0  0  0  0  0  0  0  0  0
   -6.3052   38.0772  -12.5783 C   0  0  1  0  0  0  0  0  0  0  0  0
   -9.9700   34.8462  -11.7957 C   0  0  1  0  0  0  0  0  0  0  0  0
   -5.2002   38.3508  -13.2000 O   0  0  0  0  0  0  0  0  0  0  0  0
  -11.0960   34.6722  -12.3578 O   0  0  0  0  0  0  0  0  0  0  0  0
   -7.4299   38.3697  -13.5446 C   0  0  1  0  0  0  0  0  0  0  0  0
   -8.9954   34.1662  -12.7779 C   0  0  1  0  0  0  0  0  0  0  0  0
   -8.4303   38.9343  -12.8175 O   0  0  0  0  0  0  0  0  0  0  0  0
   -7.9648   33.6057  -12.1332 O   0  0  0  0  0  0  0  0  0  0  0  0
   -6.8080   39.4236  -14.5257 C   0  0  1  0  0  0  0  0  0  0  0  0
   -9.8083   33.1086  -13.5588 C   0  0  1  0  0  0  0  0  0  0  0  0
   -7.2793   40.7900  -14.1736 O   0  0  0  0  0  0  0  0  0  0  0  0
   -9.5322   31.7358  -13.0253 O   0  0  0  0  0  0  0  0  0  0  0  0
   -5.5226   39.3294  -14.4050 C   0  0  2  0  0  0  0  0  0  0  0  0
  -11.0421   33.4144  -13.3461 C   0  0  2  0  0  0  0  0  0  0  0  0
   -5.5224   36.6147  -19.0366 N   0  0  0  0  0  0  0  0  0  0  0  0
   -6.5852   36.7491  -18.1943 C   0  0  0  0  0  0  0  0  0  0  0  0
   -6.4826   37.4677  -17.0304 N   0  0  0  0  0  0  0  0  0  0  0  0
   -5.2880   38.0543  -16.7158 C   0  0  0  0  0  0  0  0  0  0  0  0
   -4.2317   37.9249  -17.5307 C   0  0  0  0  0  0  0  0  0  0  0  0
   -4.3472   37.2010  -18.7161 C   0  0  0  0  0  0  0  0  0  0  0  0
   -3.3180   36.9907  -19.6550 N   0  0  0  0  0  0  0  0  0  0  0  0
   -3.2005   38.6012  -16.9818 N   0  0  0  0  0  0  0  0  0  0  0  0
   -3.6335   39.1458  -15.8091 C   0  0  0  0  0  0  0  0  0  0  0  0
   -4.9243   38.8246  -15.6518 N   0  0  0  0  0  0  0  0  0  0  0  0
  -10.9489   34.0724  -18.5112 N   0  0  0  0  0  0  0  0  0  0  0  0
   -9.9070   33.7109  -17.7174 C   0  0  0  0  0  0  0  0  0  0  0  0
  -10.0964   33.5877  -16.3698 N   0  0  0  0  0  0  0  0  0  0  0  0
  -11.3216   33.8198  -15.8260 C   0  0  0  0  0  0  0  0  0  0  0  0
  -12.3612   34.1745  -16.6082 C   0  0  0  0  0  0  0  0  0  0  0  0
  -12.1584   34.3015  -17.9793 C   0  0  0  0  0  0  0  0  0  0  0  0
  -13.1105   34.6837  -18.9904 N   0  0  0  0  0  0  0  0  0  0  0  0
  -13.4370   34.3394  -15.8017 N   0  0  0  0  0  0  0  0  0  0  0  0
  -13.0537   34.0785  -14.5192 C   0  0  0  0  0  0  0  0  0  0  0  0
  -11.7449   33.7553  -14.5452 N   0  0  0  0  0  0  0  0  0  0  0  0
  1  3  1  1  0  0  0
  1  5  2  0  0  0  0
  1  9  1  0  0  0  0
  1 18  1  0  0  0  0
  2  4  1  6  0  0  0
  2  6  2  0  0  0  0
  2 10  1  0  0  0  0
  2 17  1  0  0  0  0
  7  9  1  0  0  0  0
  8 10  1  0  0  0  0
 11  7  1  6  0  0  0
 11 13  1  0  0  0  0
 11 15  1  0  0  0  0
 12  8  1  6  0  0  0
 12 14  1  0  0  0  0
 12 16  1  0  0  0  0
 13 23  1  0  0  0  0
 14 24  1  0  0  0  0
 15 17  1  1  0  0  0
 15 19  1  0  0  0  0
 16 18  1  1  0  0  0
 16 20  1  0  0  0  0
 19 21  1  1  0  0  0
 19 23  1  0  0  0  0
 20 22  1  1  0  0  0
 20 24  1  0  0  0  0
 23 34  1  6  0  0  0
 24 44  1  6  0  0  0
 25 26  2  0  0  0  0
 25 30  1  0  0  0  0
 26 27  1  0  0  0  0
 27 28  2  0  0  0  0
 28 29  1  0  0  0  0
 28 34  1  0  0  0  0
 29 30  2  0  0  0  0
 29 32  1  0  0  0  0
 30 31  1  0  0  0  0
 32 33  2  0  0  0  0
 33 34  1  0  0  0  0
 35 36  2  0  0  0  0
 35 40  1  0  0  0  0
 36 37  1  0  0  0  0
 37 38  2  0  0  0  0
 38 39  1  0  0  0  0
 38 44  1  0  0  0  0
 39 40  2  0  0  0  0
 39 42  1  0  0  0  0
 40 41  1  0  0  0  0
 42 43  2  0  0  0  0
 43 44  1  0  0  0  0
M  CHG  2   3  -1   4  -1
M  END
>  <CHROM.1>
93.48327141,119.46022354,-8.25402314,36.17922477,-14.70789894,-0.05596089
0.59743200,1.39537402

>  <Name>
ligand

>  <RI>
0

>  <Rbt.Current_Directory>
/home/itssahil/PROJECTS/Mol_Feturizer/New_Systems/rnas/4QLM

>  <Rbt.Executable>
rbdock ($Id: //depot/dev/client3/rdock/2013.1/src/exe/rbdock.cxx#4 $)

>  <Rbt.Library>
libRbt.so (2013.1, Build901 2013/11/27)

>  <Rbt.Parameter_File>
/export/apps/rDock/src/rDock_2013.1_src/data/scripts/dock_solv.prm

>  <Rbt.Receptor>
prm/pocket_docking_6.prm

>  <SCORE>
-12.6208

>  <SCORE.INTER>
-12.6324

>  <SCORE.INTER.CONST>
1

>  <SCORE.INTER.POLAR>
0

>  <SCORE.INTER.ROT>
2

>  <SCORE.INTER.SOLV>
17.1803

>  <SCORE.INTER.VDW>
-19.0817

>  <SCORE.INTER.norm>
-0.2871

>  <SCORE.INTRA>
0.0116175

>  <SCORE.INTRA.DIHEDRAL>
-0.0304013

>  <SCORE.INTRA.DIHEDRAL.0>
2.32994

>  <SCORE.INTRA.POLAR>
0

>  <SCORE.INTRA.POLAR.0>
0

>  <SCORE.INTRA.REPUL>
0

>  <SCORE.INTRA.REPUL.0>
0

>  <SCORE.INTRA.SOLV>
0.0367616

>  <SCORE.INTRA.SOLV.lig_0>
-117.703

>  <SCORE.INTRA.VDW>
0.00843737

>  <SCORE.INTRA.VDW.0>
-1.59997

>  <SCORE.INTRA.norm>
0.000264035

>  <SCORE.RESTR>
0

>  <SCORE.RESTR.CAVITY>
0

>  <SCORE.RESTR.norm>
0

>  <SCORE.SYSTEM>
0

>  <SCORE.SYSTEM.CONST>
0

>  <SCORE.SYSTEM.DIHEDRAL>
0

>  <SCORE.SYSTEM.SOLV>
0

>  <SCORE.SYSTEM.norm>
0

>  <SCORE.heavy>
44

>  <SCORE.norm>
-0.286836

>  <RMSD>
4.251

$$$$
ligand
 OpenBabel11021811513D
libRbt.so/2013.1/901 2013/11/27
 44 50  0  0  0  0  0  0  0  0999 V2000
   -8.0375   36.4385  -16.6549 P   0  0  2  0  0  0  0  0  0  0  0  0
   -7.8797   38.4577  -11.6445 P   0  0  1  0  0  0  0  0  0  0  0  0
   -9.1571   36.6417  -17.6725 O   0  5  0  0  0  0  0  0  0  0  0  0
   -7.3739   37.3243  -10.7856 O   0  5  0  0  0  0  0  0  0  0  0  0
   -7.3716   35.1334  -17.0193 O   0  0  0  0  0  0  0  0  0  0  0  0
   -7.8098   39.7469  -10.7947 O   0  0  0  0  0  0  0  0  0  0  0  0
   -9.9534   37.1977  -15.1736 C   0  0  0  0  0  0  0  0  0  0  0  0
   -7.3980   39.3365  -14.0244 C   0  0  0  0  0  0  0  0  0  0  0  0
   -8.7522   36.4198  -15.2651 O   0  0  0  0  0  0  0  0  0  0  0  0
   -6.9745   38.3769  -13.0152 O   0  0  0  0  0  0  0  0  0  0  0  0
  -10.5690   37.0523  -13.7860 C   0  0  1  0  0  0  0  0  0  0  0  0
   -6.3556   39.2271  -15.2005 C   0  0  1  0  0  0  0  0  0  0  0  0
  -11.2995   35.9805  -13.7781 O   0  0  0  0  0  0  0  0  0  0  0  0
   -5.2169   39.3341  -14.6475 O   0  0  0  0  0  0  0  0  0  0  0  0
   -9.5399   36.8833  -12.6921 C   0  0  1  0  0  0  0  0  0  0  0  0
   -6.3180   37.7962  -15.7732 C   0  0  1  0  0  0  0  0  0  0  0  0
   -9.3971   38.0994  -12.1013 O   0  0  0  0  0  0  0  0  0  0  0  0
   -7.0053   37.7107  -16.9187 O   0  0  0  0  0  0  0  0  0  0  0  0
  -10.2174   35.8730  -11.7019 C   0  0  1  0  0  0  0  0  0  0  0  0
   -4.8301   37.4355  -15.9857 C   0  0  1  0  0  0  0  0  0  0  0  0
  -10.7720   36.6010  -10.5290 O   0  0  0  0  0  0  0  0  0  0  0  0
   -4.4641   37.5506  -17.4342 O   0  0  0  0  0  0  0  0  0  0  0  0
  -11.1555   35.2763  -12.3651 C   0  0  2  0  0  0  0  0  0  0  0  0
   -4.1752   38.3115  -15.3040 C   0  0  2  0  0  0  0  0  0  0  0  0
   -7.8996   31.0099  -12.5010 N   0  0  0  0  0  0  0  0  0  0  0  0
   -7.5235   32.2877  -12.2129 C   0  0  0  0  0  0  0  0  0  0  0  0
   -8.4363   33.3115  -12.2029 N   0  0  0  0  0  0  0  0  0  0  0  0
   -9.7447   33.0369  -12.4909 C   0  0  0  0  0  0  0  0  0  0  0  0
  -10.1284   31.7865  -12.7833 C   0  0  0  0  0  0  0  0  0  0  0  0
   -9.1962   30.7503  -12.7819 C   0  0  0  0  0  0  0  0  0  0  0  0
   -9.4687   29.3984  -13.0704 N   0  0  0  0  0  0  0  0  0  0  0  0
  -11.4575   31.8058  -13.0182 N   0  0  0  0  0  0  0  0  0  0  0  0
  -11.8898   33.0909  -12.8738 C   0  0  0  0  0  0  0  0  0  0  0  0
  -10.8392   33.8482  -12.5319 N   0  0  0  0  0  0  0  0  0  0  0  0
   -0.2014   35.2527  -13.8997 N   0  0  0  0  0  0  0  0  0  0  0  0
   -0.6115   35.5248  -15.1662 C   0  0  0  0  0  0  0  0  0  0  0  0
   -1.6839   36.3478  -15.3661 N   0  0  0  0  0  0  0  0  0  0  0  0
   -2.3340   36.8961  -14.3044 C   0  0  0  0  0  0  0  0  0  0  0  0
   -1.9298   36.6341  -13.0450 C   0  0  0  0  0  0  0  0  0  0  0  0
   -0.8391   35.7917  -12.8504 C   0  0  0  0  0  0  0  0  0  0  0  0
   -0.2531   35.3636  -11.6060 N   0  0  0  0  0  0  0  0  0  0  0  0
   -2.7551   37.3059  -12.2067 N   0  0  0  0  0  0  0  0  0  0  0  0
   -3.6661   37.9871  -12.9590 C   0  0  0  0  0  0  0  0  0  0  0  0
   -3.3954   37.7296  -14.2545 N   0  0  0  0  0  0  0  0  0  0  0  0
  1  3  1  6  0  0  0
  1  5  2  0  0  0  0
  1  9  1  0  0  0  0
  1 18  1  0  0  0  0
  2  4  1  1  0  0  0
  2  6  2  0  0  0  0
  2 10  1  0  0  0  0
  2 17  1  0  0  0  0
  7  9  1  0  0  0  0
  8 10  1  0  0  0  0
 11  7  1  6  0  0  0
 11 13  1  0  0  0  0
 11 15  1  0  0  0  0
 12  8  1  1  0  0  0
 12 14  1  0  0  0  0
 12 16  1  0  0  0  0
 13 23  1  0  0  0  0
 14 24  1  0  0  0  0
 15 17  1  1  0  0  0
 15 19  1  0  0  0  0
 16 18  1  6  0  0  0
 16 20  1  0  0  0  0
 19 21  1  1  0  0  0
 19 23  1  0  0  0  0
 20 22  1  6  0  0  0
 20 24  1  0  0  0  0
 23 34  1  6  0  0  0
 24 44  1  1  0  0  0
 25 26  2  0  0  0  0
 25 30  1  0  0  0  0
 26 27  1  0  0  0  0
 27 28  2  0  0  0  0
 28 29  1  0  0  0  0
 28 34  1  0  0  0  0
 29 30  2  0  0  0  0
 29 32  1  0  0  0  0
 30 31  1  0  0  0  0
 32 33  2  0  0  0  0
 33 34  1  0  0  0  0
 35 36  2  0  0  0  0
 35 40  1  0  0  0  0
 36 37  1  0  0  0  0
 37 38  2  0  0  0  0
 38 39  1  0  0  0  0
 38 44  1  0  0  0  0
 39 40  2  0  0  0  0
 39 42  1  0  0  0  0
 40 41  1  0  0  0  0
 42 43  2  0  0  0  0
 43 44  1  0  0  0  0
M  CHG  2   3  -1   4  -1
M  END
>  <CHROM.1>
99.53606748,-174.42901441,-7.07536792,36.14957583,-13.74416018,2.72445133
-0.08071713,2.89417410

>  <Name>
ligand

>  <RI>
0

>  <Rbt.Current_Directory>
/home/itssahil/PROJECTS/Mol_Feturizer/New_Systems/rnas/4QLM

>  <Rbt.Executable>
rbdock ($Id: //depot/dev/client3/rdock/2013.1/src/exe/rbdock.cxx#4 $)

>  <Rbt.Library>
libRbt.so (2013.1, Build901 2013/11/27)

>  <Rbt.Parameter_File>
/export/apps/rDock/src/rDock_2013.1_src/data/scripts/dock_solv.prm

>  <Rbt.Receptor>
prm/pocket_docking_6.prm

>  <SCORE>
-11.17

>  <SCORE.INTER>
-10.9996

>  <SCORE.INTER.CONST>
1

>  <SCORE.INTER.POLAR>
0

>  <SCORE.INTER.ROT>
2

>  <SCORE.INTER.SOLV>
17.399

>  <SCORE.INTER.VDW>
-18.066

>  <SCORE.INTER.norm>
-0.24999

>  <SCORE.INTRA>
-0.170458

>  <SCORE.INTRA.DIHEDRAL>
-0.0140632

>  <SCORE.INTRA.DIHEDRAL.0>
2.32994

>  <SCORE.INTRA.POLAR>
0

>  <SCORE.INTRA.POLAR.0>
0

>  <SCORE.INTRA.REPUL>
0

>  <SCORE.INTRA.REPUL.0>
0

>  <SCORE.INTRA.SOLV>
0.0488401

>  <SCORE.INTRA.SOLV.lig_0>
-117.703

>  <SCORE.INTRA.VDW>
-0.187847

>  <SCORE.INTRA.VDW.0>
-1.59997

>  <SCORE.INTRA.norm>
-0.00387405

>  <SCORE.RESTR>
0

>  <SCORE.RESTR.CAVITY>
0

>  <SCORE.RESTR.norm>
0

>  <SCORE.SYSTEM>
0

>  <SCORE.SYSTEM.CONST>
0

>  <SCORE.SYSTEM.DIHEDRAL>
0

>  <SCORE.SYSTEM.SOLV>
0

>  <SCORE.SYSTEM.norm>
0

>  <SCORE.heavy>
44

>  <SCORE.norm>
-0.253864

>  <RMSD>
4.273

$$$$
ligand
 OpenBabel11021811513D
libRbt.so/2013.1/901 2013/11/27
 44 50  0  0  0  0  0  0  0  0999 V2000
   -8.7658   37.3348  -12.6556 P   0  0  2  0  0  0  0  0  0  0  0  0
   -9.3005   34.5413  -17.2509 P   0  0  1  0  0  0  0  0  0  0  0  0
   -8.4660   38.8271  -12.5390 O   0  5  0  0  0  0  0  0  0  0  0  0
   -8.5523   33.2527  -17.0104 O   0  5  0  0  0  0  0  0  0  0  0  0
   -8.2529   36.7035  -11.3837 O   0  0  0  0  0  0  0  0  0  0  0  0
  -10.1406   34.3540  -18.5347 O   0  0  0  0  0  0  0  0  0  0  0  0
   -7.8574   37.8636  -14.9657 C   0  0  0  0  0  0  0  0  0  0  0  0
  -10.7882   36.1110  -15.8398 C   0  0  0  0  0  0  0  0  0  0  0  0
   -8.0119   36.8700  -13.9434 O   0  0  0  0  0  0  0  0  0  0  0  0
  -10.0897   34.8340  -15.8380 O   0  0  0  0  0  0  0  0  0  0  0  0
   -7.0673   37.2924  -16.1383 C   0  0  1  0  0  0  0  0  0  0  0  0
  -11.5959   36.1726  -14.4887 C   0  0  1  0  0  0  0  0  0  0  0  0
   -5.8038   37.4145  -15.8722 O   0  0  0  0  0  0  0  0  0  0  0  0
  -12.2466   35.0826  -14.4394 O   0  0  0  0  0  0  0  0  0  0  0  0
   -7.3215   35.8203  -16.3677 C   0  0  1  0  0  0  0  0  0  0  0  0
  -10.6517   36.0556  -13.2756 C   0  0  1  0  0  0  0  0  0  0  0  0
   -8.2070   35.7341  -17.3957 O   0  0  0  0  0  0  0  0  0  0  0  0
  -10.4219   37.2511  -12.7189 O   0  0  0  0  0  0  0  0  0  0  0  0
   -5.9206   35.2689  -16.8079 C   0  0  1  0  0  0  0  0  0  0  0  0
  -11.3255   35.0920  -12.2722 C   0  0  1  0  0  0  0  0  0  0  0  0
   -5.8822   35.0919  -18.2846 O   0  0  0  0  0  0  0  0  0  0  0  0
  -11.9544   35.8594  -11.1493 O   0  0  0  0  0  0  0  0  0  0  0  0
   -5.0419   36.1368  -16.4203 C   0  0  2  0  0  0  0  0  0  0  0  0
  -12.2418   34.4923  -12.9518 C   0  0  2  0  0  0  0  0  0  0  0  0
   -3.8901   34.4975  -11.4396 N   0  0  0  0  0  0  0  0  0  0  0  0
   -5.0867   35.0014  -11.8536 C   0  0  0  0  0  0  0  0  0  0  0  0
   -5.2810   35.3924  -13.1540 N   0  0  0  0  0  0  0  0  0  0  0  0
   -4.2494   35.2734  -14.0439 C   0  0  0  0  0  0  0  0  0  0  0  0
   -3.0646   34.7863  -13.6499 C   0  0  0  0  0  0  0  0  0  0  0  0
   -2.8785   34.3825  -12.3289 C   0  0  0  0  0  0  0  0  0  0  0  0
   -1.6880   33.8561  -11.7898 N   0  0  0  0  0  0  0  0  0  0  0  0
   -2.2441   34.7769  -14.7218 N   0  0  0  0  0  0  0  0  0  0  0  0
   -2.9383   35.2734  -15.7851 C   0  0  0  0  0  0  0  0  0  0  0  0
   -4.1795   35.5638  -15.3738 N   0  0  0  0  0  0  0  0  0  0  0  0
   -9.0726   30.4170  -12.2672 N   0  0  0  0  0  0  0  0  0  0  0  0
   -8.7794   31.7240  -12.0389 C   0  0  0  0  0  0  0  0  0  0  0  0
   -9.7266   32.6797  -12.2771 N   0  0  0  0  0  0  0  0  0  0  0  0
  -10.9576   32.3251  -12.7347 C   0  0  0  0  0  0  0  0  0  0  0  0
  -11.2572   31.0297  -12.9592 C   0  0  0  0  0  0  0  0  0  0  0  0
  -10.2852   30.0632  -12.7176 C   0  0  0  0  0  0  0  0  0  0  0  0
  -10.3785   28.6379  -12.9037 N   0  0  0  0  0  0  0  0  0  0  0  0
  -12.5347   30.9812  -13.4071 N   0  0  0  0  0  0  0  0  0  0  0  0
  -13.0208   32.2546  -13.4513 C   0  0  0  0  0  0  0  0  0  0  0  0
  -12.0391   33.0778  -13.0308 N   0  0  0  0  0  0  0  0  0  0  0  0
  1  3  1  1  0  0  0
  1  5  2  0  0  0  0
  1  9  1  0  0  0  0
  1 18  1  0  0  0  0
  2  4  1  1  0  0  0
  2  6  2  0  0  0  0
  2 10  1  0  0  0  0
  2 17  1  0  0  0  0
  7  9  1  0  0  0  0
  8 10  1  0  0  0  0
 11  7  1  1  0  0  0
 11 13  1  0  0  0  0
 11 15  1  0  0  0  0
 12  8  1  6  0  0  0
 12 14  1  0  0  0  0
 12 16  1  0  0  0  0
 13 23  1  0  0  0  0
 14 24  1  0  0  0  0
 15 17  1  6  0  0  0
 15 19  1  0  0  0  0
 16 18  1  1  0  0  0
 16 20  1  0  0  0  0
 19 21  1  6  0  0  0
 19 23  1  0  0  0  0
 20 22  1  1  0  0  0
 20 24  1  0  0  0  0
 23 34  1  1  0  0  0
 24 44  1  6  0  0  0
 25 26  2  0  0  0  0
 25 30  1  0  0  0  0
 26 27  1  0  0  0  0
 27 28  2  0  0  0  0
 28 29  1  0  0  0  0
 28 34  1  0  0  0  0
 29 30  2  0  0  0  0
 29 32  1  0  0  0  0
 30 31  1  0  0  0  0
 32 33  2  0  0  0  0
 33 34  1  0  0  0  0
 35 36  2  0  0  0  0
 35 40  1  0  0  0  0
 36 37  1  0  0  0  0
 37 38  2  0  0  0  0
 38 39  1  0  0  0  0
 38 44  1  0  0  0  0
 39 40  2  0  0  0  0
 39 42  1  0  0  0  0
 40 41  1  0  0  0  0
 42 43  2  0  0  0  0
 43 44  1  0  0  0  0
M  CHG  2   3  -1   4  -1
M  END
>  <CHROM.1>
43.64928663,106.72988541,-8.26521913,34.81438727,-14.19707928,0.34383419
-0.09723806,-0.72146668

>  <Name>
ligand

>  <RI>
0

>  <Rbt.Current_Directory>
/home/itssahil/PROJECTS/Mol_Feturizer/New_Systems/rnas/4QLM

>  <Rbt.Executable>
rbdock ($Id: //depot/dev/client3/rdock/2013.1/src/exe/rbdock.cxx#4 $)

>  <Rbt.Library>
libRbt.so (2013.1, Build901 2013/11/27)

>  <Rbt.Parameter_File>
/export/apps/rDock/src/rDock_2013.1_src/data/scripts/dock_solv.prm

>  <Rbt.Receptor>
prm/pocket_docking_5.prm

>  <SCORE>
-7.51111

>  <SCORE.INTER>
-6.87225

>  <SCORE.INTER.CONST>
1

>  <SCORE.INTER.POLAR>
0

>  <SCORE.INTER.ROT>
2

>  <SCORE.INTER.SOLV>
29.1908

>  <SCORE.INTER.VDW>
-19.2451

>  <SCORE.INTER.norm>
-0.156187

>  <SCORE.INTRA>
-0.638862

>  <SCORE.INTRA.DIHEDRAL>
0.149852

>  <SCORE.INTRA.DIHEDRAL.0>
2.32994

>  <SCORE.INTRA.POLAR>
0

>  <SCORE.INTRA.POLAR.0>
0

>  <SCORE.INTRA.REPUL>
0

>  <SCORE.INTRA.REPUL.0>
0

>  <SCORE.INTRA.SOLV>
0.364321

>  <SCORE.INTRA.SOLV.lig_0>
-117.703

>  <SCORE.INTRA.VDW>
-0.895949

>  <SCORE.INTRA.VDW.0>
-1.59997

>  <SCORE.INTRA.norm>
-0.0145196

>  <SCORE.RESTR>
0

>  <SCORE.RESTR.CAVITY>
0

>  <SCORE.RESTR.norm>
0

>  <SCORE.SYSTEM>
0

>  <SCORE.SYSTEM.CONST>
0

>  <SCORE.SYSTEM.DIHEDRAL>
0

>  <SCORE.SYSTEM.SOLV>
0

>  <SCORE.SYSTEM.norm>
0

>  <SCORE.heavy>
44

>  <SCORE.norm>
-0.170707

>  <RMSD>
4.294

$$$$
ligand
 OpenBabel11021811513D
libRbt.so/2013.1/901 2013/11/27
 44 50  0  0  0  0  0  0  0  0999 V2000
   -8.7911   37.3374  -12.6542 P   0  0  2  0  0  0  0  0  0  0  0  0
   -9.3351   34.5601  -17.2582 P   0  0  1  0  0  0  0  0  0  0  0  0
   -8.4857   38.8282  -12.5329 O   0  5  0  0  0  0  0  0  0  0  0  0
   -8.5918   33.2680  -17.0215 O   0  5  0  0  0  0  0  0  0  0  0  0
   -8.2809   36.7003  -11.3841 O   0  0  0  0  0  0  0  0  0  0  0  0
  -10.1755   34.3799  -18.5428 O   0  0  0  0  0  0  0  0  0  0  0  0
   -7.8800   37.8699  -14.9624 C   0  0  0  0  0  0  0  0  0  0  0  0
  -10.8172   36.1311  -15.8426 C   0  0  0  0  0  0  0  0  0  0  0  0
   -8.0386   36.8737  -13.9432 O   0  0  0  0  0  0  0  0  0  0  0  0
  -10.1236   34.8514  -15.8446 O   0  0  0  0  0  0  0  0  0  0  0  0
   -7.0918   37.2993  -16.1366 C   0  0  1  0  0  0  0  0  0  0  0  0
  -11.6250   36.1916  -14.4916 C   0  0  1  0  0  0  0  0  0  0  0  0
   -5.8279   37.4158  -15.8697 O   0  0  0  0  0  0  0  0  0  0  0  0
  -12.2799   35.1039  -14.4458 O   0  0  0  0  0  0  0  0  0  0  0  0
   -7.3515   35.8289  -16.3706 C   0  0  1  0  0  0  0  0  0  0  0  0
  -10.6816   36.0673  -13.2785 C   0  0  1  0  0  0  0  0  0  0  0  0
   -8.2370   35.7492  -17.3990 O   0  0  0  0  0  0  0  0  0  0  0  0
  -10.4474   37.2602  -12.7181 O   0  0  0  0  0  0  0  0  0  0  0  0
   -5.9526   35.2735  -16.8120 C   0  0  1  0  0  0  0  0  0  0  0  0
  -11.3593   35.1032  -12.2783 C   0  0  1  0  0  0  0  0  0  0  0  0
   -5.9144   35.1009  -18.2892 O   0  0  0  0  0  0  0  0  0  0  0  0
  -11.9856   35.8695  -11.1533 O   0  0  0  0  0  0  0  0  0  0  0  0
   -5.0707   36.1369  -16.4216 C   0  0  2  0  0  0  0  0  0  0  0  0
  -12.2777   34.5090  -12.9599 C   0  0  2  0  0  0  0  0  0  0  0  0
   -3.9209   34.4928  -11.4420 N   0  0  0  0  0  0  0  0  0  0  0  0
   -5.1140   35.0069  -11.8536 C   0  0  0  0  0  0  0  0  0  0  0  0
   -5.3081   35.3981  -13.1538 N   0  0  0  0  0  0  0  0  0  0  0  0
   -4.2799   35.2691  -14.0462 C   0  0  0  0  0  0  0  0  0  0  0  0
   -3.0984   34.7720  -13.6547 C   0  0  0  0  0  0  0  0  0  0  0  0
   -2.9125   34.3680  -12.3337 C   0  0  0  0  0  0  0  0  0  0  0  0
   -1.7254   33.8316  -11.7970 N   0  0  0  0  0  0  0  0  0  0  0  0
   -2.2807   34.7542  -14.7286 N   0  0  0  0  0  0  0  0  0  0  0  0
   -2.9732   35.2557  -15.7907 C   0  0  0  0  0  0  0  0  0  0  0  0
   -4.2108   35.5575  -15.3766 N   0  0  0  0  0  0  0  0  0  0  0  0
   -9.1281   30.4185  -12.2759 N   0  0  0  0  0  0  0  0  0  0  0  0
   -8.8307   31.7234  -12.0414 C   0  0  0  0  0  0  0  0  0  0  0  0
   -9.7729   32.6838  -12.2805 N   0  0  0  0  0  0  0  0  0  0  0  0
  -11.0033   32.3359  -12.7450 C   0  0  0  0  0  0  0  0  0  0  0  0
  -11.3070   31.0426  -12.9756 C   0  0  0  0  0  0  0  0  0  0  0  0
  -10.3400   30.0713  -12.7332 C   0  0  0  0  0  0  0  0  0  0  0  0
  -10.4382   28.6470  -12.9250 N   0  0  0  0  0  0  0  0  0  0  0  0
  -12.5826   31.0008  -13.4295 N   0  0  0  0  0  0  0  0  0  0  0  0
  -13.0633   32.2763  -13.4713 C   0  0  0  0  0  0  0  0  0  0  0  0
  -12.0804   33.0940  -13.0433 N   0  0  0  0  0  0  0  0  0  0  0  0
  1  3  1  1  0  0  0
  1  5  2  0  0  0  0
  1  9  1  0  0  0  0
  1 18  1  0  0  0  0
  2  4  1  1  0  0  0
  2  6  2  0  0  0  0
  2 10  1  0  0  0  0
  2 17  1  0  0  0  0
  7  9  1  0  0  0  0
  8 10  1  0  0  0  0
 11  7  1  1  0  0  0
 11 13  1  0  0  0  0
 11 15  1  0  0  0  0
 12  8  1  6  0  0  0
 12 14  1  0  0  0  0
 12 16  1  0  0  0  0
 13 23  1  0  0  0  0
 14 24  1  0  0  0  0
 15 17  1  6  0  0  0
 15 19  1  0  0  0  0
 16 18  1  1  0  0  0
 16 20  1  0  0  0  0
 19 21  1  6  0  0  0
 19 23  1  0  0  0  0
 20 22  1  1  0  0  0
 20 24  1  0  0  0  0
 23 34  1  1  0  0  0
 24 44  1  6  0  0  0
 25 26  2  0  0  0  0
 25 30  1  0  0  0  0
 26 27  1  0  0  0  0
 27 28  2  0  0  0  0
 28 29  1  0  0  0  0
 28 34  1  0  0  0  0
 29 30  2  0  0  0  0
 29 32  1  0  0  0  0
 30 31  1  0  0  0  0
 32 33  2  0  0  0  0
 33 34  1  0  0  0  0
 35 36  2  0  0  0  0
 35 40  1  0  0  0  0
 36 37  1  0  0  0  0
 37 38  2  0  0  0  0
 38 39  1  0  0  0  0
 38 44  1  0  0  0  0
 39 40  2  0  0  0  0
 39 42  1  0  0  0  0
 40 41  1  0  0  0  0
 42 43  2  0  0  0  0
 43 44  1  0  0  0  0
M  CHG  2   3  -1   4  -1
M  END
>  <CHROM.1>
43.24247577,106.98121663,-8.29950063,34.82078688,-14.20217288,0.34091622
-0.09636419,-0.72163951

>  <Name>
ligand

>  <RI>
0

>  <Rbt.Current_Directory>
/home/itssahil/PROJECTS/Mol_Feturizer/New_Systems/rnas/4QLM

>  <Rbt.Executable>
rbdock ($Id: //depot/dev/client3/rdock/2013.1/src/exe/rbdock.cxx#4 $)

>  <Rbt.Library>
libRbt.so (2013.1, Build901 2013/11/27)

>  <Rbt.Parameter_File>
/export/apps/rDock/src/rDock_2013.1_src/data/scripts/dock_solv.prm

>  <Rbt.Receptor>
prm/pocket_docking_5.prm

>  <SCORE>
-7.58911

>  <SCORE.INTER>
-6.95766

>  <SCORE.INTER.CONST>
1

>  <SCORE.INTER.POLAR>
0

>  <SCORE.INTER.ROT>
2

>  <SCORE.INTER.SOLV>
29.2933

>  <SCORE.INTER.VDW>
-19.3362

>  <SCORE.INTER.norm>
-0.158129

>  <SCORE.INTRA>
-0.631448

>  <SCORE.INTRA.DIHEDRAL>
0.151328

>  <SCORE.INTRA.DIHEDRAL.0>
2.32994

>  <SCORE.INTRA.POLAR>
0

>  <SCORE.INTRA.POLAR.0>
0

>  <SCORE.INTRA.REPUL>
0

>  <SCORE.INTRA.REPUL.0>
0

>  <SCORE.INTRA.SOLV>
0.367603

>  <SCORE.INTRA.SOLV.lig_0>
-117.703

>  <SCORE.INTRA.VDW>
-0.890914

>  <SCORE.INTRA.VDW.0>
-1.59997

>  <SCORE.INTRA.norm>
-0.0143511

>  <SCORE.RESTR>
0

>  <SCORE.RESTR.CAVITY>
0

>  <SCORE.RESTR.norm>
0

>  <SCORE.SYSTEM>
0

>  <SCORE.SYSTEM.CONST>
0

>  <SCORE.SYSTEM.DIHEDRAL>
0

>  <SCORE.SYSTEM.SOLV>
0

>  <SCORE.SYSTEM.norm>
0

>  <SCORE.heavy>
44

>  <SCORE.norm>
-0.17248

>  <RMSD>
4.303

$$$$
ligand
 OpenBabel11021811513D
libRbt.so/2013.1/901 2013/11/27
 44 50  0  0  0  0  0  0  0  0999 V2000
   -7.0398   32.8990  -13.5728 P   0  0  2  0  0  0  0  0  0  0  0  0
  -10.7841   36.7906  -13.3697 P   0  0  1  0  0  0  0  0  0  0  0  0
   -5.9339   32.6594  -12.5480 O   0  5  0  0  0  0  0  0  0  0  0  0
  -10.8726   37.3174  -14.7813 O   0  5  0  0  0  0  0  0  0  0  0  0
   -6.5298   32.3385  -14.8786 O   0  0  0  0  0  0  0  0  0  0  0  0
  -11.9992   37.3468  -12.5930 O   0  0  0  0  0  0  0  0  0  0  0  0
   -6.9727   35.1232  -12.3522 C   0  0  0  0  0  0  0  0  0  0  0  0
  -10.4373   34.4785  -12.2732 C   0  0  0  0  0  0  0  0  0  0  0  0
   -7.2505   34.4476  -13.5862 O   0  0  0  0  0  0  0  0  0  0  0  0
  -10.6478   35.1607  -13.5417 O   0  0  0  0  0  0  0  0  0  0  0  0
   -7.1726   36.6257  -12.5194 C   0  0  1  0  0  0  0  0  0  0  0  0
  -10.4688   32.9363  -12.5925 C   0  0  1  0  0  0  0  0  0  0  0  0
   -6.0792   37.1275  -13.0043 O   0  0  0  0  0  0  0  0  0  0  0  0
  -11.5393   32.7542  -13.2519 O   0  0  0  0  0  0  0  0  0  0  0  0
   -8.2774   36.9759  -13.4895 C   0  0  1  0  0  0  0  0  0  0  0  0
   -9.3768   32.5619  -13.6146 C   0  0  1  0  0  0  0  0  0  0  0  0
   -9.3695   37.2833  -12.7405 O   0  0  0  0  0  0  0  0  0  0  0  0
   -8.3192   32.0012  -13.0155 O   0  0  0  0  0  0  0  0  0  0  0  0
   -7.7373   38.2566  -14.2163 C   0  0  1  0  0  0  0  0  0  0  0  0
  -10.0238   31.5919  -14.6294 C   0  0  1  0  0  0  0  0  0  0  0  0
   -8.3804   39.4737  -13.6522 O   0  0  0  0  0  0  0  0  0  0  0  0
   -9.6150   30.1798  -14.3394 O   0  0  0  0  0  0  0  0  0  0  0  0
   -6.4567   38.2775  -14.0283 C   0  0  2  0  0  0  0  0  0  0  0  0
  -11.2934   31.7197  -14.4482 C   0  0  2  0  0  0  0  0  0  0  0  0
   -5.5443   35.9298  -18.7693 N   0  0  0  0  0  0  0  0  0  0  0  0
   -6.5523   35.6155  -17.9078 C   0  0  0  0  0  0  0  0  0  0  0  0
   -6.7009   36.2786  -16.7162 N   0  0  0  0  0  0  0  0  0  0  0  0
   -5.8157   37.2698  -16.3935 C   0  0  0  0  0  0  0  0  0  0  0  0
   -4.8149   37.5853  -17.2273 C   0  0  0  0  0  0  0  0  0  0  0  0
   -4.6767   36.9130  -18.4404 C   0  0  0  0  0  0  0  0  0  0  0  0
   -3.6732   37.1477  -19.4012 N   0  0  0  0  0  0  0  0  0  0  0  0
   -4.1081   38.5883  -16.6645 N   0  0  0  0  0  0  0  0  0  0  0  0
   -4.6836   38.8841  -15.4643 C   0  0  0  0  0  0  0  0  0  0  0  0
   -5.7462   38.0847  -15.3031 N   0  0  0  0  0  0  0  0  0  0  0  0
  -11.1041   34.4047  -18.9064 N   0  0  0  0  0  0  0  0  0  0  0  0
  -10.0828   34.2034  -18.0330 C   0  0  0  0  0  0  0  0  0  0  0  0
  -10.3001   33.4762  -16.8967 N   0  0  0  0  0  0  0  0  0  0  0  0
  -11.5295   32.9518  -16.6434 C   0  0  0  0  0  0  0  0  0  0  0  0
  -12.5465   33.1436  -17.5077 C   0  0  0  0  0  0  0  0  0  0  0  0
  -12.3174   33.8889  -18.6607 C   0  0  0  0  0  0  0  0  0  0  0  0
  -13.2521   34.2320  -19.7018 N   0  0  0  0  0  0  0  0  0  0  0  0
  -13.6343   32.5170  -16.9988 N   0  0  0  0  0  0  0  0  0  0  0  0
  -13.2783   31.9339  -15.8185 C   0  0  0  0  0  0  0  0  0  0  0  0
  -11.9744   32.2059  -15.6092 N   0  0  0  0  0  0  0  0  0  0  0  0
  1  3  1  1  0  0  0
  1  5  2  0  0  0  0
  1  9  1  0  0  0  0
  1 18  1  0  0  0  0
  2  4  1  6  0  0  0
  2  6  2  0  0  0  0
  2 10  1  0  0  0  0
  2 17  1  0  0  0  0
  7  9  1  0  0  0  0
  8 10  1  0  0  0  0
 11  7  1  6  0  0  0
 11 13  1  0  0  0  0
 11 15  1  0  0  0  0
 12  8  1  6  0  0  0
 12 14  1  0  0  0  0
 12 16  1  0  0  0  0
 13 23  1  0  0  0  0
 14 24  1  0  0  0  0
 15 17  1  1  0  0  0
 15 19  1  0  0  0  0
 16 18  1  1  0  0  0
 16 20  1  0  0  0  0
 19 21  1  1  0  0  0
 19 23  1  0  0  0  0
 20 22  1  1  0  0  0
 20 24  1  0  0  0  0
 23 34  1  6  0  0  0
 24 44  1  6  0  0  0
 25 26  2  0  0  0  0
 25 30  1  0  0  0  0
 26 27  1  0  0  0  0
 27 28  2  0  0  0  0
 28 29  1  0  0  0  0
 28 34  1  0  0  0  0
 29 30  2  0  0  0  0
 29 32  1  0  0  0  0
 30 31  1  0  0  0  0
 32 33  2  0  0  0  0
 33 34  1  0  0  0  0
 35 36  2  0  0  0  0
 35 40  1  0  0  0  0
 36 37  1  0  0  0  0
 37 38  2  0  0  0  0
 38 39  1  0  0  0  0
 38 44  1  0  0  0  0
 39 40  2  0  0  0  0
 39 42  1  0  0  0  0
 40 41  1  0  0  0  0
 42 43  2  0  0  0  0
 43 44  1  0  0  0  0
M  CHG  2   3  -1   4  -1
M  END
>  <CHROM.1>
74.59223527,94.90019362,-8.76381257,35.01445251,-15.03054340,-0.05861241
0.66370145,1.60913240

>  <Name>
ligand

>  <RI>
0

>  <Rbt.Current_Directory>
/home/itssahil/PROJECTS/Mol_Feturizer/New_Systems/rnas/4QLM

>  <Rbt.Executable>
rbdock ($Id: //depot/dev/client3/rdock/2013.1/src/exe/rbdock.cxx#4 $)

>  <Rbt.Library>
libRbt.so (2013.1, Build901 2013/11/27)

>  <Rbt.Parameter_File>
/export/apps/rDock/src/rDock_2013.1_src/data/scripts/dock_solv.prm

>  <Rbt.Receptor>
prm/pocket_docking_6.prm

>  <SCORE>
-11.5816

>  <SCORE.INTER>
-10.4796

>  <SCORE.INTER.CONST>
1

>  <SCORE.INTER.POLAR>
0

>  <SCORE.INTER.ROT>
2

>  <SCORE.INTER.SOLV>
21.6172

>  <SCORE.INTER.VDW>
-19.1255

>  <SCORE.INTER.norm>
-0.238173

>  <SCORE.INTRA>
-1.10196

>  <SCORE.INTRA.DIHEDRAL>
0.00187938

>  <SCORE.INTRA.DIHEDRAL.0>
2.32994

>  <SCORE.INTRA.POLAR>
0

>  <SCORE.INTRA.POLAR.0>
0

>  <SCORE.INTRA.REPUL>
0

>  <SCORE.INTRA.REPUL.0>
0

>  <SCORE.INTRA.SOLV>
0.0189063

>  <SCORE.INTRA.SOLV.lig_0>
-117.703

>  <SCORE.INTRA.VDW>
-1.11236

>  <SCORE.INTRA.VDW.0>
-1.59997

>  <SCORE.INTRA.norm>
-0.0250446

>  <SCORE.RESTR>
0

>  <SCORE.RESTR.CAVITY>
0

>  <SCORE.RESTR.norm>
0

>  <SCORE.SYSTEM>
0

>  <SCORE.SYSTEM.CONST>
0

>  <SCORE.SYSTEM.DIHEDRAL>
0

>  <SCORE.SYSTEM.SOLV>
0

>  <SCORE.SYSTEM.norm>
0

>  <SCORE.heavy>
44

>  <SCORE.norm>
-0.263218

>  <RMSD>
4.313

$$$$
ligand
 OpenBabel11021811513D
libRbt.so/2013.1/901 2013/11/27
 44 50  0  0  0  0  0  0  0  0999 V2000
   -9.8995   38.6188  -13.3382 P   0  0  2  0  0  0  0  0  0  0  0  0
   -6.4900   34.4272  -13.2309 P   0  0  1  0  0  0  0  0  0  0  0  0
  -11.0265   38.8882  -12.3444 O   0  5  0  0  0  0  0  0  0  0  0  0
   -6.3822   33.9784  -14.6679 O   0  5  0  0  0  0  0  0  0  0  0  0
  -10.3055   39.2948  -14.6257 O   0  0  0  0  0  0  0  0  0  0  0  0
   -5.3583   33.7284  -12.4435 O   0  0  0  0  0  0  0  0  0  0  0  0
  -10.1971   36.3401  -12.2611 C   0  0  0  0  0  0  0  0  0  0  0  0
   -6.6989   36.6919  -12.0079 C   0  0  0  0  0  0  0  0  0  0  0  0
   -9.8125   37.0616  -13.4392 O   0  0  0  0  0  0  0  0  0  0  0  0
   -6.4881   36.0701  -13.3070 O   0  0  0  0  0  0  0  0  0  0  0  0
  -10.1106   34.8386  -12.5130 C   0  0  1  0  0  0  0  0  0  0  0  0
   -6.5305   38.2423  -12.2297 C   0  0  1  0  0  0  0  0  0  0  0  0
  -11.2183   34.4577  -13.0701 O   0  0  0  0  0  0  0  0  0  0  0  0
   -5.4210   38.3740  -12.8345 O   0  0  0  0  0  0  0  0  0  0  0  0
   -8.9958   34.4561  -13.4593 C   0  0  1  0  0  0  0  0  0  0  0  0
   -7.5434   38.7644  -13.2683 C   0  0  1  0  0  0  0  0  0  0  0  0
   -7.9655   34.0165  -12.6889 O   0  0  0  0  0  0  0  0  0  0  0  0
   -8.5781   39.3742  -12.6772 O   0  0  0  0  0  0  0  0  0  0  0  0
   -9.6041   33.2689  -14.2843 C   0  0  1  0  0  0  0  0  0  0  0  0
   -6.7774   39.7355  -14.1953 C   0  0  1  0  0  0  0  0  0  0  0  0
   -9.0854   31.9720  -13.7720 O   0  0  0  0  0  0  0  0  0  0  0  0
   -7.0845   41.1571  -13.8346 O   0  0  0  0  0  0  0  0  0  0  0  0
  -10.8893   33.3424  -14.1478 C   0  0  2  0  0  0  0  0  0  0  0  0
   -5.5312   39.4933  -13.9731 C   0  0  2  0  0  0  0  0  0  0  0  0
  -13.5970   32.2158  -18.6445 N   0  0  0  0  0  0  0  0  0  0  0  0
  -13.2873   31.3265  -17.6594 C   0  0  0  0  0  0  0  0  0  0  0  0
  -12.5899   31.7162  -16.5444 N   0  0  0  0  0  0  0  0  0  0  0  0
  -12.1999   33.0218  -16.4282 C   0  0  0  0  0  0  0  0  0  0  0  0
  -12.4908   33.9064  -17.3921 C   0  0  0  0  0  0  0  0  0  0  0  0
  -13.2080   33.5043  -18.5175 C   0  0  0  0  0  0  0  0  0  0  0  0
  -13.5766   34.3314  -19.5969 N   0  0  0  0  0  0  0  0  0  0  0  0
  -11.9952   35.1048  -17.0171 N   0  0  0  0  0  0  0  0  0  0  0  0
  -11.3857   34.9461  -15.8078 C   0  0  0  0  0  0  0  0  0  0  0  0
  -11.5257   33.6673  -15.4349 N   0  0  0  0  0  0  0  0  0  0  0  0
   -5.7257   37.0297  -18.5571 N   0  0  0  0  0  0  0  0  0  0  0  0
   -6.7622   37.2504  -17.7066 C   0  0  0  0  0  0  0  0  0  0  0  0
   -6.5415   37.9112  -16.5311 N   0  0  0  0  0  0  0  0  0  0  0  0
   -5.2933   38.3507  -16.2160 C   0  0  0  0  0  0  0  0  0  0  0  0
   -4.2609   38.1393  -17.0573 C   0  0  0  0  0  0  0  0  0  0  0  0
   -4.4938   37.4620  -18.2506 C   0  0  0  0  0  0  0  0  0  0  0  0
   -3.5464   37.1126  -19.2779 N   0  0  0  0  0  0  0  0  0  0  0  0
   -3.1565   38.6775  -16.4864 N   0  0  0  0  0  0  0  0  0  0  0  0
   -3.5175   39.2261  -15.2912 C   0  0  0  0  0  0  0  0  0  0  0  0
   -4.8410   39.0215  -15.1347 N   0  0  0  0  0  0  0  0  0  0  0  0
  1  3  1  1  0  0  0
  1  5  2  0  0  0  0
  1  9  1  0  0  0  0
  1 18  1  0  0  0  0
  2  4  1  6  0  0  0
  2  6  2  0  0  0  0
  2 10  1  0  0  0  0
  2 17  1  0  0  0  0
  7  9  1  0  0  0  0
  8 10  1  0  0  0  0
 11  7  1  6  0  0  0
 11 13  1  0  0  0  0
 11 15  1  0  0  0  0
 12  8  1  6  0  0  0
 12 14  1  0  0  0  0
 12 16  1  0  0  0  0
 13 23  1  0  0  0  0
 14 24  1  0  0  0  0
 15 17  1  1  0  0  0
 15 19  1  0  0  0  0
 16 18  1  1  0  0  0
 16 20  1  0  0  0  0
 19 21  1  1  0  0  0
 19 23  1  0  0  0  0
 20 22  1  1  0  0  0
 20 24  1  0  0  0  0
 23 34  1  6  0  0  0
 24 44  1  6  0  0  0
 25 26  2  0  0  0  0
 25 30  1  0  0  0  0
 26 27  1  0  0  0  0
 27 28  2  0  0  0  0
 28 29  1  0  0  0  0
 28 34  1  0  0  0  0
 29 30  2  0  0  0  0
 29 32  1  0  0  0  0
 30 31  1  0  0  0  0
 32 33  2  0  0  0  0
 33 34  1  0  0  0  0
 35 36  2  0  0  0  0
 35 40  1  0  0  0  0
 36 37  1  0  0  0  0
 37 38  2  0  0  0  0
 38 39  1  0  0  0  0
 38 44  1  0  0  0  0
 39 40  2  0  0  0  0
 39 42  1  0  0  0  0
 40 41  1  0  0  0  0
 42 43  2  0  0  0  0
 43 44  1  0  0  0  0
M  CHG  2   3  -1   4  -1
M  END
>  <CHROM.1>
-138.23572695,93.24655168,-8.42749751,36.19082614,-14.84957171,0.40352231
0.57333329,1.20031640

>  <Name>
ligand

>  <RI>
0

>  <Rbt.Current_Directory>
/home/itssahil/PROJECTS/Mol_Feturizer/New_Systems/rnas/4QLM

>  <Rbt.Executable>
rbdock ($Id: //depot/dev/client3/rdock/2013.1/src/exe/rbdock.cxx#4 $)

>  <Rbt.Library>
libRbt.so (2013.1, Build901 2013/11/27)

>  <Rbt.Parameter_File>
/export/apps/rDock/src/rDock_2013.1_src/data/scripts/dock_solv.prm

>  <Rbt.Receptor>
prm/pocket_docking_6.prm

>  <SCORE>
-11.2691

>  <SCORE.INTER>
-11.1338

>  <SCORE.INTER.CONST>
1

>  <SCORE.INTER.POLAR>
0

>  <SCORE.INTER.ROT>
2

>  <SCORE.INTER.SOLV>
15.7624

>  <SCORE.INTER.VDW>
-17.61

>  <SCORE.INTER.norm>
-0.253042

>  <SCORE.INTRA>
-0.135291

>  <SCORE.INTRA.DIHEDRAL>
0.0009678

>  <SCORE.INTRA.DIHEDRAL.0>
2.32994

>  <SCORE.INTRA.POLAR>
0

>  <SCORE.INTRA.POLAR.0>
0

>  <SCORE.INTRA.REPUL>
0

>  <SCORE.INTRA.REPUL.0>
0

>  <SCORE.INTRA.SOLV>
0.0213283

>  <SCORE.INTRA.SOLV.lig_0>
-117.703

>  <SCORE.INTRA.VDW>
-0.146439

>  <SCORE.INTRA.VDW.0>
-1.59997

>  <SCORE.INTRA.norm>
-0.00307479

>  <SCORE.RESTR>
0

>  <SCORE.RESTR.CAVITY>
0

>  <SCORE.RESTR.norm>
0

>  <SCORE.SYSTEM>
0

>  <SCORE.SYSTEM.CONST>
0

>  <SCORE.SYSTEM.DIHEDRAL>
0

>  <SCORE.SYSTEM.SOLV>
0

>  <SCORE.SYSTEM.norm>
0

>  <SCORE.heavy>
44

>  <SCORE.norm>
-0.256117

>  <RMSD>
4.336

$$$$
ligand
 OpenBabel11021811513D
libRbt.so/2013.1/901 2013/11/27
 44 50  0  0  0  0  0  0  0  0999 V2000
   -9.5455   36.2710  -12.4068 P   0  0  2  0  0  0  0  0  0  0  0  0
   -6.1318   32.5246  -14.2820 P   0  0  1  0  0  0  0  0  0  0  0  0
  -10.4252   36.1467  -11.1654 O   0  5  0  0  0  0  0  0  0  0  0  0
   -6.3416   32.5225  -15.7766 O   0  5  0  0  0  0  0  0  0  0  0  0
  -10.2405   37.2556  -13.3162 O   0  0  0  0  0  0  0  0  0  0  0  0
   -4.8413   31.7232  -13.9964 O   0  0  0  0  0  0  0  0  0  0  0  0
   -9.5575   33.7614  -12.0287 C   0  0  0  0  0  0  0  0  0  0  0  0
   -6.0976   34.3118  -12.4183 C   0  0  0  0  0  0  0  0  0  0  0  0
   -9.4584   34.8228  -12.9878 O   0  0  0  0  0  0  0  0  0  0  0  0
   -6.1734   34.1132  -13.8583 O   0  0  0  0  0  0  0  0  0  0  0  0
   -9.5055   32.4100  -12.7334 C   0  0  1  0  0  0  0  0  0  0  0  0
   -6.0082   35.8683  -12.1930 C   0  0  1  0  0  0  0  0  0  0  0  0
  -10.7036   32.1171  -13.1348 O   0  0  0  0  0  0  0  0  0  0  0  0
   -5.0647   36.2607  -12.9479 O   0  0  0  0  0  0  0  0  0  0  0  0
   -8.6252   32.4118  -13.9619 C   0  0  1  0  0  0  0  0  0  0  0  0
   -7.2363   36.5838  -12.7903 C   0  0  1  0  0  0  0  0  0  0  0  0
   -7.4415   31.8542  -13.5929 O   0  0  0  0  0  0  0  0  0  0  0  0
   -8.1219   36.9084  -11.8404 O   0  0  0  0  0  0  0  0  0  0  0  0
   -9.3837   31.4691  -14.9600 C   0  0  1  0  0  0  0  0  0  0  0  0
   -6.7132   37.8418  -13.5204 C   0  0  1  0  0  0  0  0  0  0  0  0
   -8.7426   30.1267  -14.9823 O   0  0  0  0  0  0  0  0  0  0  0  0
   -6.9546   39.0672  -12.6925 O   0  0  0  0  0  0  0  0  0  0  0  0
  -10.6066   31.3936  -14.5422 C   0  0  2  0  0  0  0  0  0  0  0  0
   -5.4452   37.6492  -13.6471 C   0  0  2  0  0  0  0  0  0  0  0  0
  -11.8302   34.4469  -18.7850 N   0  0  0  0  0  0  0  0  0  0  0  0
  -10.5726   34.1893  -18.3275 C   0  0  0  0  0  0  0  0  0  0  0  0
  -10.3652   33.3917  -17.2310 N   0  0  0  0  0  0  0  0  0  0  0  0
  -11.4455   32.8512  -16.5898 C   0  0  0  0  0  0  0  0  0  0  0  0
  -12.6887   33.1013  -17.0236 C   0  0  0  0  0  0  0  0  0  0  0  0
  -12.8901   33.9052  -18.1443 C   0  0  0  0  0  0  0  0  0  0  0  0
  -14.1399   34.2436  -18.6998 N   0  0  0  0  0  0  0  0  0  0  0  0
  -13.5485   32.4446  -16.2164 N   0  0  0  0  0  0  0  0  0  0  0  0
  -12.8174   31.7892  -15.2703 C   0  0  0  0  0  0  0  0  0  0  0  0
  -11.5204   32.0243  -15.5088 N   0  0  0  0  0  0  0  0  0  0  0  0
   -3.1598   34.9685  -17.4826 N   0  0  0  0  0  0  0  0  0  0  0  0
   -3.3374   34.5616  -16.1984 C   0  0  0  0  0  0  0  0  0  0  0  0
   -3.9541   35.3929  -15.3063 N   0  0  0  0  0  0  0  0  0  0  0  0
   -4.3929   36.6182  -15.7020 C   0  0  0  0  0  0  0  0  0  0  0  0
   -4.2242   37.0268  -16.9759 C   0  0  0  0  0  0  0  0  0  0  0  0
   -3.5915   36.1753  -17.8769 C   0  0  0  0  0  0  0  0  0  0  0  0
   -3.2913   36.4099  -19.2661 N   0  0  0  0  0  0  0  0  0  0  0  0
   -4.7503   38.2712  -17.0751 N   0  0  0  0  0  0  0  0  0  0  0  0
   -5.2486   38.6231  -15.8554 C   0  0  0  0  0  0  0  0  0  0  0  0
   -5.0254   37.5932  -15.0141 N   0  0  0  0  0  0  0  0  0  0  0  0
  1  3  1  1  0  0  0
  1  5  2  0  0  0  0
  1  9  1  0  0  0  0
  1 18  1  0  0  0  0
  2  4  1  6  0  0  0
  2  6  2  0  0  0  0
  2 10  1  0  0  0  0
  2 17  1  0  0  0  0
  7  9  1  0  0  0  0
  8 10  1  0  0  0  0
 11  7  1  6  0  0  0
 11 13  1  0  0  0  0
 11 15  1  0  0  0  0
 12  8  1  6  0  0  0
 12 14  1  0  0  0  0
 12 16  1  0  0  0  0
 13 23  1  0  0  0  0
 14 24  1  0  0  0  0
 15 17  1  1  0  0  0
 15 19  1  0  0  0  0
 16 18  1  1  0  0  0
 16 20  1  0  0  0  0
 19 21  1  1  0  0  0
 19 23  1  0  0  0  0
 20 22  1  1  0  0  0
 20 24  1  0  0  0  0
 23 34  1  6  0  0  0
 24 44  1  6  0  0  0
 25 26  2  0  0  0  0
 25 30  1  0  0  0  0
 26 27  1  0  0  0  0
 27 28  2  0  0  0  0
 28 29  1  0  0  0  0
 28 34  1  0  0  0  0
 29 30  2  0  0  0  0
 29 32  1  0  0  0  0
 30 31  1  0  0  0  0
 32 33  2  0  0  0  0
 33 34  1  0  0  0  0
 35 36  2  0  0  0  0
 35 40  1  0  0  0  0
 36 37  1  0  0  0  0
 37 38  2  0  0  0  0
 38 39  1  0  0  0  0
 38 44  1  0  0  0  0
 39 40  2  0  0  0  0
 39 42  1  0  0  0  0
 40 41  1  0  0  0  0
 42 43  2  0  0  0  0
 43 44  1  0  0  0  0
M  CHG  2   3  -1   4  -1
M  END
>  <CHROM.1>
105.78677734,-1.17979908,-7.98737628,34.59792592,-14.77816840,2.88217860
-0.42034174,-1.99091764

>  <Name>
ligand

>  <RI>
0

>  <Rbt.Current_Directory>
/home/itssahil/PROJECTS/Mol_Feturizer/New_Systems/rnas/4QLM

>  <Rbt.Executable>
rbdock ($Id: //depot/dev/client3/rdock/2013.1/src/exe/rbdock.cxx#4 $)

>  <Rbt.Library>
libRbt.so (2013.1, Build901 2013/11/27)

>  <Rbt.Parameter_File>
/export/apps/rDock/src/rDock_2013.1_src/data/scripts/dock_solv.prm

>  <Rbt.Receptor>
prm/pocket_docking_5.prm

>  <SCORE>
-10.7156

>  <SCORE.INTER>
-10.0595

>  <SCORE.INTER.CONST>
1

>  <SCORE.INTER.POLAR>
0

>  <SCORE.INTER.ROT>
2

>  <SCORE.INTER.SOLV>
21.0082

>  <SCORE.INTER.VDW>
-18.6424

>  <SCORE.INTER.norm>
-0.228625

>  <SCORE.INTRA>
-0.656124

>  <SCORE.INTRA.DIHEDRAL>
0.0069243

>  <SCORE.INTRA.DIHEDRAL.0>
2.32994

>  <SCORE.INTRA.POLAR>
0

>  <SCORE.INTRA.POLAR.0>
0

>  <SCORE.INTRA.REPUL>
0

>  <SCORE.INTRA.REPUL.0>
0

>  <SCORE.INTRA.SOLV>
0.617899

>  <SCORE.INTRA.SOLV.lig_0>
-117.703

>  <SCORE.INTRA.VDW>
-0.968536

>  <SCORE.INTRA.VDW.0>
-1.59997

>  <SCORE.INTRA.norm>
-0.0149119

>  <SCORE.RESTR>
0

>  <SCORE.RESTR.CAVITY>
0

>  <SCORE.RESTR.norm>
0

>  <SCORE.SYSTEM>
0

>  <SCORE.SYSTEM.CONST>
0

>  <SCORE.SYSTEM.DIHEDRAL>
0

>  <SCORE.SYSTEM.SOLV>
0

>  <SCORE.SYSTEM.norm>
0

>  <SCORE.heavy>
44

>  <SCORE.norm>
-0.243537

>  <RMSD>
4.348

$$$$
ligand
 OpenBabel11021811513D
libRbt.so/2013.1/901 2013/11/27
 44 50  0  0  0  0  0  0  0  0999 V2000
   -9.5797   36.2657  -12.3960 P   0  0  2  0  0  0  0  0  0  0  0  0
   -6.1497   32.5369  -14.2766 P   0  0  1  0  0  0  0  0  0  0  0  0
  -10.4606   36.1348  -11.1561 O   0  5  0  0  0  0  0  0  0  0  0  0
   -6.3575   32.5380  -15.7715 O   0  5  0  0  0  0  0  0  0  0  0  0
  -10.2771   37.2501  -13.3037 O   0  0  0  0  0  0  0  0  0  0  0  0
   -4.8566   31.7395  -13.9914 O   0  0  0  0  0  0  0  0  0  0  0  0
   -9.5829   33.7551  -12.0246 C   0  0  0  0  0  0  0  0  0  0  0  0
   -6.1246   34.3192  -12.4082 C   0  0  0  0  0  0  0  0  0  0  0  0
   -9.4864   34.8193  -12.9808 O   0  0  0  0  0  0  0  0  0  0  0  0
   -6.1977   34.1242  -13.8487 O   0  0  0  0  0  0  0  0  0  0  0  0
   -9.5250   32.4058  -12.7328 C   0  0  1  0  0  0  0  0  0  0  0  0
   -6.0412   35.8754  -12.1785 C   0  0  1  0  0  0  0  0  0  0  0  0
  -10.7215   32.1095  -13.1367 O   0  0  0  0  0  0  0  0  0  0  0  0
   -5.0982   36.2733  -12.9312 O   0  0  0  0  0  0  0  0  0  0  0  0
   -8.6431   32.4140  -13.9602 C   0  0  1  0  0  0  0  0  0  0  0  0
   -7.2711   36.5880  -12.7756 C   0  0  1  0  0  0  0  0  0  0  0  0
   -7.4578   31.8598  -13.5911 O   0  0  0  0  0  0  0  0  0  0  0  0
   -8.1592   36.9068  -11.8261 O   0  0  0  0  0  0  0  0  0  0  0  0
   -9.3968   31.4712  -14.9617 C   0  0  1  0  0  0  0  0  0  0  0  0
   -6.7517   37.8499  -13.5016 C   0  0  1  0  0  0  0  0  0  0  0  0
   -8.7507   30.1313  -14.9868 O   0  0  0  0  0  0  0  0  0  0  0  0
   -6.9987   39.0722  -12.6708 O   0  0  0  0  0  0  0  0  0  0  0  0
  -10.6200   31.3901  -14.5458 C   0  0  2  0  0  0  0  0  0  0  0  0
   -5.4829   37.6623  -13.6272 C   0  0  2  0  0  0  0  0  0  0  0  0
  -11.8557   34.5037  -18.7410 N   0  0  0  0  0  0  0  0  0  0  0  0
  -10.5989   34.2655  -18.2711 C   0  0  0  0  0  0  0  0  0  0  0  0
  -10.3881   33.4497  -17.1887 N   0  0  0  0  0  0  0  0  0  0  0  0
  -11.4642   32.8711  -16.5743 C   0  0  0  0  0  0  0  0  0  0  0  0
  -12.7068   33.1017  -17.0205 C   0  0  0  0  0  0  0  0  0  0  0  0
  -12.9115   33.9244  -18.1268 C   0  0  0  0  0  0  0  0  0  0  0  0
  -14.1610   34.2457  -18.6930 N   0  0  0  0  0  0  0  0  0  0  0  0
  -13.5622   32.4085  -16.2394 N   0  0  0  0  0  0  0  0  0  0  0  0
  -12.8291   31.7502  -15.2969 C   0  0  0  0  0  0  0  0  0  0  0  0
  -11.5348   32.0199  -15.5120 N   0  0  0  0  0  0  0  0  0  0  0  0
   -3.0545   35.0612  -17.4295 N   0  0  0  0  0  0  0  0  0  0  0  0
   -3.2090   34.6621  -16.1398 C   0  0  0  0  0  0  0  0  0  0  0  0
   -3.8703   35.4699  -15.2581 N   0  0  0  0  0  0  0  0  0  0  0  0
   -4.3760   36.6638  -15.6694 C   0  0  0  0  0  0  0  0  0  0  0  0
   -4.2305   37.0643  -16.9487 C   0  0  0  0  0  0  0  0  0  0  0  0
   -3.5521   36.2371  -17.8392 C   0  0  0  0  0  0  0  0  0  0  0  0
   -3.2657   36.4695  -19.2316 N   0  0  0  0  0  0  0  0  0  0  0  0
   -4.8243   38.2764  -17.0638 N   0  0  0  0  0  0  0  0  0  0  0  0
   -5.3409   38.6163  -15.8483 C   0  0  0  0  0  0  0  0  0  0  0  0
   -5.0611   37.6115  -14.9938 N   0  0  0  0  0  0  0  0  0  0  0  0
  1  3  1  1  0  0  0
  1  5  2  0  0  0  0
  1  9  1  0  0  0  0
  1 18  1  0  0  0  0
  2  4  1  6  0  0  0
  2  6  2  0  0  0  0
  2 10  1  0  0  0  0
  2 17  1  0  0  0  0
  7  9  1  0  0  0  0
  8 10  1  0  0  0  0
 11  7  1  6  0  0  0
 11 13  1  0  0  0  0
 11 15  1  0  0  0  0
 12  8  1  6  0  0  0
 12 14  1  0  0  0  0
 12 16  1  0  0  0  0
 13 23  1  0  0  0  0
 14 24  1  0  0  0  0
 15 17  1  1  0  0  0
 15 19  1  0  0  0  0
 16 18  1  1  0  0  0
 16 20  1  0  0  0  0
 19 21  1  1  0  0  0
 19 23  1  0  0  0  0
 20 22  1  1  0  0  0
 20 24  1  0  0  0  0
 23 34  1  6  0  0  0
 24 44  1  6  0  0  0
 25 26  2  0  0  0  0
 25 30  1  0  0  0  0
 26 27  1  0  0  0  0
 27 28  2  0  0  0  0
 28 29  1  0  0  0  0
 28 34  1  0  0  0  0
 29 30  2  0  0  0  0
 29 32  1  0  0  0  0
 30 31  1  0  0  0  0
 32 33  2  0  0  0  0
 33 34  1  0  0  0  0
 35 36  2  0  0  0  0
 35 40  1  0  0  0  0
 36 37  1  0  0  0  0
 37 38  2  0  0  0  0
 38 39  1  0  0  0  0
 38 44  1  0  0  0  0
 39 40  2  0  0  0  0
 39 42  1  0  0  0  0
 40 41  1  0  0  0  0
 42 43  2  0  0  0  0
 43 44  1  0  0  0  0
M  CHG  2   3  -1   4  -1
M  END
>  <CHROM.1>
104.09176789,-4.26379278,-8.00295683,34.61285959,-14.76405060,2.88400287
-0.41940720,-1.99407033

>  <Name>
ligand

>  <RI>
0

>  <Rbt.Current_Directory>
/home/itssahil/PROJECTS/Mol_Feturizer/New_Systems/rnas/4QLM

>  <Rbt.Executable>
rbdock ($Id: //depot/dev/client3/rdock/2013.1/src/exe/rbdock.cxx#4 $)

>  <Rbt.Library>
libRbt.so (2013.1, Build901 2013/11/27)

>  <Rbt.Parameter_File>
/export/apps/rDock/src/rDock_2013.1_src/data/scripts/dock_solv.prm

>  <Rbt.Receptor>
prm/pocket_docking_5.prm

>  <SCORE>
-10.695

>  <SCORE.INTER>
-10.1132

>  <SCORE.INTER.CONST>
1

>  <SCORE.INTER.POLAR>
0

>  <SCORE.INTER.ROT>
2

>  <SCORE.INTER.SOLV>
20.5864

>  <SCORE.INTER.VDW>
-18.5376

>  <SCORE.INTER.norm>
-0.229846

>  <SCORE.INTRA>
-0.58179

>  <SCORE.INTRA.DIHEDRAL>
0.00156321

>  <SCORE.INTRA.DIHEDRAL.0>
2.32994

>  <SCORE.INTRA.POLAR>
0

>  <SCORE.INTRA.POLAR.0>
0

>  <SCORE.INTRA.REPUL>
0

>  <SCORE.INTRA.REPUL.0>
0

>  <SCORE.INTRA.SOLV>
0.422444

>  <SCORE.INTRA.SOLV.lig_0>
-117.703

>  <SCORE.INTRA.VDW>
-0.793794

>  <SCORE.INTRA.VDW.0>
-1.59997

>  <SCORE.INTRA.norm>
-0.0132225

>  <SCORE.RESTR>
0

>  <SCORE.RESTR.CAVITY>
0

>  <SCORE.RESTR.norm>
0

>  <SCORE.SYSTEM>
0

>  <SCORE.SYSTEM.CONST>
0

>  <SCORE.SYSTEM.DIHEDRAL>
0

>  <SCORE.SYSTEM.SOLV>
0

>  <SCORE.SYSTEM.norm>
0

>  <SCORE.heavy>
44

>  <SCORE.norm>
-0.243069

>  <RMSD>
4.360

$$$$
ligand
 OpenBabel11021811513D
libRbt.so/2013.1/901 2013/11/27
 44 50  0  0  0  0  0  0  0  0999 V2000
   -7.1031   33.0771  -13.6397 P   0  0  2  0  0  0  0  0  0  0  0  0
  -10.8608   36.9581  -13.7917 P   0  0  1  0  0  0  0  0  0  0  0  0
   -6.0598   32.8766  -12.5435 O   0  5  0  0  0  0  0  0  0  0  0  0
  -10.8661   37.4366  -15.2231 O   0  5  0  0  0  0  0  0  0  0  0  0
   -6.5151   32.4750  -14.8932 O   0  0  0  0  0  0  0  0  0  0  0  0
  -12.1212   37.5352  -13.1080 O   0  0  0  0  0  0  0  0  0  0  0  0
   -7.1134   35.3414  -12.4933 C   0  0  0  0  0  0  0  0  0  0  0  0
  -10.5752   34.6856  -12.5989 C   0  0  0  0  0  0  0  0  0  0  0  0
   -7.3158   34.6235  -13.7181 O   0  0  0  0  0  0  0  0  0  0  0  0
  -10.7112   35.3238  -13.9000 O   0  0  0  0  0  0  0  0  0  0  0  0
   -7.3061   36.8366  -12.7229 C   0  0  1  0  0  0  0  0  0  0  0  0
  -10.5845   33.1334  -12.8671 C   0  0  1  0  0  0  0  0  0  0  0  0
   -6.1868   37.3262  -13.1585 O   0  0  0  0  0  0  0  0  0  0  0  0
  -11.6135   32.9249  -13.5824 O   0  0  0  0  0  0  0  0  0  0  0  0
   -8.3518   37.1494  -13.7683 C   0  0  1  0  0  0  0  0  0  0  0  0
   -9.4328   32.7293  -13.8091 C   0  0  1  0  0  0  0  0  0  0  0  0
   -9.4873   37.4774  -13.0965 O   0  0  0  0  0  0  0  0  0  0  0  0
   -8.4116   32.1934  -13.1295 O   0  0  0  0  0  0  0  0  0  0  0  0
   -7.7720   38.4070  -14.5047 C   0  0  1  0  0  0  0  0  0  0  0  0
  -10.0161   31.7231  -14.8271 C   0  0  1  0  0  0  0  0  0  0  0  0
   -8.4501   39.6399  -14.0214 O   0  0  0  0  0  0  0  0  0  0  0  0
   -9.6224   30.3232  -14.4657 O   0  0  0  0  0  0  0  0  0  0  0  0
   -6.5049   38.4395  -14.2416 C   0  0  2  0  0  0  0  0  0  0  0  0
  -11.2945   31.8517  -14.7262 C   0  0  2  0  0  0  0  0  0  0  0  0
   -5.5320   36.2353  -19.0391 N   0  0  0  0  0  0  0  0  0  0  0  0
   -6.6496   36.0364  -18.2851 C   0  0  0  0  0  0  0  0  0  0  0  0
   -6.8036   36.6498  -17.0679 N   0  0  0  0  0  0  0  0  0  0  0  0
   -5.8119   37.4722  -16.6090 C   0  0  0  0  0  0  0  0  0  0  0  0
   -4.7038   37.6719  -17.3360 C   0  0  0  0  0  0  0  0  0  0  0  0
   -4.5594   37.0522  -18.5761 C   0  0  0  0  0  0  0  0  0  0  0  0
   -3.4494   37.1786  -19.4344 N   0  0  0  0  0  0  0  0  0  0  0  0
   -3.9078   38.5209  -16.6520 N   0  0  0  0  0  0  0  0  0  0  0  0
   -4.5382   38.8381  -15.4853 C   0  0  0  0  0  0  0  0  0  0  0  0
   -5.7193   38.2068  -15.4646 N   0  0  0  0  0  0  0  0  0  0  0  0
  -11.5810   35.4252  -18.5036 N   0  0  0  0  0  0  0  0  0  0  0  0
  -10.7541   35.4443  -17.4256 C   0  0  0  0  0  0  0  0  0  0  0  0
  -10.8083   34.4265  -16.5154 N   0  0  0  0  0  0  0  0  0  0  0  0
  -11.6805   33.3972  -16.6897 C   0  0  0  0  0  0  0  0  0  0  0  0
  -12.5009   33.3693  -17.7594 C   0  0  0  0  0  0  0  0  0  0  0  0
  -12.4418   34.4120  -18.6795 C   0  0  0  0  0  0  0  0  0  0  0  0
  -13.2292   34.5957  -19.8717 N   0  0  0  0  0  0  0  0  0  0  0  0
  -13.2480   32.2430  -17.6676 N   0  0  0  0  0  0  0  0  0  0  0  0
  -12.8778   31.5756  -16.5374 C   0  0  0  0  0  0  0  0  0  0  0  0
  -11.9061   32.2958  -15.9415 N   0  0  0  0  0  0  0  0  0  0  0  0
  1  3  1  1  0  0  0
  1  5  2  0  0  0  0
  1  9  1  0  0  0  0
  1 18  1  0  0  0  0
  2  4  1  6  0  0  0
  2  6  2  0  0  0  0
  2 10  1  0  0  0  0
  2 17  1  0  0  0  0
  7  9  1  0  0  0  0
  8 10  1  0  0  0  0
 11  7  1  6  0  0  0
 11 13  1  0  0  0  0
 11 15  1  0  0  0  0
 12  8  1  6  0  0  0
 12 14  1  0  0  0  0
 12 16  1  0  0  0  0
 13 23  1  0  0  0  0
 14 24  1  0  0  0  0
 15 17  1  1  0  0  0
 15 19  1  0  0  0  0
 16 18  1  1  0  0  0
 16 20  1  0  0  0  0
 19 21  1  1  0  0  0
 19 23  1  0  0  0  0
 20 22  1  1  0  0  0
 20 24  1  0  0  0  0
 23 34  1  6  0  0  0
 24 44  1  6  0  0  0
 25 26  2  0  0  0  0
 25 30  1  0  0  0  0
 26 27  1  0  0  0  0
 27 28  2  0  0  0  0
 28 29  1  0  0  0  0
 28 34  1  0  0  0  0
 29 30  2  0  0  0  0
 29 32  1  0  0  0  0
 30 31  1  0  0  0  0
 32 33  2  0  0  0  0
 33 34  1  0  0  0  0
 35 36  2  0  0  0  0
 35 40  1  0  0  0  0
 36 37  1  0  0  0  0
 37 38  2  0  0  0  0
 38 39  1  0  0  0  0
 38 44  1  0  0  0  0
 39 40  2  0  0  0  0
 39 42  1  0  0  0  0
 40 41  1  0  0  0  0
 42 43  2  0  0  0  0
 43 44  1  0  0  0  0
M  CHG  2   3  -1   4  -1
M  END
>  <CHROM.1>
85.20731737,63.41138536,-8.81345140,35.23469773,-15.22463764,-0.25327450
0.60452522,1.93560665

>  <Name>
ligand

>  <RI>
0

>  <Rbt.Current_Directory>
/home/itssahil/PROJECTS/Mol_Feturizer/New_Systems/rnas/4QLM

>  <Rbt.Executable>
rbdock ($Id: //depot/dev/client3/rdock/2013.1/src/exe/rbdock.cxx#4 $)

>  <Rbt.Library>
libRbt.so (2013.1, Build901 2013/11/27)

>  <Rbt.Parameter_File>
/export/apps/rDock/src/rDock_2013.1_src/data/scripts/dock_solv.prm

>  <Rbt.Receptor>
prm/pocket_docking_6.prm

>  <SCORE>
-12.527

>  <SCORE.INTER>
-10.8958

>  <SCORE.INTER.CONST>
1

>  <SCORE.INTER.POLAR>
0

>  <SCORE.INTER.ROT>
2

>  <SCORE.INTER.SOLV>
21.0358

>  <SCORE.INTER.VDW>
-19.2092

>  <SCORE.INTER.norm>
-0.247633

>  <SCORE.INTRA>
-1.63113

>  <SCORE.INTRA.DIHEDRAL>
-0.0313583

>  <SCORE.INTRA.DIHEDRAL.0>
2.32994

>  <SCORE.INTRA.POLAR>
0

>  <SCORE.INTRA.POLAR.0>
0

>  <SCORE.INTRA.REPUL>
0

>  <SCORE.INTRA.REPUL.0>
0

>  <SCORE.INTRA.SOLV>
0.851107

>  <SCORE.INTRA.SOLV.lig_0>
-117.703

>  <SCORE.INTRA.VDW>
-2.041

>  <SCORE.INTRA.VDW.0>
-1.59997

>  <SCORE.INTRA.norm>
-0.037071

>  <SCORE.RESTR>
0

>  <SCORE.RESTR.CAVITY>
0

>  <SCORE.RESTR.norm>
0

>  <SCORE.SYSTEM>
0

>  <SCORE.SYSTEM.CONST>
0

>  <SCORE.SYSTEM.DIHEDRAL>
0

>  <SCORE.SYSTEM.SOLV>
0

>  <SCORE.SYSTEM.norm>
0

>  <SCORE.heavy>
44

>  <SCORE.norm>
-0.284704

>  <RMSD>
4.368

$$$$
ligand
 OpenBabel11021811513D
libRbt.so/2013.1/901 2013/11/27
 44 50  0  0  0  0  0  0  0  0999 V2000
   -9.5695   36.1359  -12.3202 P   0  0  2  0  0  0  0  0  0  0  0  0
   -6.1599   32.4673  -14.3504 P   0  0  1  0  0  0  0  0  0  0  0  0
  -10.4535   35.9588  -11.0882 O   0  5  0  0  0  0  0  0  0  0  0  0
   -6.3651   32.5324  -15.8443 O   0  5  0  0  0  0  0  0  0  0  0  0
  -10.2592   37.1619  -13.1869 O   0  0  0  0  0  0  0  0  0  0  0  0
   -4.8725   31.6505  -14.0969 O   0  0  0  0  0  0  0  0  0  0  0  0
   -9.5893   33.6120  -12.0544 C   0  0  0  0  0  0  0  0  0  0  0  0
   -6.1268   34.1696  -12.4089 C   0  0  0  0  0  0  0  0  0  0  0  0
   -9.4845   34.7148  -12.9650 O   0  0  0  0  0  0  0  0  0  0  0  0
   -6.1987   34.0356  -13.8565 O   0  0  0  0  0  0  0  0  0  0  0  0
   -9.5387   32.2932  -12.8184 C   0  0  1  0  0  0  0  0  0  0  0  0
   -6.0340   35.7143  -12.1141 C   0  0  1  0  0  0  0  0  0  0  0  0
  -10.7363   32.0218  -13.2360 O   0  0  0  0  0  0  0  0  0  0  0  0
   -5.0872   36.1374  -12.8480 O   0  0  0  0  0  0  0  0  0  0  0  0
   -8.6546   32.3473  -14.0430 C   0  0  1  0  0  0  0  0  0  0  0  0
   -7.2584   36.4591  -12.6826 C   0  0  1  0  0  0  0  0  0  0  0  0
   -7.4735   31.7705  -13.6957 O   0  0  0  0  0  0  0  0  0  0  0  0
   -8.1460   36.7435  -11.7219 O   0  0  0  0  0  0  0  0  0  0  0  0
   -9.4125   31.4520  -15.0843 C   0  0  1  0  0  0  0  0  0  0  0  0
   -6.7298   37.7469  -13.3544 C   0  0  1  0  0  0  0  0  0  0  0  0
   -8.7749   30.1103  -15.1646 O   0  0  0  0  0  0  0  0  0  0  0  0
   -6.9704   38.9349  -12.4734 O   0  0  0  0  0  0  0  0  0  0  0  0
  -10.6369   31.3614  -14.6739 C   0  0  2  0  0  0  0  0  0  0  0  0
   -5.4619   37.5567  -13.4858 C   0  0  2  0  0  0  0  0  0  0  0  0
  -11.8404   34.6134  -18.7724 N   0  0  0  0  0  0  0  0  0  0  0  0
  -10.5851   34.3350  -18.3209 C   0  0  0  0  0  0  0  0  0  0  0  0
  -10.3829   33.4859  -17.2628 N   0  0  0  0  0  0  0  0  0  0  0  0
  -11.4661   32.9147  -16.6539 C   0  0  0  0  0  0  0  0  0  0  0  0
  -12.7071   33.1845  -17.0821 C   0  0  0  0  0  0  0  0  0  0  0  0
  -12.9033   34.0410  -18.1640 C   0  0  0  0  0  0  0  0  0  0  0  0
  -14.1503   34.4048  -18.7095 N   0  0  0  0  0  0  0  0  0  0  0  0
  -13.5707   32.4894  -16.3118 N   0  0  0  0  0  0  0  0  0  0  0  0
  -12.8440   31.7900  -15.3942 C   0  0  0  0  0  0  0  0  0  0  0  0
  -11.5461   32.0370  -15.6142 N   0  0  0  0  0  0  0  0  0  0  0  0
   -3.2770   35.0014  -17.4629 N   0  0  0  0  0  0  0  0  0  0  0  0
   -3.4787   34.5300  -16.2045 C   0  0  0  0  0  0  0  0  0  0  0  0
   -4.0629   35.3354  -15.2678 N   0  0  0  0  0  0  0  0  0  0  0  0
   -4.4455   36.5995  -15.5937 C   0  0  0  0  0  0  0  0  0  0  0  0
   -4.2525   37.0724  -16.8417 C   0  0  0  0  0  0  0  0  0  0  0  0
   -3.6533   36.2467  -17.7884 C   0  0  0  0  0  0  0  0  0  0  0  0
   -3.3361   36.5469  -19.1611 N   0  0  0  0  0  0  0  0  0  0  0  0
   -4.7229   38.3424  -16.8707 N   0  0  0  0  0  0  0  0  0  0  0  0
   -5.2115   38.6456  -15.6341 C   0  0  0  0  0  0  0  0  0  0  0  0
   -5.0381   37.5605  -14.8527 N   0  0  0  0  0  0  0  0  0  0  0  0
  1  3  1  1  0  0  0
  1  5  2  0  0  0  0
  1  9  1  0  0  0  0
  1 18  1  0  0  0  0
  2  4  1  6  0  0  0
  2  6  2  0  0  0  0
  2 10  1  0  0  0  0
  2 17  1  0  0  0  0
  7  9  1  0  0  0  0
  8 10  1  0  0  0  0
 11  7  1  6  0  0  0
 11 13  1  0  0  0  0
 11 15  1  0  0  0  0
 12  8  1  6  0  0  0
 12 14  1  0  0  0  0
 12 16  1  0  0  0  0
 13 23  1  0  0  0  0
 14 24  1  0  0  0  0
 15 17  1  1  0  0  0
 15 19  1  0  0  0  0
 16 18  1  1  0  0  0
 16 20  1  0  0  0  0
 19 21  1  1  0  0  0
 19 23  1  0  0  0  0
 20 22  1  1  0  0  0
 20 24  1  0  0  0  0
 23 34  1  6  0  0  0
 24 44  1  6  0  0  0
 25 26  2  0  0  0  0
 25 30  1  0  0  0  0
 26 27  1  0  0  0  0
 27 28  2  0  0  0  0
 28 29  1  0  0  0  0
 28 34  1  0  0  0  0
 29 30  2  0  0  0  0
 29 32  1  0  0  0  0
 30 31  1  0  0  0  0
 32 33  2  0  0  0  0
 33 34  1  0  0  0  0
 35 36  2  0  0  0  0
 35 40  1  0  0  0  0
 36 37  1  0  0  0  0
 37 38  2  0  0  0  0
 38 39  1  0  0  0  0
 38 44  1  0  0  0  0
 39 40  2  0  0  0  0
 39 42  1  0  0  0  0
 40 41  1  0  0  0  0
 42 43  2  0  0  0  0
 43 44  1  0  0  0  0
M  CHG  2   3  -1   4  -1
M  END
>  <CHROM.1>
105.48262364,1.30049762,-8.01672518,34.56327090,-14.76116620,2.87804202,-0.41927002
-1.94500054

>  <Name>
ligand

>  <RI>
0

>  <Rbt.Current_Directory>
/home/itssahil/PROJECTS/Mol_Feturizer/New_Systems/rnas/4QLM

>  <Rbt.Executable>
rbdock ($Id: //depot/dev/client3/rdock/2013.1/src/exe/rbdock.cxx#4 $)

>  <Rbt.Library>
libRbt.so (2013.1, Build901 2013/11/27)

>  <Rbt.Parameter_File>
/export/apps/rDock/src/rDock_2013.1_src/data/scripts/dock_solv.prm

>  <Rbt.Receptor>
prm/pocket_docking_6.prm

>  <SCORE>
-10.6902

>  <SCORE.INTER>
-9.98303

>  <SCORE.INTER.CONST>
1

>  <SCORE.INTER.POLAR>
0

>  <SCORE.INTER.ROT>
2

>  <SCORE.INTER.SOLV>
20.926

>  <SCORE.INTER.VDW>
-18.564

>  <SCORE.INTER.norm>
-0.226887

>  <SCORE.INTRA>
-0.707167

>  <SCORE.INTRA.DIHEDRAL>
0.00420252

>  <SCORE.INTRA.DIHEDRAL.0>
2.32994

>  <SCORE.INTRA.POLAR>
0

>  <SCORE.INTRA.POLAR.0>
0

>  <SCORE.INTRA.REPUL>
0

>  <SCORE.INTRA.REPUL.0>
0

>  <SCORE.INTRA.SOLV>
0.763804

>  <SCORE.INTRA.SOLV.lig_0>
-117.703

>  <SCORE.INTRA.VDW>
-1.09117

>  <SCORE.INTRA.VDW.0>
-1.59997

>  <SCORE.INTRA.norm>
-0.016072

>  <SCORE.RESTR>
0

>  <SCORE.RESTR.CAVITY>
0

>  <SCORE.RESTR.norm>
0

>  <SCORE.SYSTEM>
0

>  <SCORE.SYSTEM.CONST>
0

>  <SCORE.SYSTEM.DIHEDRAL>
0

>  <SCORE.SYSTEM.SOLV>
0

>  <SCORE.SYSTEM.norm>
0

>  <SCORE.heavy>
44

>  <SCORE.norm>
-0.242959

>  <RMSD>
4.445

$$$$
ligand
 OpenBabel11021811513D
libRbt.so/2013.1/901 2013/11/27
 44 50  0  0  0  0  0  0  0  0999 V2000
   -9.5946   36.1300  -12.3455 P   0  0  2  0  0  0  0  0  0  0  0  0
   -6.1694   32.4683  -14.3619 P   0  0  1  0  0  0  0  0  0  0  0  0
  -10.4833   35.9510  -11.1172 O   0  5  0  0  0  0  0  0  0  0  0  0
   -6.3685   32.5331  -15.8566 O   0  5  0  0  0  0  0  0  0  0  0  0
  -10.2827   37.1547  -13.2149 O   0  0  0  0  0  0  0  0  0  0  0  0
   -4.8814   31.6540  -14.1032 O   0  0  0  0  0  0  0  0  0  0  0  0
   -9.6105   33.6060  -12.0800 C   0  0  0  0  0  0  0  0  0  0  0  0
   -6.1477   34.1705  -12.4201 C   0  0  0  0  0  0  0  0  0  0  0  0
   -9.5041   34.7091  -12.9901 O   0  0  0  0  0  0  0  0  0  0  0  0
   -6.2133   34.0364  -13.8680 O   0  0  0  0  0  0  0  0  0  0  0  0
   -9.5542   32.2874  -12.8439 C   0  0  1  0  0  0  0  0  0  0  0  0
   -6.0591   35.7153  -12.1248 C   0  0  1  0  0  0  0  0  0  0  0  0
  -10.7495   32.0137  -13.2666 O   0  0  0  0  0  0  0  0  0  0  0  0
   -5.1101   36.1403  -12.8547 O   0  0  0  0  0  0  0  0  0  0  0  0
   -8.6651   32.3433  -14.0649 C   0  0  1  0  0  0  0  0  0  0  0  0
   -7.2826   36.4577  -12.6983 C   0  0  1  0  0  0  0  0  0  0  0  0
   -7.4843   31.7688  -13.7128 O   0  0  0  0  0  0  0  0  0  0  0  0
   -8.1748   36.7403  -11.7412 O   0  0  0  0  0  0  0  0  0  0  0  0
   -9.4170   31.4467  -15.1094 C   0  0  1  0  0  0  0  0  0  0  0  0
   -6.7537   37.7467  -13.3677 C   0  0  1  0  0  0  0  0  0  0  0  0
   -8.7763   30.1062  -15.1872 O   0  0  0  0  0  0  0  0  0  0  0  0
   -7.0004   38.9341  -12.4876 O   0  0  0  0  0  0  0  0  0  0  0  0
  -10.6429   31.3537  -14.7041 C   0  0  2  0  0  0  0  0  0  0  0  0
   -5.4849   37.5589  -13.4939 C   0  0  2  0  0  0  0  0  0  0  0  0
  -11.8412   34.6464  -18.7715 N   0  0  0  0  0  0  0  0  0  0  0  0
  -10.5882   34.3831  -18.3048 C   0  0  0  0  0  0  0  0  0  0  0  0
  -10.3871   33.5216  -17.2566 N   0  0  0  0  0  0  0  0  0  0  0  0
  -11.4691   32.9224  -16.6732 C   0  0  0  0  0  0  0  0  0  0  0  0
  -12.7082   33.1770  -17.1163 C   0  0  0  0  0  0  0  0  0  0  0  0
  -12.9030   34.0463  -18.1882 C   0  0  0  0  0  0  0  0  0  0  0  0
  -14.1478   34.3966  -18.7474 N   0  0  0  0  0  0  0  0  0  0  0  0
  -13.5709   32.4552  -16.3700 N   0  0  0  0  0  0  0  0  0  0  0  0
  -12.8460   31.7547  -15.4519 C   0  0  0  0  0  0  0  0  0  0  0  0
  -11.5494   32.0276  -15.6481 N   0  0  0  0  0  0  0  0  0  0  0  0
   -3.2732   35.0104  -17.4604 N   0  0  0  0  0  0  0  0  0  0  0  0
   -3.4782   34.5389  -16.2027 C   0  0  0  0  0  0  0  0  0  0  0  0
   -4.0695   35.3424  -15.2689 N   0  0  0  0  0  0  0  0  0  0  0  0
   -4.4559   36.6047  -15.5971 C   0  0  0  0  0  0  0  0  0  0  0  0
   -4.2597   37.0778  -16.8444 C   0  0  0  0  0  0  0  0  0  0  0  0
   -3.6532   36.2540  -17.7882 C   0  0  0  0  0  0  0  0  0  0  0  0
   -3.3315   36.5547  -19.1598 N   0  0  0  0  0  0  0  0  0  0  0  0
   -4.7352   38.3458  -16.8761 N   0  0  0  0  0  0  0  0  0  0  0  0
   -5.2301   38.6477  -15.6417 C   0  0  0  0  0  0  0  0  0  0  0  0
   -5.0555   37.5637  -14.8590 N   0  0  0  0  0  0  0  0  0  0  0  0
  1  3  1  1  0  0  0
  1  5  2  0  0  0  0
  1  9  1  0  0  0  0
  1 18  1  0  0  0  0
  2  4  1  6  0  0  0
  2  6  2  0  0  0  0
  2 10  1  0  0  0  0
  2 17  1  0  0  0  0
  7  9  1  0  0  0  0
  8 10  1  0  0  0  0
 11  7  1  6  0  0  0
 11 13  1  0  0  0  0
 11 15  1  0  0  0  0
 12  8  1  6  0  0  0
 12 14  1  0  0  0  0
 12 16  1  0  0  0  0
 13 23  1  0  0  0  0
 14 24  1  0  0  0  0
 15 17  1  1  0  0  0
 15 19  1  0  0  0  0
 16 18  1  1  0  0  0
 16 20  1  0  0  0  0
 19 21  1  1  0  0  0
 19 23  1  0  0  0  0
 20 22  1  1  0  0  0
 20 24  1  0  0  0  0
 23 34  1  6  0  0  0
 24 44  1  6  0  0  0
 25 26  2  0  0  0  0
 25 30  1  0  0  0  0
 26 27  1  0  0  0  0
 27 28  2  0  0  0  0
 28 29  1  0  0  0  0
 28 34  1  0  0  0  0
 29 30  2  0  0  0  0
 29 32  1  0  0  0  0
 30 31  1  0  0  0  0
 32 33  2  0  0  0  0
 33 34  1  0  0  0  0
 35 36  2  0  0  0  0
 35 40  1  0  0  0  0
 36 37  1  0  0  0  0
 37 38  2  0  0  0  0
 38 39  1  0  0  0  0
 38 44  1  0  0  0  0
 39 40  2  0  0  0  0
 39 42  1  0  0  0  0
 40 41  1  0  0  0  0
 42 43  2  0  0  0  0
 43 44  1  0  0  0  0
M  CHG  2   3  -1   4  -1
M  END
>  <CHROM.1>
104.08542154,1.17395912,-8.02865506,34.56364977,-14.77755589,2.87425214,-0.41850300
-1.94960086

>  <Name>
ligand

>  <RI>
0

>  <Rbt.Current_Directory>
/home/itssahil/PROJECTS/Mol_Feturizer/New_Systems/rnas/4QLM

>  <Rbt.Executable>
rbdock ($Id: //depot/dev/client3/rdock/2013.1/src/exe/rbdock.cxx#4 $)

>  <Rbt.Library>
libRbt.so (2013.1, Build901 2013/11/27)

>  <Rbt.Parameter_File>
/export/apps/rDock/src/rDock_2013.1_src/data/scripts/dock_solv.prm

>  <Rbt.Receptor>
prm/pocket_docking_5.prm

>  <SCORE>
-10.6899

>  <SCORE.INTER>
-9.96863

>  <SCORE.INTER.CONST>
1

>  <SCORE.INTER.POLAR>
0

>  <SCORE.INTER.ROT>
2

>  <SCORE.INTER.SOLV>
20.892

>  <SCORE.INTER.VDW>
-18.5431

>  <SCORE.INTER.norm>
-0.22656

>  <SCORE.INTRA>
-0.721277

>  <SCORE.INTRA.DIHEDRAL>
-0.00153328

>  <SCORE.INTRA.DIHEDRAL.0>
2.32994

>  <SCORE.INTRA.POLAR>
0

>  <SCORE.INTRA.POLAR.0>
0

>  <SCORE.INTRA.REPUL>
0

>  <SCORE.INTRA.REPUL.0>
0

>  <SCORE.INTRA.SOLV>
0.756496

>  <SCORE.INTRA.SOLV.lig_0>
-117.703

>  <SCORE.INTRA.VDW>
-1.09876

>  <SCORE.INTRA.VDW.0>
-1.59997

>  <SCORE.INTRA.norm>
-0.0163927

>  <SCORE.RESTR>
0

>  <SCORE.RESTR.CAVITY>
0

>  <SCORE.RESTR.norm>
0

>  <SCORE.SYSTEM>
0

>  <SCORE.SYSTEM.CONST>
0

>  <SCORE.SYSTEM.DIHEDRAL>
0

>  <SCORE.SYSTEM.SOLV>
0

>  <SCORE.SYSTEM.norm>
0

>  <SCORE.heavy>
44

>  <SCORE.norm>
-0.242952

>  <RMSD>
4.447

$$$$
ligand
 OpenBabel11021811513D
libRbt.so/2013.1/901 2013/11/27
 44 50  0  0  0  0  0  0  0  0999 V2000
   -8.1595   36.3083  -16.7098 P   0  0  2  0  0  0  0  0  0  0  0  0
   -8.4487   38.5324  -11.7929 P   0  0  1  0  0  0  0  0  0  0  0  0
   -9.2019   36.4350  -17.8179 O   0  5  0  0  0  0  0  0  0  0  0  0
   -7.9795   37.4511  -10.8502 O   0  5  0  0  0  0  0  0  0  0  0  0
   -7.4308   35.0110  -16.9660 O   0  0  0  0  0  0  0  0  0  0  0  0
   -8.4813   39.8565  -10.9962 O   0  0  0  0  0  0  0  0  0  0  0  0
  -10.2054   37.0663  -15.4133 C   0  0  0  0  0  0  0  0  0  0  0  0
   -7.8083   39.3289  -14.1644 C   0  0  0  0  0  0  0  0  0  0  0  0
   -8.9793   36.3235  -15.3792 O   0  0  0  0  0  0  0  0  0  0  0  0
   -7.4377   38.4247  -13.0857 O   0  0  0  0  0  0  0  0  0  0  0  0
  -10.9227   36.9580  -14.0719 C   0  0  1  0  0  0  0  0  0  0  0  0
   -6.6749   39.2048  -15.2514 C   0  0  1  0  0  0  0  0  0  0  0  0
  -11.6211   35.8650  -14.0741 O   0  0  0  0  0  0  0  0  0  0  0  0
   -5.5861   39.3697  -14.6181 O   0  0  0  0  0  0  0  0  0  0  0  0
   -9.9774   36.8657  -12.8962 C   0  0  1  0  0  0  0  0  0  0  0  0
   -6.5527   37.7537  -15.7579 C   0  0  1  0  0  0  0  0  0  0  0  0
   -9.9153   38.1086  -12.3487 O   0  0  0  0  0  0  0  0  0  0  0  0
   -7.1461   37.6005  -16.9480 O   0  0  0  0  0  0  0  0  0  0  0  0
  -10.7012   35.8755  -11.9185 C   0  0  1  0  0  0  0  0  0  0  0  0
   -5.0431   37.4316  -15.8404 C   0  0  1  0  0  0  0  0  0  0  0  0
  -11.3655   36.6327  -10.8236 O   0  0  0  0  0  0  0  0  0  0  0  0
   -4.5690   37.4994  -17.2602 O   0  0  0  0  0  0  0  0  0  0  0  0
  -11.5677   35.2234  -12.6254 C   0  0  2  0  0  0  0  0  0  0  0  0
   -4.4682   38.3546  -15.1486 C   0  0  2  0  0  0  0  0  0  0  0  0
   -8.1838   31.0635  -12.3677 N   0  0  0  0  0  0  0  0  0  0  0  0
   -7.8644   32.3645  -12.1174 C   0  0  0  0  0  0  0  0  0  0  0  0
   -8.8061   33.3575  -12.2097 N   0  0  0  0  0  0  0  0  0  0  0  0
  -10.0857   33.0278  -12.5623 C   0  0  0  0  0  0  0  0  0  0  0  0
  -10.4133   31.7537  -12.8185 C   0  0  0  0  0  0  0  0  0  0  0  0
   -9.4525   30.7495  -12.7132 C   0  0  0  0  0  0  0  0  0  0  0  0
   -9.6664   29.3779  -12.9542 N   0  0  0  0  0  0  0  0  0  0  0  0
  -11.7256   31.7192  -13.1331 N   0  0  0  0  0  0  0  0  0  0  0  0
  -12.2040   32.9947  -13.0747 C   0  0  0  0  0  0  0  0  0  0  0  0
  -11.1994   33.8004  -12.7063 N   0  0  0  0  0  0  0  0  0  0  0  0
   -0.9395   35.0179  -13.2684 N   0  0  0  0  0  0  0  0  0  0  0  0
   -1.3342   35.1421  -14.5627 C   0  0  0  0  0  0  0  0  0  0  0  0
   -2.2830   36.0684  -14.8928 N   0  0  0  0  0  0  0  0  0  0  0  0
   -2.8254   36.8657  -13.9333 C   0  0  0  0  0  0  0  0  0  0  0  0
   -2.4352   36.7512  -12.6477 C   0  0  0  0  0  0  0  0  0  0  0  0
   -1.4712   35.8024  -12.3196 C   0  0  0  0  0  0  0  0  0  0  0  0
   -0.9250   35.4970  -11.0220 N   0  0  0  0  0  0  0  0  0  0  0  0
   -3.1383   37.6587  -11.9286 N   0  0  0  0  0  0  0  0  0  0  0  0
   -3.9594   38.3359  -12.7812 C   0  0  0  0  0  0  0  0  0  0  0  0
   -3.7563   37.8403  -14.0187 N   0  0  0  0  0  0  0  0  0  0  0  0
  1  3  1  6  0  0  0
  1  5  2  0  0  0  0
  1  9  1  0  0  0  0
  1 18  1  0  0  0  0
  2  4  1  1  0  0  0
  2  6  2  0  0  0  0
  2 10  1  0  0  0  0
  2 17  1  0  0  0  0
  7  9  1  0  0  0  0
  8 10  1  0  0  0  0
 11  7  1  6  0  0  0
 11 13  1  0  0  0  0
 11 15  1  0  0  0  0
 12  8  1  1  0  0  0
 12 14  1  0  0  0  0
 12 16  1  0  0  0  0
 13 23  1  0  0  0  0
 14 24  1  0  0  0  0
 15 17  1  1  0  0  0
 15 19  1  0  0  0  0
 16 18  1  6  0  0  0
 16 20  1  0  0  0  0
 19 21  1  1  0  0  0
 19 23  1  0  0  0  0
 20 22  1  6  0  0  0
 20 24  1  0  0  0  0
 23 34  1  6  0  0  0
 24 44  1  1  0  0  0
 25 26  2  0  0  0  0
 25 30  1  0  0  0  0
 26 27  1  0  0  0  0
 27 28  2  0  0  0  0
 28 29  1  0  0  0  0
 28 34  1  0  0  0  0
 29 30  2  0  0  0  0
 29 32  1  0  0  0  0
 30 31  1  0  0  0  0
 32 33  2  0  0  0  0
 33 34  1  0  0  0  0
 35 36  2  0  0  0  0
 35 40  1  0  0  0  0
 36 37  1  0  0  0  0
 37 38  2  0  0  0  0
 38 39  1  0  0  0  0
 38 44  1  0  0  0  0
 39 40  2  0  0  0  0
 39 42  1  0  0  0  0
 40 41  1  0  0  0  0
 42 43  2  0  0  0  0
 43 44  1  0  0  0  0
M  CHG  2   3  -1   4  -1
M  END
>  <CHROM.1>
98.54662024,172.51554351,-7.44962731,36.13227789,-13.72342264,2.71143644
-0.00942761,2.87161287

>  <Name>
ligand

>  <RI>
0

>  <Rbt.Current_Directory>
/home/itssahil/PROJECTS/Mol_Feturizer/New_Systems/rnas/4QLM

>  <Rbt.Executable>
rbdock ($Id: //depot/dev/client3/rdock/2013.1/src/exe/rbdock.cxx#4 $)

>  <Rbt.Library>
libRbt.so (2013.1, Build901 2013/11/27)

>  <Rbt.Parameter_File>
/export/apps/rDock/src/rDock_2013.1_src/data/scripts/dock_solv.prm

>  <Rbt.Receptor>
prm/pocket_docking_5.prm

>  <SCORE>
-9.26714

>  <SCORE.INTER>
-9.74335

>  <SCORE.INTER.CONST>
1

>  <SCORE.INTER.POLAR>
0

>  <SCORE.INTER.ROT>
2

>  <SCORE.INTER.SOLV>
17.7417

>  <SCORE.INTER.VDW>
-17.3428

>  <SCORE.INTER.norm>
-0.22144

>  <SCORE.INTRA>
-0.0692271

>  <SCORE.INTRA.DIHEDRAL>
-0.0242176

>  <SCORE.INTRA.DIHEDRAL.0>
2.32994

>  <SCORE.INTRA.POLAR>
0

>  <SCORE.INTRA.POLAR.0>
0

>  <SCORE.INTRA.REPUL>
0

>  <SCORE.INTRA.REPUL.0>
0

>  <SCORE.INTRA.SOLV>
0.0652579

>  <SCORE.INTRA.SOLV.lig_0>
-117.703

>  <SCORE.INTRA.VDW>
-0.0897473

>  <SCORE.INTRA.VDW.0>
-1.59997

>  <SCORE.INTRA.norm>
-0.00157334

>  <SCORE.RESTR>
0.545439

>  <SCORE.RESTR.CAVITY>
0.545439

>  <SCORE.RESTR.norm>
0.0123963

>  <SCORE.SYSTEM>
0

>  <SCORE.SYSTEM.CONST>
0

>  <SCORE.SYSTEM.DIHEDRAL>
0

>  <SCORE.SYSTEM.SOLV>
0

>  <SCORE.SYSTEM.norm>
0

>  <SCORE.heavy>
44

>  <SCORE.norm>
-0.210617

>  <RMSD>
4.483

$$$$
ligand
 OpenBabel11021811513D
libRbt.so/2013.1/901 2013/11/27
 44 50  0  0  0  0  0  0  0  0999 V2000
  -10.2102   36.8551  -12.8453 P   0  0  2  0  0  0  0  0  0  0  0  0
   -6.2897   33.2798  -13.8712 P   0  0  1  0  0  0  0  0  0  0  0  0
  -11.2868   36.7269  -11.7706 O   0  5  0  0  0  0  0  0  0  0  0  0
   -6.2302   33.1912  -15.3768 O   0  5  0  0  0  0  0  0  0  0  0  0
  -10.7931   37.7423  -13.9189 O   0  0  0  0  0  0  0  0  0  0  0  0
   -5.0228   32.5883  -13.3183 O   0  0  0  0  0  0  0  0  0  0  0  0
  -10.1317   34.3721  -12.3259 C   0  0  0  0  0  0  0  0  0  0  0  0
   -6.6991   35.1517  -12.1402 C   0  0  0  0  0  0  0  0  0  0  0  0
   -9.9307   35.3909  -13.3149 O   0  0  0  0  0  0  0  0  0  0  0  0
   -6.5054   34.8796  -13.5569 O   0  0  0  0  0  0  0  0  0  0  0  0
   -9.8708   32.9959  -12.9288 C   0  0  1  0  0  0  0  0  0  0  0  0
   -6.7489   36.7196  -11.9961 C   0  0  1  0  0  0  0  0  0  0  0  0
  -10.9579   32.5984  -13.5143 O   0  0  0  0  0  0  0  0  0  0  0  0
   -5.7129   37.1427  -12.5975 O   0  0  0  0  0  0  0  0  0  0  0  0
   -8.7883   33.0026  -13.9835 C   0  0  1  0  0  0  0  0  0  0  0  0
   -7.8938   37.3152  -12.8395 C   0  0  1  0  0  0  0  0  0  0  0  0
   -7.6563   32.5502  -13.3816 O   0  0  0  0  0  0  0  0  0  0  0  0
   -8.9526   37.6200  -12.0792 O   0  0  0  0  0  0  0  0  0  0  0  0
   -9.2970   31.9610  -15.0401 C   0  0  1  0  0  0  0  0  0  0  0  0
   -7.3294   38.5714  -13.5413 C   0  0  1  0  0  0  0  0  0  0  0  0
   -8.5792   30.6689  -14.8704 O   0  0  0  0  0  0  0  0  0  0  0  0
   -7.7902   39.8143  -12.8427 O   0  0  0  0  0  0  0  0  0  0  0  0
  -10.5674   31.8174  -14.8376 C   0  0  2  0  0  0  0  0  0  0  0  0
   -6.0495   38.4651  -13.4339 C   0  0  2  0  0  0  0  0  0  0  0  0
  -11.7625   35.3894  -18.6630 N   0  0  0  0  0  0  0  0  0  0  0  0
  -10.7388   35.4943  -17.7695 C   0  0  0  0  0  0  0  0  0  0  0  0
  -10.5156   34.5224  -16.8277 N   0  0  0  0  0  0  0  0  0  0  0  0
  -11.3415   33.4330  -16.7898 C   0  0  0  0  0  0  0  0  0  0  0  0
  -12.3569   33.3193  -17.6573 C   0  0  0  0  0  0  0  0  0  0  0  0
  -12.5709   34.3069  -18.6172 C   0  0  0  0  0  0  0  0  0  0  0  0
  -13.5973   34.3071  -19.5824 N   0  0  0  0  0  0  0  0  0  0  0  0
  -12.9952   32.1586  -17.3972 N   0  0  0  0  0  0  0  0  0  0  0  0
  -12.3626   31.5584  -16.3489 C   0  0  0  0  0  0  0  0  0  0  0  0
  -11.3328   32.3335  -15.9843 N   0  0  0  0  0  0  0  0  0  0  0  0
   -6.0338   36.6274  -18.3066 N   0  0  0  0  0  0  0  0  0  0  0  0
   -6.9815   36.4101  -17.3573 C   0  0  0  0  0  0  0  0  0  0  0  0
   -6.8325   36.9621  -16.1162 N   0  0  0  0  0  0  0  0  0  0  0  0
   -5.7452   37.7293  -15.8336 C   0  0  0  0  0  0  0  0  0  0  0  0
   -4.8031   37.9530  -16.7720 C   0  0  0  0  0  0  0  0  0  0  0  0
   -4.9609   37.3836  -18.0323 C   0  0  0  0  0  0  0  0  0  0  0  0
   -4.0797   37.4728  -19.1683 N   0  0  0  0  0  0  0  0  0  0  0  0
   -3.8517   38.7377  -16.2117 N   0  0  0  0  0  0  0  0  0  0  0  0
   -4.2175   38.9998  -14.9243 C   0  0  0  0  0  0  0  0  0  0  0  0
   -5.3910   38.3744  -14.7013 N   0  0  0  0  0  0  0  0  0  0  0  0
  1  3  1  1  0  0  0
  1  5  2  0  0  0  0
  1  9  1  0  0  0  0
  1 18  1  0  0  0  0
  2  4  1  6  0  0  0
  2  6  2  0  0  0  0
  2 10  1  0  0  0  0
  2 17  1  0  0  0  0
  7  9  1  0  0  0  0
  8 10  1  0  0  0  0
 11  7  1  6  0  0  0
 11 13  1  0  0  0  0
 11 15  1  0  0  0  0
 12  8  1  6  0  0  0
 12 14  1  0  0  0  0
 12 16  1  0  0  0  0
 13 23  1  0  0  0  0
 14 24  1  0  0  0  0
 15 17  1  1  0  0  0
 15 19  1  0  0  0  0
 16 18  1  1  0  0  0
 16 20  1  0  0  0  0
 19 21  1  1  0  0  0
 19 23  1  0  0  0  0
 20 22  1  1  0  0  0
 20 24  1  0  0  0  0
 23 34  1  6  0  0  0
 24 44  1  6  0  0  0
 25 26  2  0  0  0  0
 25 30  1  0  0  0  0
 26 27  1  0  0  0  0
 27 28  2  0  0  0  0
 28 29  1  0  0  0  0
 28 34  1  0  0  0  0
 29 30  2  0  0  0  0
 29 32  1  0  0  0  0
 30 31  1  0  0  0  0
 32 33  2  0  0  0  0
 33 34  1  0  0  0  0
 35 36  2  0  0  0  0
 35 40  1  0  0  0  0
 36 37  1  0  0  0  0
 37 38  2  0  0  0  0
 38 39  1  0  0  0  0
 38 44  1  0  0  0  0
 39 40  2  0  0  0  0
 39 42  1  0  0  0  0
 40 41  1  0  0  0  0
 42 43  2  0  0  0  0
 43 44  1  0  0  0  0
M  CHG  2   3  -1   4  -1
M  END
>  <CHROM.1>
74.50758375,81.54297877,-8.42935257,35.30746935,-14.88236540,0.12269680,0.69021937
1.70809527

>  <Name>
ligand

>  <RI>
0

>  <Rbt.Current_Directory>
/home/itssahil/PROJECTS/Mol_Feturizer/New_Systems/rnas/4QLM

>  <Rbt.Executable>
rbdock ($Id: //depot/dev/client3/rdock/2013.1/src/exe/rbdock.cxx#4 $)

>  <Rbt.Library>
libRbt.so (2013.1, Build901 2013/11/27)

>  <Rbt.Parameter_File>
/export/apps/rDock/src/rDock_2013.1_src/data/scripts/dock_solv.prm

>  <Rbt.Receptor>
prm/pocket_docking_5.prm

>  <SCORE>
-10.8221

>  <SCORE.INTER>
-9.21467

>  <SCORE.INTER.CONST>
1

>  <SCORE.INTER.POLAR>
0

>  <SCORE.INTER.ROT>
2

>  <SCORE.INTER.SOLV>
18.5427

>  <SCORE.INTER.VDW>
-17.2573

>  <SCORE.INTER.norm>
-0.209424

>  <SCORE.INTRA>
-1.60747

>  <SCORE.INTRA.DIHEDRAL>
0.00142637

>  <SCORE.INTRA.DIHEDRAL.0>
2.32994

>  <SCORE.INTRA.POLAR>
0

>  <SCORE.INTRA.POLAR.0>
0

>  <SCORE.INTRA.REPUL>
0

>  <SCORE.INTRA.REPUL.0>
0

>  <SCORE.INTRA.SOLV>
0.152785

>  <SCORE.INTRA.SOLV.lig_0>
-117.703

>  <SCORE.INTRA.VDW>
-1.68457

>  <SCORE.INTRA.VDW.0>
-1.59997

>  <SCORE.INTRA.norm>
-0.0365334

>  <SCORE.RESTR>
0

>  <SCORE.RESTR.CAVITY>
0

>  <SCORE.RESTR.norm>
0

>  <SCORE.SYSTEM>
0

>  <SCORE.SYSTEM.CONST>
0

>  <SCORE.SYSTEM.DIHEDRAL>
0

>  <SCORE.SYSTEM.SOLV>
0

>  <SCORE.SYSTEM.norm>
0

>  <SCORE.heavy>
44

>  <SCORE.norm>
-0.245958

>  <RMSD>
4.625

$$$$
ligand
 OpenBabel11021811513D
libRbt.so/2013.1/901 2013/11/27
 44 50  0  0  0  0  0  0  0  0999 V2000
   -9.1272   36.3987  -12.4402 P   0  0  2  0  0  0  0  0  0  0  0  0
   -5.9592   32.5071  -14.4465 P   0  0  1  0  0  0  0  0  0  0  0  0
  -10.0947   36.2569  -11.2680 O   0  5  0  0  0  0  0  0  0  0  0  0
   -6.0691   32.6519  -15.9448 O   0  5  0  0  0  0  0  0  0  0  0  0
   -9.6663   37.5200  -13.2955 O   0  0  0  0  0  0  0  0  0  0  0  0
   -4.7703   31.5617  -14.1605 O   0  0  0  0  0  0  0  0  0  0  0  0
   -9.3967   33.8795  -12.2919 C   0  0  0  0  0  0  0  0  0  0  0  0
   -5.8826   34.1185  -12.4301 C   0  0  0  0  0  0  0  0  0  0  0  0
   -9.1365   35.0032  -13.1438 O   0  0  0  0  0  0  0  0  0  0  0  0
   -5.8812   34.0506  -13.8840 O   0  0  0  0  0  0  0  0  0  0  0  0
   -9.4239   32.5939  -13.1116 C   0  0  1  0  0  0  0  0  0  0  0  0
   -5.6643   35.6341  -12.0601 C   0  0  1  0  0  0  0  0  0  0  0  0
  -10.6148   32.4550  -13.6063 O   0  0  0  0  0  0  0  0  0  0  0  0
   -4.6408   35.9944  -12.7208 O   0  0  0  0  0  0  0  0  0  0  0  0
   -8.4680   32.6130  -14.2822 C   0  0  1  0  0  0  0  0  0  0  0  0
   -6.7787   36.5146  -12.6602 C   0  0  1  0  0  0  0  0  0  0  0  0
   -7.3680   31.9127  -13.8975 O   0  0  0  0  0  0  0  0  0  0  0  0
   -7.6911   36.8432  -11.7375 O   0  0  0  0  0  0  0  0  0  0  0  0
   -9.2431   31.8370  -15.4034 C   0  0  1  0  0  0  0  0  0  0  0  0
   -6.0941   37.7724  -13.2421 C   0  0  1  0  0  0  0  0  0  0  0  0
   -8.7291   30.4449  -15.5100 O   0  0  0  0  0  0  0  0  0  0  0  0
   -6.2749   38.9412  -12.3222 O   0  0  0  0  0  0  0  0  0  0  0  0
  -10.4926   31.8469  -15.0654 C   0  0  2  0  0  0  0  0  0  0  0  0
   -4.8438   37.4676  -13.3125 C   0  0  2  0  0  0  0  0  0  0  0  0
  -11.5912   36.2039  -18.0033 N   0  0  0  0  0  0  0  0  0  0  0  0
  -10.5074   36.0445  -17.1928 C   0  0  0  0  0  0  0  0  0  0  0  0
  -10.3161   34.8871  -16.4819 N   0  0  0  0  0  0  0  0  0  0  0  0
  -11.2358   33.8810  -16.5921 C   0  0  0  0  0  0  0  0  0  0  0  0
  -12.3106   34.0258  -17.3797 C   0  0  0  0  0  0  0  0  0  0  0  0
  -12.4925   35.2015  -18.1059 C   0  0  0  0  0  0  0  0  0  0  0  0
  -13.5739   35.4783  -18.9656 N   0  0  0  0  0  0  0  0  0  0  0  0
  -13.0364   32.8902  -17.3021 N   0  0  0  0  0  0  0  0  0  0  0  0
  -12.3968   32.0420  -16.4473 C   0  0  0  0  0  0  0  0  0  0  0  0
  -11.2782   32.6436  -16.0221 N   0  0  0  0  0  0  0  0  0  0  0  0
   -3.0131   34.8170  -17.4042 N   0  0  0  0  0  0  0  0  0  0  0  0
   -3.3934   34.3032  -16.2052 C   0  0  0  0  0  0  0  0  0  0  0  0
   -3.8482   35.1407  -15.2259 N   0  0  0  0  0  0  0  0  0  0  0  0
   -3.9252   36.4801  -15.4511 C   0  0  0  0  0  0  0  0  0  0  0  0
   -3.5538   36.9964  -16.6400 C   0  0  0  0  0  0  0  0  0  0  0  0
   -3.0882   36.1366  -17.6305 C   0  0  0  0  0  0  0  0  0  0  0  0
   -2.6251   36.4675  -18.9538 N   0  0  0  0  0  0  0  0  0  0  0  0
   -3.7344   38.3373  -16.5734 N   0  0  0  0  0  0  0  0  0  0  0  0
   -4.2245   38.6417  -15.3377 C   0  0  0  0  0  0  0  0  0  0  0  0
   -4.3417   37.4863  -14.6525 N   0  0  0  0  0  0  0  0  0  0  0  0
  1  3  1  1  0  0  0
  1  5  2  0  0  0  0
  1  9  1  0  0  0  0
  1 18  1  0  0  0  0
  2  4  1  6  0  0  0
  2  6  2  0  0  0  0
  2 10  1  0  0  0  0
  2 17  1  0  0  0  0
  7  9  1  0  0  0  0
  8 10  1  0  0  0  0
 11  7  1  6  0  0  0
 11 13  1  0  0  0  0
 11 15  1  0  0  0  0
 12  8  1  6  0  0  0
 12 14  1  0  0  0  0
 12 16  1  0  0  0  0
 13 23  1  0  0  0  0
 14 24  1  0  0  0  0
 15 17  1  1  0  0  0
 15 19  1  0  0  0  0
 16 18  1  1  0  0  0
 16 20  1  0  0  0  0
 19 21  1  1  0  0  0
 19 23  1  0  0  0  0
 20 22  1  1  0  0  0
 20 24  1  0  0  0  0
 23 34  1  6  0  0  0
 24 44  1  6  0  0  0
 25 26  2  0  0  0  0
 25 30  1  0  0  0  0
 26 27  1  0  0  0  0
 27 28  2  0  0  0  0
 28 29  1  0  0  0  0
 28 34  1  0  0  0  0
 29 30  2  0  0  0  0
 29 32  1  0  0  0  0
 30 31  1  0  0  0  0
 32 33  2  0  0  0  0
 33 34  1  0  0  0  0
 35 36  2  0  0  0  0
 35 40  1  0  0  0  0
 36 37  1  0  0  0  0
 37 38  2  0  0  0  0
 38 39  1  0  0  0  0
 38 44  1  0  0  0  0
 39 40  2  0  0  0  0
 39 42  1  0  0  0  0
 40 41  1  0  0  0  0
 42 43  2  0  0  0  0
 43 44  1  0  0  0  0
M  CHG  2   3  -1   4  -1
M  END
>  <CHROM.1>
69.16072706,9.01717713,-7.64436863,34.83567915,-14.79928195,2.80918714,-0.21770555
-2.20644295

>  <Name>
ligand

>  <RI>
0

>  <Rbt.Current_Directory>
/home/itssahil/PROJECTS/Mol_Feturizer/New_Systems/rnas/4QLM

>  <Rbt.Executable>
rbdock ($Id: //depot/dev/client3/rdock/2013.1/src/exe/rbdock.cxx#4 $)

>  <Rbt.Library>
libRbt.so (2013.1, Build901 2013/11/27)

>  <Rbt.Parameter_File>
/export/apps/rDock/src/rDock_2013.1_src/data/scripts/dock_solv.prm

>  <Rbt.Receptor>
prm/pocket_docking_4.prm

>  <SCORE>
-9.52926

>  <SCORE.INTER>
-8.28311

>  <SCORE.INTER.CONST>
1

>  <SCORE.INTER.POLAR>
0

>  <SCORE.INTER.ROT>
2

>  <SCORE.INTER.SOLV>
21.8639

>  <SCORE.INTER.VDW>
-17.7434

>  <SCORE.INTER.norm>
-0.188253

>  <SCORE.INTRA>
-1.24614

>  <SCORE.INTRA.DIHEDRAL>
0.0090003

>  <SCORE.INTRA.DIHEDRAL.0>
2.32994

>  <SCORE.INTRA.POLAR>
0

>  <SCORE.INTRA.POLAR.0>
0

>  <SCORE.INTRA.REPUL>
0

>  <SCORE.INTRA.REPUL.0>
0

>  <SCORE.INTRA.SOLV>
1.16337

>  <SCORE.INTRA.SOLV.lig_0>
-117.703

>  <SCORE.INTRA.VDW>
-1.83233

>  <SCORE.INTRA.VDW.0>
-1.59997

>  <SCORE.INTRA.norm>
-0.0283215

>  <SCORE.RESTR>
0

>  <SCORE.RESTR.CAVITY>
0

>  <SCORE.RESTR.norm>
0

>  <SCORE.SYSTEM>
0

>  <SCORE.SYSTEM.CONST>
0

>  <SCORE.SYSTEM.DIHEDRAL>
0

>  <SCORE.SYSTEM.SOLV>
0

>  <SCORE.SYSTEM.norm>
0

>  <SCORE.heavy>
44

>  <SCORE.norm>
-0.216574

>  <RMSD>
4.626

$$$$
ligand
 OpenBabel11021811513D
libRbt.so/2013.1/901 2013/11/27
 44 50  0  0  0  0  0  0  0  0999 V2000
   -7.7346   38.4769  -11.5842 P   0  0  2  0  0  0  0  0  0  0  0  0
   -8.5207   36.3361  -16.4837 P   0  0  1  0  0  0  0  0  0  0  0  0
   -7.4088   39.9373  -11.2816 O   0  5  0  0  0  0  0  0  0  0  0  0
   -7.7804   35.0212  -16.4554 O   0  5  0  0  0  0  0  0  0  0  0  0
   -7.1724   37.6752  -10.4351 O   0  0  0  0  0  0  0  0  0  0  0  0
   -9.4218   36.3310  -17.7395 O   0  0  0  0  0  0  0  0  0  0  0  0
   -6.9267   39.3070  -13.8425 C   0  0  0  0  0  0  0  0  0  0  0  0
   -9.9192   37.7115  -14.8042 C   0  0  0  0  0  0  0  0  0  0  0  0
   -7.0477   38.1852  -12.9575 O   0  0  0  0  0  0  0  0  0  0  0  0
   -9.2395   36.4407  -15.0082 O   0  0  0  0  0  0  0  0  0  0  0  0
   -6.1999   38.8939  -15.1179 C   0  0  1  0  0  0  0  0  0  0  0  0
  -10.6626   37.5957  -13.4202 C   0  0  1  0  0  0  0  0  0  0  0  0
   -4.9238   38.9691  -14.8983 O   0  0  0  0  0  0  0  0  0  0  0  0
  -11.3256   36.5141  -13.4874 O   0  0  0  0  0  0  0  0  0  0  0  0
   -6.4851   37.4684  -15.5315 C   0  0  1  0  0  0  0  0  0  0  0  0
   -9.6650   37.3081  -12.2804 C   0  0  1  0  0  0  0  0  0  0  0  0
   -7.4184   37.5292  -16.5182 O   0  0  0  0  0  0  0  0  0  0  0  0
   -9.3929   38.4153  -11.5790 O   0  0  0  0  0  0  0  0  0  0  0  0
   -5.1141   36.9709  -16.1084 C   0  0  1  0  0  0  0  0  0  0  0  0
  -10.3052   36.2226  -11.3853 C   0  0  1  0  0  0  0  0  0  0  0  0
   -5.1464   36.9954  -17.5957 O   0  0  0  0  0  0  0  0  0  0  0  0
  -10.8706   36.8356  -10.1403 O   0  0  0  0  0  0  0  0  0  0  0  0
   -4.2062   37.7716  -15.6497 C   0  0  2  0  0  0  0  0  0  0  0  0
  -11.2603   35.7276  -12.0950 C   0  0  2  0  0  0  0  0  0  0  0  0
   -3.0254   34.8349  -11.3135 N   0  0  0  0  0  0  0  0  0  0  0  0
   -4.2754   35.2197  -11.6963 C   0  0  0  0  0  0  0  0  0  0  0  0
   -4.4720   35.9714  -12.8267 N   0  0  0  0  0  0  0  0  0  0  0  0
   -3.3886   36.3393  -13.5758 C   0  0  0  0  0  0  0  0  0  0  0  0
   -2.1525   35.9745  -13.2081 C   0  0  0  0  0  0  0  0  0  0  0  0
   -1.9623   35.2026  -12.0632 C   0  0  0  0  0  0  0  0  0  0  0  0
   -0.7208   34.7550  -11.5699 N   0  0  0  0  0  0  0  0  0  0  0  0
   -1.2876   36.4650  -14.1211 N   0  0  0  0  0  0  0  0  0  0  0  0
   -2.0081   37.1462  -15.0570 C   0  0  0  0  0  0  0  0  0  0  0  0
   -3.3045   37.0554  -14.7325 N   0  0  0  0  0  0  0  0  0  0  0  0
   -8.0195   31.6831  -12.6044 N   0  0  0  0  0  0  0  0  0  0  0  0
   -7.6814   32.9649  -12.3059 C   0  0  0  0  0  0  0  0  0  0  0  0
   -8.6578   33.9166  -12.2152 N   0  0  0  0  0  0  0  0  0  0  0  0
   -9.9610   33.5826  -12.4168 C   0  0  0  0  0  0  0  0  0  0  0  0
  -10.3043   32.3117  -12.7089 C   0  0  0  0  0  0  0  0  0  0  0  0
   -9.3030   31.3495  -12.8032 C   0  0  0  0  0  0  0  0  0  0  0  0
   -9.4369   29.9506  -13.1195 N   0  0  0  0  0  0  0  0  0  0  0  0
  -11.6505   32.2796  -12.8567 N   0  0  0  0  0  0  0  0  0  0  0  0
  -12.1335   33.5378  -12.6481 C   0  0  0  0  0  0  0  0  0  0  0  0
  -11.0814   34.3354  -12.3739 N   0  0  0  0  0  0  0  0  0  0  0  0
  1  3  1  1  0  0  0
  1  5  2  0  0  0  0
  1  9  1  0  0  0  0
  1 18  1  0  0  0  0
  2  4  1  6  0  0  0
  2  6  2  0  0  0  0
  2 10  1  0  0  0  0
  2 17  1  0  0  0  0
  7  9  1  0  0  0  0
  8 10  1  0  0  0  0
 11  7  1  1  0  0  0
 11 13  1  0  0  0  0
 11 15  1  0  0  0  0
 12  8  1  6  0  0  0
 12 14  1  0  0  0  0
 12 16  1  0  0  0  0
 13 23  1  0  0  0  0
 14 24  1  0  0  0  0
 15 17  1  6  0  0  0
 15 19  1  0  0  0  0
 16 18  1  1  0  0  0
 16 20  1  0  0  0  0
 19 21  1  6  0  0  0
 19 23  1  0  0  0  0
 20 22  1  1  0  0  0
 20 24  1  0  0  0  0
 23 34  1  1  0  0  0
 24 44  1  6  0  0  0
 25 26  2  0  0  0  0
 25 30  1  0  0  0  0
 26 27  1  0  0  0  0
 27 28  2  0  0  0  0
 28 29  1  0  0  0  0
 28 34  1  0  0  0  0
 29 30  2  0  0  0  0
 29 32  1  0  0  0  0
 30 31  1  0  0  0  0
 32 33  2  0  0  0  0
 33 34  1  0  0  0  0
 35 36  2  0  0  0  0
 35 40  1  0  0  0  0
 36 37  1  0  0  0  0
 37 38  2  0  0  0  0
 38 39  1  0  0  0  0
 38 44  1  0  0  0  0
 39 40  2  0  0  0  0
 39 42  1  0  0  0  0
 40 41  1  0  0  0  0
 42 43  2  0  0  0  0
 43 44  1  0  0  0  0
M  CHG  2   3  -1   4  -1
M  END
>  <CHROM.1>
61.85296564,96.02933988,-7.34668025,36.15078886,-13.53152508,0.34922544,0.01438913
-0.44205340

>  <Name>
ligand

>  <RI>
0

>  <Rbt.Current_Directory>
/home/itssahil/PROJECTS/Mol_Feturizer/New_Systems/rnas/4QLM

>  <Rbt.Executable>
rbdock ($Id: //depot/dev/client3/rdock/2013.1/src/exe/rbdock.cxx#4 $)

>  <Rbt.Library>
libRbt.so (2013.1, Build901 2013/11/27)

>  <Rbt.Parameter_File>
/export/apps/rDock/src/rDock_2013.1_src/data/scripts/dock_solv.prm

>  <Rbt.Receptor>
prm/pocket_docking_6.prm

>  <SCORE>
-9.98423

>  <SCORE.INTER>
-8.85601

>  <SCORE.INTER.CONST>
1

>  <SCORE.INTER.POLAR>
0

>  <SCORE.INTER.ROT>
2

>  <SCORE.INTER.SOLV>
15.3683

>  <SCORE.INTER.VDW>
-15.9601

>  <SCORE.INTER.norm>
-0.201273

>  <SCORE.INTRA>
-1.12822

>  <SCORE.INTRA.DIHEDRAL>
0.061237

>  <SCORE.INTRA.DIHEDRAL.0>
2.32994

>  <SCORE.INTRA.POLAR>
0

>  <SCORE.INTRA.POLAR.0>
0

>  <SCORE.INTRA.REPUL>
0

>  <SCORE.INTRA.REPUL.0>
0

>  <SCORE.INTRA.SOLV>
0.0887155

>  <SCORE.INTRA.SOLV.lig_0>
-117.703

>  <SCORE.INTRA.VDW>
-1.2032

>  <SCORE.INTRA.VDW.0>
-1.59997

>  <SCORE.INTRA.norm>
-0.0256414

>  <SCORE.RESTR>
0

>  <SCORE.RESTR.CAVITY>
0

>  <SCORE.RESTR.norm>
0

>  <SCORE.SYSTEM>
0

>  <SCORE.SYSTEM.CONST>
0

>  <SCORE.SYSTEM.DIHEDRAL>
0

>  <SCORE.SYSTEM.SOLV>
0

>  <SCORE.SYSTEM.norm>
0

>  <SCORE.heavy>
44

>  <SCORE.norm>
-0.226914

>  <RMSD>
4.642

$$$$
ligand
 OpenBabel11021811513D
libRbt.so/2013.1/901 2013/11/27
 44 50  0  0  0  0  0  0  0  0999 V2000
  -10.1618   36.5713  -12.7954 P   0  0  2  0  0  0  0  0  0  0  0  0
   -6.2625   33.0466  -14.0510 P   0  0  1  0  0  0  0  0  0  0  0  0
  -11.2222   36.3926  -11.7118 O   0  5  0  0  0  0  0  0  0  0  0  0
   -6.2260   33.0302  -15.5598 O   0  5  0  0  0  0  0  0  0  0  0  0
  -10.7597   37.5094  -13.8162 O   0  0  0  0  0  0  0  0  0  0  0  0
   -4.9883   32.3285  -13.5512 O   0  0  0  0  0  0  0  0  0  0  0  0
  -10.0790   34.0663  -12.3968 C   0  0  0  0  0  0  0  0  0  0  0  0
   -6.6429   34.8337  -12.2262 C   0  0  0  0  0  0  0  0  0  0  0  0
   -9.8915   35.1311  -13.3387 O   0  0  0  0  0  0  0  0  0  0  0  0
   -6.4711   34.6297  -13.6571 O   0  0  0  0  0  0  0  0  0  0  0  0
   -9.8293   32.7204  -13.0688 C   0  0  1  0  0  0  0  0  0  0  0  0
   -6.6882   36.3929  -12.0064 C   0  0  1  0  0  0  0  0  0  0  0  0
  -10.9256   32.3521  -13.6561 O   0  0  0  0  0  0  0  0  0  0  0  0
   -5.6609   36.8436  -12.6026 O   0  0  0  0  0  0  0  0  0  0  0  0
   -8.7628   32.7768  -14.1384 C   0  0  1  0  0  0  0  0  0  0  0  0
   -7.8450   37.0290  -12.8028 C   0  0  1  0  0  0  0  0  0  0  0  0
   -7.6225   32.2953  -13.5762 O   0  0  0  0  0  0  0  0  0  0  0  0
   -8.8916   37.2978  -12.0127 O   0  0  0  0  0  0  0  0  0  0  0  0
   -9.2890   31.7874  -15.2358 C   0  0  1  0  0  0  0  0  0  0  0  0
   -7.2895   38.3170  -13.4521 C   0  0  1  0  0  0  0  0  0  0  0  0
   -8.5705   30.4882  -15.1392 O   0  0  0  0  0  0  0  0  0  0  0  0
   -7.7379   39.5253  -12.6877 O   0  0  0  0  0  0  0  0  0  0  0  0
  -10.5564   31.6352  -15.0210 C   0  0  2  0  0  0  0  0  0  0  0  0
   -6.0082   38.2048  -13.3694 C   0  0  2  0  0  0  0  0  0  0  0  0
  -11.7719   35.3639  -18.6872 N   0  0  0  0  0  0  0  0  0  0  0  0
  -10.7257   35.4178  -17.8155 C   0  0  0  0  0  0  0  0  0  0  0  0
  -10.4993   34.4086  -16.9145 N   0  0  0  0  0  0  0  0  0  0  0  0
  -11.3449   33.3340  -16.8954 C   0  0  0  0  0  0  0  0  0  0  0  0
  -12.3823   33.2702  -17.7417 C   0  0  0  0  0  0  0  0  0  0  0  0
  -12.5996   34.2955  -18.6605 C   0  0  0  0  0  0  0  0  0  0  0  0
  -13.6482   34.3493  -19.6000 N   0  0  0  0  0  0  0  0  0  0  0  0
  -13.0364   32.1128  -17.5077 N   0  0  0  0  0  0  0  0  0  0  0  0
  -12.3911   31.4638  -16.4970 C   0  0  0  0  0  0  0  0  0  0  0  0
  -11.3384   32.2062  -16.1299 N   0  0  0  0  0  0  0  0  0  0  0  0
   -6.0057   36.4999  -18.2901 N   0  0  0  0  0  0  0  0  0  0  0  0
   -6.9271   36.2193  -17.3316 C   0  0  0  0  0  0  0  0  0  0  0  0
   -6.7782   36.7436  -16.0785 N   0  0  0  0  0  0  0  0  0  0  0  0
   -5.7175   37.5461  -15.7931 C   0  0  0  0  0  0  0  0  0  0  0  0
   -4.8018   37.8325  -16.7405 C   0  0  0  0  0  0  0  0  0  0  0  0
   -4.9590   37.2910  -18.0131 C   0  0  0  0  0  0  0  0  0  0  0  0
   -4.1023   37.4459  -19.1607 N   0  0  0  0  0  0  0  0  0  0  0  0
   -3.8725   38.6396  -16.1749 N   0  0  0  0  0  0  0  0  0  0  0  0
   -4.2256   38.8523  -14.8749 C   0  0  0  0  0  0  0  0  0  0  0  0
   -5.3692   38.1745  -14.6495 N   0  0  0  0  0  0  0  0  0  0  0  0
  1  3  1  1  0  0  0
  1  5  2  0  0  0  0
  1  9  1  0  0  0  0
  1 18  1  0  0  0  0
  2  4  1  6  0  0  0
  2  6  2  0  0  0  0
  2 10  1  0  0  0  0
  2 17  1  0  0  0  0
  7  9  1  0  0  0  0
  8 10  1  0  0  0  0
 11  7  1  6  0  0  0
 11 13  1  0  0  0  0
 11 15  1  0  0  0  0
 12  8  1  6  0  0  0
 12 14  1  0  0  0  0
 12 16  1  0  0  0  0
 13 23  1  0  0  0  0
 14 24  1  0  0  0  0
 15 17  1  1  0  0  0
 15 19  1  0  0  0  0
 16 18  1  1  0  0  0
 16 20  1  0  0  0  0
 19 21  1  1  0  0  0
 19 23  1  0  0  0  0
 20 22  1  1  0  0  0
 20 24  1  0  0  0  0
 23 34  1  6  0  0  0
 24 44  1  6  0  0  0
 25 26  2  0  0  0  0
 25 30  1  0  0  0  0
 26 27  1  0  0  0  0
 27 28  2  0  0  0  0
 28 29  1  0  0  0  0
 28 34  1  0  0  0  0
 29 30  2  0  0  0  0
 29 32  1  0  0  0  0
 30 31  1  0  0  0  0
 32 33  2  0  0  0  0
 33 34  1  0  0  0  0
 35 36  2  0  0  0  0
 35 40  1  0  0  0  0
 36 37  1  0  0  0  0
 37 38  2  0  0  0  0
 38 39  1  0  0  0  0
 38 44  1  0  0  0  0
 39 40  2  0  0  0  0
 39 42  1  0  0  0  0
 40 41  1  0  0  0  0
 42 43  2  0  0  0  0
 43 44  1  0  0  0  0
M  CHG  2   3  -1   4  -1
M  END
>  <CHROM.1>
75.83257974,78.90027705,-8.40721988,35.11249645,-14.93086189,0.13078409,0.68178825
1.72897677

>  <Name>
ligand

>  <RI>
0

>  <Rbt.Current_Directory>
/home/itssahil/PROJECTS/Mol_Feturizer/New_Systems/rnas/4QLM

>  <Rbt.Executable>
rbdock ($Id: //depot/dev/client3/rdock/2013.1/src/exe/rbdock.cxx#4 $)

>  <Rbt.Library>
libRbt.so (2013.1, Build901 2013/11/27)

>  <Rbt.Parameter_File>
/export/apps/rDock/src/rDock_2013.1_src/data/scripts/dock_solv.prm

>  <Rbt.Receptor>
prm/pocket_docking_5.prm

>  <SCORE>
-10.7061

>  <SCORE.INTER>
-9.05971

>  <SCORE.INTER.CONST>
1

>  <SCORE.INTER.POLAR>
0

>  <SCORE.INTER.ROT>
2

>  <SCORE.INTER.SOLV>
20.093

>  <SCORE.INTER.VDW>
-17.6708

>  <SCORE.INTER.norm>
-0.205903

>  <SCORE.INTRA>
-1.64643

>  <SCORE.INTRA.DIHEDRAL>
-0.00393735

>  <SCORE.INTRA.DIHEDRAL.0>
2.32994

>  <SCORE.INTRA.POLAR>
0

>  <SCORE.INTRA.POLAR.0>
0

>  <SCORE.INTRA.REPUL>
0

>  <SCORE.INTRA.REPUL.0>
0

>  <SCORE.INTRA.SOLV>
0.224207

>  <SCORE.INTRA.SOLV.lig_0>
-117.703

>  <SCORE.INTRA.VDW>
-1.75657

>  <SCORE.INTRA.VDW.0>
-1.59997

>  <SCORE.INTRA.norm>
-0.0374189

>  <SCORE.RESTR>
0

>  <SCORE.RESTR.CAVITY>
0

>  <SCORE.RESTR.norm>
0

>  <SCORE.SYSTEM>
0

>  <SCORE.SYSTEM.CONST>
0

>  <SCORE.SYSTEM.DIHEDRAL>
0

>  <SCORE.SYSTEM.SOLV>
0

>  <SCORE.SYSTEM.norm>
0

>  <SCORE.heavy>
44

>  <SCORE.norm>
-0.243321

>  <RMSD>
4.643

$$$$
ligand
 OpenBabel11021811513D
libRbt.so/2013.1/901 2013/11/27
 44 50  0  0  0  0  0  0  0  0999 V2000
   -9.3060   36.7127  -12.3158 P   0  0  2  0  0  0  0  0  0  0  0  0
   -5.8849   32.9647  -14.1744 P   0  0  1  0  0  0  0  0  0  0  0  0
  -10.2422   36.5629  -11.1193 O   0  5  0  0  0  0  0  0  0  0  0  0
   -6.0281   33.0197  -15.6759 O   0  5  0  0  0  0  0  0  0  0  0  0
   -9.9410   37.7429  -13.2185 O   0  0  0  0  0  0  0  0  0  0  0  0
   -4.6240   32.1272  -13.8619 O   0  0  0  0  0  0  0  0  0  0  0  0
   -9.3829   34.1921  -12.0296 C   0  0  0  0  0  0  0  0  0  0  0  0
   -5.8992   34.6839  -12.2476 C   0  0  0  0  0  0  0  0  0  0  0  0
   -9.2210   35.2843  -12.9445 O   0  0  0  0  0  0  0  0  0  0  0  0
   -5.9148   34.5379  -13.6957 O   0  0  0  0  0  0  0  0  0  0  0  0
   -9.3256   32.8656  -12.7797 C   0  0  1  0  0  0  0  0  0  0  0  0
   -5.7901   36.2293  -11.9624 C   0  0  1  0  0  0  0  0  0  0  0  0
  -10.5101   32.6120  -13.2435 O   0  0  0  0  0  0  0  0  0  0  0  0
   -4.8067   36.6285  -12.6607 O   0  0  0  0  0  0  0  0  0  0  0  0
   -8.3917   32.8925  -13.9678 C   0  0  1  0  0  0  0  0  0  0  0  0
   -6.9765   36.9908  -12.5865 C   0  0  1  0  0  0  0  0  0  0  0  0
   -7.2365   32.2977  -13.5679 O   0  0  0  0  0  0  0  0  0  0  0  0
   -7.8970   37.3000  -11.6651 O   0  0  0  0  0  0  0  0  0  0  0  0
   -9.1232   32.0015  -15.0315 C   0  0  1  0  0  0  0  0  0  0  0  0
   -6.3975   38.2627  -13.2471 C   0  0  1  0  0  0  0  0  0  0  0  0
   -8.5075   30.6477  -15.0743 O   0  0  0  0  0  0  0  0  0  0  0  0
   -6.6518   39.4629  -12.3868 O   0  0  0  0  0  0  0  0  0  0  0  0
  -10.3646   31.9367  -14.6705 C   0  0  2  0  0  0  0  0  0  0  0  0
   -5.1290   38.0484  -13.3252 C   0  0  2  0  0  0  0  0  0  0  0  0
  -12.3671   36.2161  -17.2195 N   0  0  0  0  0  0  0  0  0  0  0  0
  -11.4101   36.2447  -16.2498 C   0  0  0  0  0  0  0  0  0  0  0  0
  -10.9630   35.0903  -15.6589 N   0  0  0  0  0  0  0  0  0  0  0  0
  -11.4945   33.8938  -16.0540 C   0  0  0  0  0  0  0  0  0  0  0  0
  -12.4416   33.8503  -17.0014 C   0  0  0  0  0  0  0  0  0  0  0  0
  -12.8834   35.0272  -17.6034 C   0  0  0  0  0  0  0  0  0  0  0  0
  -13.8684   35.1183  -18.6066 N   0  0  0  0  0  0  0  0  0  0  0  0
  -12.7758   32.5566  -17.1932 N   0  0  0  0  0  0  0  0  0  0  0  0
  -12.0250   31.7995  -16.3433 C   0  0  0  0  0  0  0  0  0  0  0  0
  -11.2224   32.6199  -15.6527 N   0  0  0  0  0  0  0  0  0  0  0  0
   -5.2253   35.8462  -18.0434 N   0  0  0  0  0  0  0  0  0  0  0  0
   -5.9291   35.4565  -16.9484 C   0  0  0  0  0  0  0  0  0  0  0  0
   -5.7848   36.1413  -15.7746 N   0  0  0  0  0  0  0  0  0  0  0  0
   -4.9463   37.2100  -15.7035 C   0  0  0  0  0  0  0  0  0  0  0  0
   -4.2481   37.6052  -16.7873 C   0  0  0  0  0  0  0  0  0  0  0  0
   -4.3981   36.8997  -17.9777 C   0  0  0  0  0  0  0  0  0  0  0  0
   -3.7443   37.1308  -19.2403 N   0  0  0  0  0  0  0  0  0  0  0  0
   -3.5058   38.6778  -16.4220 N   0  0  0  0  0  0  0  0  0  0  0  0
   -3.7561   38.9431  -15.1079 C   0  0  0  0  0  0  0  0  0  0  0  0
   -4.6502   38.0320  -14.6737 N   0  0  0  0  0  0  0  0  0  0  0  0
  1  3  1  1  0  0  0
  1  5  2  0  0  0  0
  1  9  1  0  0  0  0
  1 18  1  0  0  0  0
  2  4  1  6  0  0  0
  2  6  2  0  0  0  0
  2 10  1  0  0  0  0
  2 17  1  0  0  0  0
  7  9  1  0  0  0  0
  8 10  1  0  0  0  0
 11  7  1  6  0  0  0
 11 13  1  0  0  0  0
 11 15  1  0  0  0  0
 12  8  1  6  0  0  0
 12 14  1  0  0  0  0
 12 16  1  0  0  0  0
 13 23  1  0  0  0  0
 14 24  1  0  0  0  0
 15 17  1  1  0  0  0
 15 19  1  0  0  0  0
 16 18  1  1  0  0  0
 16 20  1  0  0  0  0
 19 21  1  1  0  0  0
 19 23  1  0  0  0  0
 20 22  1  1  0  0  0
 20 24  1  0  0  0  0
 23 34  1  6  0  0  0
 24 44  1  6  0  0  0
 25 26  2  0  0  0  0
 25 30  1  0  0  0  0
 26 27  1  0  0  0  0
 27 28  2  0  0  0  0
 28 29  1  0  0  0  0
 28 34  1  0  0  0  0
 29 30  2  0  0  0  0
 29 32  1  0  0  0  0
 30 31  1  0  0  0  0
 32 33  2  0  0  0  0
 33 34  1  0  0  0  0
 35 36  2  0  0  0  0
 35 40  1  0  0  0  0
 36 37  1  0  0  0  0
 37 38  2  0  0  0  0
 38 39  1  0  0  0  0
 38 44  1  0  0  0  0
 39 40  2  0  0  0  0
 39 42  1  0  0  0  0
 40 41  1  0  0  0  0
 42 43  2  0  0  0  0
 43 44  1  0  0  0  0
M  CHG  2   3  -1   4  -1
M  END
>  <CHROM.1>
48.60913815,57.78456468,-7.94049714,35.19039710,-14.63399242,2.89699220,-0.46997099
-1.80241965

>  <Name>
ligand

>  <RI>
0

>  <Rbt.Current_Directory>
/home/itssahil/PROJECTS/Mol_Feturizer/New_Systems/rnas/4QLM

>  <Rbt.Executable>
rbdock ($Id: //depot/dev/client3/rdock/2013.1/src/exe/rbdock.cxx#4 $)

>  <Rbt.Library>
libRbt.so (2013.1, Build901 2013/11/27)

>  <Rbt.Parameter_File>
/export/apps/rDock/src/rDock_2013.1_src/data/scripts/dock_solv.prm

>  <Rbt.Receptor>
prm/pocket_docking_4.prm

>  <SCORE>
-7.24027

>  <SCORE.INTER>
-5.64317

>  <SCORE.INTER.CONST>
1

>  <SCORE.INTER.POLAR>
0

>  <SCORE.INTER.ROT>
2

>  <SCORE.INTER.SOLV>
17.7242

>  <SCORE.INTER.VDW>
-14.6035

>  <SCORE.INTER.norm>
-0.128254

>  <SCORE.INTRA>
-1.5971

>  <SCORE.INTRA.DIHEDRAL>
0.11971

>  <SCORE.INTRA.DIHEDRAL.0>
2.32994

>  <SCORE.INTRA.POLAR>
0

>  <SCORE.INTRA.POLAR.0>
0

>  <SCORE.INTRA.REPUL>
0

>  <SCORE.INTRA.REPUL.0>
0

>  <SCORE.INTRA.SOLV>
1.36919

>  <SCORE.INTRA.SOLV.lig_0>
-117.703

>  <SCORE.INTRA.VDW>
-2.34155

>  <SCORE.INTRA.VDW.0>
-1.59997

>  <SCORE.INTRA.norm>
-0.0362978

>  <SCORE.RESTR>
0

>  <SCORE.RESTR.CAVITY>
0

>  <SCORE.RESTR.norm>
0

>  <SCORE.SYSTEM>
0

>  <SCORE.SYSTEM.CONST>
0

>  <SCORE.SYSTEM.DIHEDRAL>
0

>  <SCORE.SYSTEM.SOLV>
0

>  <SCORE.SYSTEM.norm>
0

>  <SCORE.heavy>
44

>  <SCORE.norm>
-0.164552

>  <RMSD>
4.651

$$$$
ligand
 OpenBabel11021811513D
libRbt.so/2013.1/901 2013/11/27
 44 50  0  0  0  0  0  0  0  0999 V2000
   -9.1523   36.1954  -12.2321 P   0  0  2  0  0  0  0  0  0  0  0  0
   -5.9035   32.4715  -14.4193 P   0  0  1  0  0  0  0  0  0  0  0  0
  -10.1051   35.9815  -11.0587 O   0  5  0  0  0  0  0  0  0  0  0  0
   -6.0309   32.6733  -15.9096 O   0  5  0  0  0  0  0  0  0  0  0  0
   -9.7280   37.3356  -13.0371 O   0  0  0  0  0  0  0  0  0  0  0  0
   -4.6881   31.5468  -14.1814 O   0  0  0  0  0  0  0  0  0  0  0  0
   -9.3554   33.6661  -12.1833 C   0  0  0  0  0  0  0  0  0  0  0  0
   -5.8501   34.0022  -12.3402 C   0  0  0  0  0  0  0  0  0  0  0  0
   -9.1321   34.8295  -12.9913 O   0  0  0  0  0  0  0  0  0  0  0  0
   -5.8602   33.9927  -13.7957 O   0  0  0  0  0  0  0  0  0  0  0  0
   -9.3569   32.4141  -13.0540 C   0  0  1  0  0  0  0  0  0  0  0  0
   -5.6676   35.5069  -11.9113 C   0  0  1  0  0  0  0  0  0  0  0  0
  -10.5484   32.2641  -13.5442 O   0  0  0  0  0  0  0  0  0  0  0  0
   -4.6597   35.9200  -12.5652 O   0  0  0  0  0  0  0  0  0  0  0  0
   -8.4126   32.5051  -14.2306 C   0  0  1  0  0  0  0  0  0  0  0  0
   -6.8097   36.3813  -12.4663 C   0  0  1  0  0  0  0  0  0  0  0  0
   -7.2915   31.8189  -13.8833 O   0  0  0  0  0  0  0  0  0  0  0  0
   -7.7218   36.6487  -11.5237 O   0  0  0  0  0  0  0  0  0  0  0  0
   -9.1777   31.7547  -15.3758 C   0  0  1  0  0  0  0  0  0  0  0  0
   -6.1631   37.6789  -13.0026 C   0  0  1  0  0  0  0  0  0  0  0  0
   -8.6290   30.3819  -15.5426 O   0  0  0  0  0  0  0  0  0  0  0  0
   -6.3656   38.8048  -12.0348 O   0  0  0  0  0  0  0  0  0  0  0  0
  -10.4239   31.7184  -15.0275 C   0  0  2  0  0  0  0  0  0  0  0  0
   -4.9061   37.4100  -13.0953 C   0  0  2  0  0  0  0  0  0  0  0  0
  -11.6070   36.1241  -17.8579 N   0  0  0  0  0  0  0  0  0  0  0  0
  -10.4974   35.9494  -17.0864 C   0  0  0  0  0  0  0  0  0  0  0  0
  -10.2859   34.7804  -16.4007 N   0  0  0  0  0  0  0  0  0  0  0  0
  -11.2116   33.7782  -16.4964 C   0  0  0  0  0  0  0  0  0  0  0  0
  -12.3114   33.9380  -17.2454 C   0  0  0  0  0  0  0  0  0  0  0  0
  -12.5139   35.1255  -17.9465 C   0  0  0  0  0  0  0  0  0  0  0  0
  -13.6224   35.4184  -18.7654 N   0  0  0  0  0  0  0  0  0  0  0  0
  -13.0374   32.8030  -17.1619 N   0  0  0  0  0  0  0  0  0  0  0  0
  -12.3723   31.9398  -16.3424 C   0  0  0  0  0  0  0  0  0  0  0  0
  -11.2385   32.5320  -15.9450 N   0  0  0  0  0  0  0  0  0  0  0  0
   -2.9452   34.9885  -17.2680 N   0  0  0  0  0  0  0  0  0  0  0  0
   -3.2828   34.4204  -16.0807 C   0  0  0  0  0  0  0  0  0  0  0  0
   -3.7815   35.2016  -15.0765 N   0  0  0  0  0  0  0  0  0  0  0  0
   -3.9444   36.5389  -15.2653 C   0  0  0  0  0  0  0  0  0  0  0  0
   -3.6158   37.1087  -16.4424 C   0  0  0  0  0  0  0  0  0  0  0  0
   -3.1049   36.3063  -17.4584 C   0  0  0  0  0  0  0  0  0  0  0  0
   -2.6743   36.7003  -18.7754 N   0  0  0  0  0  0  0  0  0  0  0  0
   -3.8797   38.4333  -16.3388 N   0  0  0  0  0  0  0  0  0  0  0  0
   -4.3781   38.6736  -15.0923 C   0  0  0  0  0  0  0  0  0  0  0  0
   -4.4169   37.4955  -14.4375 N   0  0  0  0  0  0  0  0  0  0  0  0
  1  3  1  1  0  0  0
  1  5  2  0  0  0  0
  1  9  1  0  0  0  0
  1 18  1  0  0  0  0
  2  4  1  6  0  0  0
  2  6  2  0  0  0  0
  2 10  1  0  0  0  0
  2 17  1  0  0  0  0
  7  9  1  0  0  0  0
  8 10  1  0  0  0  0
 11  7  1  6  0  0  0
 11 13  1  0  0  0  0
 11 15  1  0  0  0  0
 12  8  1  6  0  0  0
 12 14  1  0  0  0  0
 12 16  1  0  0  0  0
 13 23  1  0  0  0  0
 14 24  1  0  0  0  0
 15 17  1  1  0  0  0
 15 19  1  0  0  0  0
 16 18  1  1  0  0  0
 16 20  1  0  0  0  0
 19 21  1  1  0  0  0
 19 23  1  0  0  0  0
 20 22  1  1  0  0  0
 20 24  1  0  0  0  0
 23 34  1  6  0  0  0
 24 44  1  6  0  0  0
 25 26  2  0  0  0  0
 25 30  1  0  0  0  0
 26 27  1  0  0  0  0
 27 28  2  0  0  0  0
 28 29  1  0  0  0  0
 28 34  1  0  0  0  0
 29 30  2  0  0  0  0
 29 32  1  0  0  0  0
 30 31  1  0  0  0  0
 32 33  2  0  0  0  0
 33 34  1  0  0  0  0
 35 36  2  0  0  0  0
 35 40  1  0  0  0  0
 36 37  1  0  0  0  0
 37 38  2  0  0  0  0
 38 39  1  0  0  0  0
 38 44  1  0  0  0  0
 39 40  2  0  0  0  0
 39 42  1  0  0  0  0
 40 41  1  0  0  0  0
 42 43  2  0  0  0  0
 43 44  1  0  0  0  0
M  CHG  2   3  -1   4  -1
M  END
>  <CHROM.1>
71.72369324,6.75128440,-7.63986870,34.76633314,-14.66672973,2.80893373,-0.25254666
-2.14045572

>  <Name>
ligand

>  <RI>
0

>  <Rbt.Current_Directory>
/home/itssahil/PROJECTS/Mol_Feturizer/New_Systems/rnas/4QLM

>  <Rbt.Executable>
rbdock ($Id: //depot/dev/client3/rdock/2013.1/src/exe/rbdock.cxx#4 $)

>  <Rbt.Library>
libRbt.so (2013.1, Build901 2013/11/27)

>  <Rbt.Parameter_File>
/export/apps/rDock/src/rDock_2013.1_src/data/scripts/dock_solv.prm

>  <Rbt.Receptor>
prm/pocket_docking_4.prm

>  <SCORE>
-9.38836

>  <SCORE.INTER>
-8.15885

>  <SCORE.INTER.CONST>
1

>  <SCORE.INTER.POLAR>
0

>  <SCORE.INTER.ROT>
2

>  <SCORE.INTER.SOLV>
22.1658

>  <SCORE.INTER.VDW>
-17.7612

>  <SCORE.INTER.norm>
-0.185428

>  <SCORE.INTRA>
-1.22952

>  <SCORE.INTRA.DIHEDRAL>
-0.0011202

>  <SCORE.INTRA.DIHEDRAL.0>
2.32994

>  <SCORE.INTRA.POLAR>
0

>  <SCORE.INTRA.POLAR.0>
0

>  <SCORE.INTRA.REPUL>
0

>  <SCORE.INTRA.REPUL.0>
0

>  <SCORE.INTRA.SOLV>
1.04096

>  <SCORE.INTRA.SOLV.lig_0>
-117.703

>  <SCORE.INTRA.VDW>
-1.74944

>  <SCORE.INTRA.VDW.0>
-1.59997

>  <SCORE.INTRA.norm>
-0.0279436

>  <SCORE.RESTR>
0

>  <SCORE.RESTR.CAVITY>
0

>  <SCORE.RESTR.norm>
0

>  <SCORE.SYSTEM>
0

>  <SCORE.SYSTEM.CONST>
0

>  <SCORE.SYSTEM.DIHEDRAL>
0

>  <SCORE.SYSTEM.SOLV>
0

>  <SCORE.SYSTEM.norm>
0

>  <SCORE.heavy>
44

>  <SCORE.norm>
-0.213372

>  <RMSD>
4.673

$$$$
ligand
 OpenBabel11021811513D
libRbt.so/2013.1/901 2013/11/27
 44 50  0  0  0  0  0  0  0  0999 V2000
   -9.2060   36.1799  -12.2458 P   0  0  2  0  0  0  0  0  0  0  0  0
   -5.9120   32.4761  -14.3992 P   0  0  1  0  0  0  0  0  0  0  0  0
  -10.1783   35.9569  -11.0902 O   0  5  0  0  0  0  0  0  0  0  0  0
   -6.0142   32.6866  -15.8902 O   0  5  0  0  0  0  0  0  0  0  0  0
   -9.7704   37.3237  -13.0537 O   0  0  0  0  0  0  0  0  0  0  0  0
   -4.6987   31.5526  -14.1460 O   0  0  0  0  0  0  0  0  0  0  0  0
   -9.4044   33.6499  -12.2156 C   0  0  0  0  0  0  0  0  0  0  0  0
   -5.8976   33.9944  -12.3104 C   0  0  0  0  0  0  0  0  0  0  0  0
   -9.1698   34.8186  -13.0127 O   0  0  0  0  0  0  0  0  0  0  0  0
   -5.8828   33.9936  -13.7659 O   0  0  0  0  0  0  0  0  0  0  0  0
   -9.3882   32.4032  -13.0936 C   0  0  1  0  0  0  0  0  0  0  0  0
   -5.7258   35.4969  -11.8694 C   0  0  1  0  0  0  0  0  0  0  0  0
  -10.5707   32.2535  -13.6051 O   0  0  0  0  0  0  0  0  0  0  0  0
   -4.7078   35.9160  -12.5035 O   0  0  0  0  0  0  0  0  0  0  0  0
   -8.4240   32.5032  -14.2533 C   0  0  1  0  0  0  0  0  0  0  0  0
   -6.8602   36.3722  -12.4386 C   0  0  1  0  0  0  0  0  0  0  0  0
   -7.3075   31.8174  -13.8910 O   0  0  0  0  0  0  0  0  0  0  0  0
   -7.7889   36.6320  -11.5103 O   0  0  0  0  0  0  0  0  0  0  0  0
   -9.1677   31.7581  -15.4159 C   0  0  1  0  0  0  0  0  0  0  0  0
   -6.2075   37.6743  -12.9560 C   0  0  1  0  0  0  0  0  0  0  0  0
   -8.6132   30.3875  -15.5815 O   0  0  0  0  0  0  0  0  0  0  0  0
   -6.4290   38.7939  -11.9852 O   0  0  0  0  0  0  0  0  0  0  0  0
  -10.4196   31.7170  -15.0893 C   0  0  2  0  0  0  0  0  0  0  0  0
   -4.9484   37.4086  -13.0288 C   0  0  2  0  0  0  0  0  0  0  0  0
  -11.4653   36.0609  -18.0657 N   0  0  0  0  0  0  0  0  0  0  0  0
  -10.3422   35.8597  -17.3204 C   0  0  0  0  0  0  0  0  0  0  0  0
  -10.1692   34.7098  -16.5929 N   0  0  0  0  0  0  0  0  0  0  0  0
  -11.1472   33.7543  -16.6193 C   0  0  0  0  0  0  0  0  0  0  0  0
  -12.2605   33.9410  -17.3419 C   0  0  0  0  0  0  0  0  0  0  0  0
  -12.4242   35.1082  -18.0858 C   0  0  0  0  0  0  0  0  0  0  0  0
  -13.5416   35.4253  -18.8833 N   0  0  0  0  0  0  0  0  0  0  0  0
  -13.0403   32.8496  -17.1896 N   0  0  0  0  0  0  0  0  0  0  0  0
  -12.3946   31.9866  -16.3545 C   0  0  0  0  0  0  0  0  0  0  0  0
  -11.2202   32.5344  -16.0157 N   0  0  0  0  0  0  0  0  0  0  0  0
   -2.9516   35.0101  -17.1977 N   0  0  0  0  0  0  0  0  0  0  0  0
   -3.3157   34.4328  -16.0227 C   0  0  0  0  0  0  0  0  0  0  0  0
   -3.8204   35.2088  -15.0175 N   0  0  0  0  0  0  0  0  0  0  0  0
   -3.9630   36.5502  -15.1932 C   0  0  0  0  0  0  0  0  0  0  0  0
   -3.6080   37.1292  -16.3580 C   0  0  0  0  0  0  0  0  0  0  0  0
   -3.0912   36.3320  -17.3751 C   0  0  0  0  0  0  0  0  0  0  0  0
   -2.6342   36.7356  -18.6803 N   0  0  0  0  0  0  0  0  0  0  0  0
   -3.8566   38.4559  -16.2431 N   0  0  0  0  0  0  0  0  0  0  0  0
   -4.3719   38.6882  -15.0020 C   0  0  0  0  0  0  0  0  0  0  0  0
   -4.4365   37.5033  -14.3618 N   0  0  0  0  0  0  0  0  0  0  0  0
  1  3  1  1  0  0  0
  1  5  2  0  0  0  0
  1  9  1  0  0  0  0
  1 18  1  0  0  0  0
  2  4  1  6  0  0  0
  2  6  2  0  0  0  0
  2 10  1  0  0  0  0
  2 17  1  0  0  0  0
  7  9  1  0  0  0  0
  8 10  1  0  0  0  0
 11  7  1  6  0  0  0
 11 13  1  0  0  0  0
 11 15  1  0  0  0  0
 12  8  1  6  0  0  0
 12 14  1  0  0  0  0
 12 16  1  0  0  0  0
 13 23  1  0  0  0  0
 14 24  1  0  0  0  0
 15 17  1  1  0  0  0
 15 19  1  0  0  0  0
 16 18  1  1  0  0  0
 16 20  1  0  0  0  0
 19 21  1  1  0  0  0
 19 23  1  0  0  0  0
 20 22  1  1  0  0  0
 20 24  1  0  0  0  0
 23 34  1  6  0  0  0
 24 44  1  6  0  0  0
 25 26  2  0  0  0  0
 25 30  1  0  0  0  0
 26 27  1  0  0  0  0
 27 28  2  0  0  0  0
 28 29  1  0  0  0  0
 28 34  1  0  0  0  0
 29 30  2  0  0  0  0
 29 32  1  0  0  0  0
 30 31  1  0  0  0  0
 32 33  2  0  0  0  0
 33 34  1  0  0  0  0
 35 36  2  0  0  0  0
 35 40  1  0  0  0  0
 36 37  1  0  0  0  0
 37 38  2  0  0  0  0
 38 39  1  0  0  0  0
 38 44  1  0  0  0  0
 39 40  2  0  0  0  0
 39 42  1  0  0  0  0
 40 41  1  0  0  0  0
 42 43  2  0  0  0  0
 43 44  1  0  0  0  0
M  CHG  2   3  -1   4  -1
M  END
>  <CHROM.1>
76.64357233,7.68079690,-7.64514536,34.76337386,-14.67410570,2.80698485,-0.27523614
-2.05783559

>  <Name>
ligand

>  <RI>
0

>  <Rbt.Current_Directory>
/home/itssahil/PROJECTS/Mol_Feturizer/New_Systems/rnas/4QLM

>  <Rbt.Executable>
rbdock ($Id: //depot/dev/client3/rdock/2013.1/src/exe/rbdock.cxx#4 $)

>  <Rbt.Library>
libRbt.so (2013.1, Build901 2013/11/27)

>  <Rbt.Parameter_File>
/export/apps/rDock/src/rDock_2013.1_src/data/scripts/dock_solv.prm

>  <Rbt.Receptor>
prm/pocket_docking_4.prm

>  <SCORE>
-9.55011

>  <SCORE.INTER>
-8.37894

>  <SCORE.INTER.CONST>
1

>  <SCORE.INTER.POLAR>
0

>  <SCORE.INTER.ROT>
2

>  <SCORE.INTER.SOLV>
22.6254

>  <SCORE.INTER.VDW>
-18.0611

>  <SCORE.INTER.norm>
-0.19043

>  <SCORE.INTRA>
-1.17117

>  <SCORE.INTRA.DIHEDRAL>
-0.0197571

>  <SCORE.INTRA.DIHEDRAL.0>
2.32994

>  <SCORE.INTRA.POLAR>
0

>  <SCORE.INTRA.POLAR.0>
0

>  <SCORE.INTRA.REPUL>
0

>  <SCORE.INTRA.REPUL.0>
0

>  <SCORE.INTRA.SOLV>
1.09302

>  <SCORE.INTRA.SOLV.lig_0>
-117.703

>  <SCORE.INTRA.VDW>
-1.7078

>  <SCORE.INTRA.VDW.0>
-1.59997

>  <SCORE.INTRA.norm>
-0.0266174

>  <SCORE.RESTR>
0

>  <SCORE.RESTR.CAVITY>
0

>  <SCORE.RESTR.norm>
0

>  <SCORE.SYSTEM>
0

>  <SCORE.SYSTEM.CONST>
0

>  <SCORE.SYSTEM.DIHEDRAL>
0

>  <SCORE.SYSTEM.SOLV>
0

>  <SCORE.SYSTEM.norm>
0

>  <SCORE.heavy>
44

>  <SCORE.norm>
-0.217048

>  <RMSD>
4.693

$$$$
ligand
 OpenBabel11021811513D
libRbt.so/2013.1/901 2013/11/27
 44 50  0  0  0  0  0  0  0  0999 V2000
  -10.0494   36.2776  -12.7041 P   0  0  2  0  0  0  0  0  0  0  0  0
   -6.2598   32.7913  -14.3443 P   0  0  1  0  0  0  0  0  0  0  0  0
  -11.0751   36.0383  -11.5990 O   0  5  0  0  0  0  0  0  0  0  0  0
   -6.2754   32.8823  -15.8508 O   0  5  0  0  0  0  0  0  0  0  0  0
  -10.6649   37.2955  -13.6339 O   0  0  0  0  0  0  0  0  0  0  0  0
   -4.9824   32.0195  -13.9422 O   0  0  0  0  0  0  0  0  0  0  0  0
   -9.9983   33.7494  -12.4874 C   0  0  0  0  0  0  0  0  0  0  0  0
   -6.5450   34.4490  -12.3849 C   0  0  0  0  0  0  0  0  0  0  0  0
   -9.8240   34.8758  -13.3575 O   0  0  0  0  0  0  0  0  0  0  0  0
   -6.4261   34.3452  -13.8319 O   0  0  0  0  0  0  0  0  0  0  0  0
   -9.7962   32.4513  -13.2618 C   0  0  1  0  0  0  0  0  0  0  0  0
   -6.5546   35.9890  -12.0536 C   0  0  1  0  0  0  0  0  0  0  0  0
  -10.9185   32.1432  -13.8343 O   0  0  0  0  0  0  0  0  0  0  0  0
   -5.5403   36.4651  -12.6524 O   0  0  0  0  0  0  0  0  0  0  0  0
   -8.7662   32.5675  -14.3618 C   0  0  1  0  0  0  0  0  0  0  0  0
   -7.7263   36.6984  -12.7612 C   0  0  1  0  0  0  0  0  0  0  0  0
   -7.6161   32.0293  -13.8760 O   0  0  0  0  0  0  0  0  0  0  0  0
   -8.7402   36.9262  -11.9174 O   0  0  0  0  0  0  0  0  0  0  0  0
   -9.3474   31.6675  -15.5073 C   0  0  1  0  0  0  0  0  0  0  0  0
   -7.1702   38.0208  -13.3368 C   0  0  1  0  0  0  0  0  0  0  0  0
   -8.6497   30.3536  -15.5286 O   0  0  0  0  0  0  0  0  0  0  0  0
   -7.5702   39.1782  -12.4733 O   0  0  0  0  0  0  0  0  0  0  0  0
  -10.6093   31.5200  -15.2590 C   0  0  2  0  0  0  0  0  0  0  0  0
   -5.8891   37.8829  -13.3079 C   0  0  2  0  0  0  0  0  0  0  0  0
  -11.8593   35.5032  -18.6344 N   0  0  0  0  0  0  0  0  0  0  0  0
  -10.7769   35.4730  -17.8069 C   0  0  0  0  0  0  0  0  0  0  0  0
  -10.5448   34.4035  -16.9800 N   0  0  0  0  0  0  0  0  0  0  0  0
  -11.4216   33.3541  -16.9902 C   0  0  0  0  0  0  0  0  0  0  0  0
  -12.4946   33.3727  -17.7932 C   0  0  0  0  0  0  0  0  0  0  0  0
  -12.7179   34.4590  -18.6374 C   0  0  0  0  0  0  0  0  0  0  0  0
  -13.8022   34.6010  -19.5257 N   0  0  0  0  0  0  0  0  0  0  0  0
  -13.1740   32.2219  -17.6025 N   0  0  0  0  0  0  0  0  0  0  0  0
  -12.5078   31.4931  -16.6621 C   0  0  0  0  0  0  0  0  0  0  0  0
  -11.4184   32.1810  -16.2961 N   0  0  0  0  0  0  0  0  0  0  0  0
   -5.9051   36.2766  -18.2616 N   0  0  0  0  0  0  0  0  0  0  0  0
   -6.7635   35.8961  -17.2794 C   0  0  0  0  0  0  0  0  0  0  0  0
   -6.6187   36.4084  -16.0209 N   0  0  0  0  0  0  0  0  0  0  0  0
   -5.6251   37.2983  -15.7535 C   0  0  0  0  0  0  0  0  0  0  0  0
   -4.7725   37.6839  -16.7243 C   0  0  0  0  0  0  0  0  0  0  0  0
   -4.9247   37.1541  -18.0024 C   0  0  0  0  0  0  0  0  0  0  0  0
   -4.1260   37.4071  -19.1741 N   0  0  0  0  0  0  0  0  0  0  0  0
   -3.9003   38.5613  -16.1724 N   0  0  0  0  0  0  0  0  0  0  0  0
   -4.2255   38.7170  -14.8572 C   0  0  0  0  0  0  0  0  0  0  0  0
   -5.2950   37.9343  -14.6088 N   0  0  0  0  0  0  0  0  0  0  0  0
  1  3  1  1  0  0  0
  1  5  2  0  0  0  0
  1  9  1  0  0  0  0
  1 18  1  0  0  0  0
  2  4  1  6  0  0  0
  2  6  2  0  0  0  0
  2 10  1  0  0  0  0
  2 17  1  0  0  0  0
  7  9  1  0  0  0  0
  8 10  1  0  0  0  0
 11  7  1  6  0  0  0
 11 13  1  0  0  0  0
 11 15  1  0  0  0  0
 12  8  1  6  0  0  0
 12 14  1  0  0  0  0
 12 16  1  0  0  0  0
 13 23  1  0  0  0  0
 14 24  1  0  0  0  0
 15 17  1  1  0  0  0
 15 19  1  0  0  0  0
 16 18  1  1  0  0  0
 16 20  1  0  0  0  0
 19 21  1  1  0  0  0
 19 23  1  0  0  0  0
 20 22  1  1  0  0  0
 20 24  1  0  0  0  0
 23 34  1  6  0  0  0
 24 44  1  6  0  0  0
 25 26  2  0  0  0  0
 25 30  1  0  0  0  0
 26 27  1  0  0  0  0
 27 28  2  0  0  0  0
 28 29  1  0  0  0  0
 28 34  1  0  0  0  0
 29 30  2  0  0  0  0
 29 32  1  0  0  0  0
 30 31  1  0  0  0  0
 32 33  2  0  0  0  0
 33 34  1  0  0  0  0
 35 36  2  0  0  0  0
 35 40  1  0  0  0  0
 36 37  1  0  0  0  0
 37 38  2  0  0  0  0
 38 39  1  0  0  0  0
 38 44  1  0  0  0  0
 39 40  2  0  0  0  0
 39 42  1  0  0  0  0
 40 41  1  0  0  0  0
 42 43  2  0  0  0  0
 43 44  1  0  0  0  0
M  CHG  2   3  -1   4  -1
M  END
>  <CHROM.1>
76.83644685,72.09158401,-8.38033124,34.92715077,-14.99504944,2.99227638,-0.64370321
-1.40691117

>  <Name>
ligand

>  <RI>
0

>  <Rbt.Current_Directory>
/home/itssahil/PROJECTS/Mol_Feturizer/New_Systems/rnas/4QLM

>  <Rbt.Executable>
rbdock ($Id: //depot/dev/client3/rdock/2013.1/src/exe/rbdock.cxx#4 $)

>  <Rbt.Library>
libRbt.so (2013.1, Build901 2013/11/27)

>  <Rbt.Parameter_File>
/export/apps/rDock/src/rDock_2013.1_src/data/scripts/dock_solv.prm

>  <Rbt.Receptor>
prm/pocket_docking_5.prm

>  <SCORE>
-10.9334

>  <SCORE.INTER>
-9.1515

>  <SCORE.INTER.CONST>
1

>  <SCORE.INTER.POLAR>
0

>  <SCORE.INTER.ROT>
2

>  <SCORE.INTER.SOLV>
21.6175

>  <SCORE.INTER.VDW>
-18.2402

>  <SCORE.INTER.norm>
-0.207989

>  <SCORE.INTRA>
-1.78187

>  <SCORE.INTRA.DIHEDRAL>
-0.00984794

>  <SCORE.INTRA.DIHEDRAL.0>
2.32994

>  <SCORE.INTRA.POLAR>
0

>  <SCORE.INTRA.POLAR.0>
0

>  <SCORE.INTRA.REPUL>
0

>  <SCORE.INTRA.REPUL.0>
0

>  <SCORE.INTRA.SOLV>
0.451776

>  <SCORE.INTRA.SOLV.lig_0>
-117.703

>  <SCORE.INTRA.VDW>
-2.00283

>  <SCORE.INTRA.VDW.0>
-1.59997

>  <SCORE.INTRA.norm>
-0.040497

>  <SCORE.RESTR>
0

>  <SCORE.RESTR.CAVITY>
0

>  <SCORE.RESTR.norm>
0

>  <SCORE.SYSTEM>
0

>  <SCORE.SYSTEM.CONST>
0

>  <SCORE.SYSTEM.DIHEDRAL>
0

>  <SCORE.SYSTEM.SOLV>
0

>  <SCORE.SYSTEM.norm>
0

>  <SCORE.heavy>
44

>  <SCORE.norm>
-0.248486

>  <RMSD>
4.714

$$$$
ligand
 OpenBabel11021811513D
libRbt.so/2013.1/901 2013/11/27
 44 50  0  0  0  0  0  0  0  0999 V2000
   -6.7527   34.4602  -17.5912 P   0  0  2  0  0  0  0  0  0  0  0  0
   -7.5650   38.3948  -13.9767 P   0  0  1  0  0  0  0  0  0  0  0  0
   -7.5244   34.2604  -18.8932 O   0  5  0  0  0  0  0  0  0  0  0  0
   -7.4880   37.7096  -12.6341 O   0  5  0  0  0  0  0  0  0  0  0  0
   -6.2361   33.0974  -17.1968 O   0  0  0  0  0  0  0  0  0  0  0  0
   -7.5083   39.9181  -13.7209 O   0  0  0  0  0  0  0  0  0  0  0  0
   -8.8361   35.8493  -17.1779 C   0  0  0  0  0  0  0  0  0  0  0  0
   -6.3510   38.1685  -16.2446 C   0  0  0  0  0  0  0  0  0  0  0  0
   -7.7944   35.0577  -16.5910 O   0  0  0  0  0  0  0  0  0  0  0  0
   -6.3629   37.7075  -14.8641 O   0  0  0  0  0  0  0  0  0  0  0  0
   -9.8033   36.3272  -16.1000 C   0  0  1  0  0  0  0  0  0  0  0  0
   -5.0731   37.5318  -16.9101 C   0  0  1  0  0  0  0  0  0  0  0  0
  -10.6749   35.3890  -15.8942 O   0  0  0  0  0  0  0  0  0  0  0  0
   -4.1132   37.8160  -16.1278 O   0  0  0  0  0  0  0  0  0  0  0  0
   -9.1320   36.5938  -14.7724 C   0  0  1  0  0  0  0  0  0  0  0  0
   -5.1217   35.9926  -16.8371 C   0  0  1  0  0  0  0  0  0  0  0  0
   -8.9510   37.9388  -14.6913 O   0  0  0  0  0  0  0  0  0  0  0  0
   -5.4953   35.4600  -18.0070 O   0  0  0  0  0  0  0  0  0  0  0  0
  -10.1961   36.1230  -13.7205 C   0  0  1  0  0  0  0  0  0  0  0  0
   -3.7080   35.5164  -16.4322 C   0  0  1  0  0  0  0  0  0  0  0  0
  -10.9083   37.2993  -13.1526 O   0  0  0  0  0  0  0  0  0  0  0  0
   -2.9678   34.9954  -17.6263 O   0  0  0  0  0  0  0  0  0  0  0  0
  -11.0157   35.3407  -14.3466 C   0  0  2  0  0  0  0  0  0  0  0  0
   -3.1177   36.5710  -15.9846 C   0  0  2  0  0  0  0  0  0  0  0  0
   -8.5563   30.6266  -13.6052 N   0  0  0  0  0  0  0  0  0  0  0  0
   -8.0323   31.7024  -14.2573 C   0  0  0  0  0  0  0  0  0  0  0  0
   -8.7443   32.8670  -14.3924 N   0  0  0  0  0  0  0  0  0  0  0  0
  -10.0029   32.9405  -13.8625 C   0  0  0  0  0  0  0  0  0  0  0  0
  -10.5345   31.8884  -13.2247 C   0  0  0  0  0  0  0  0  0  0  0  0
   -9.8005   30.7119  -13.0836 C   0  0  0  0  0  0  0  0  0  0  0  0
  -10.2416   29.5397  -12.4383 N   0  0  0  0  0  0  0  0  0  0  0  0
  -11.7691   32.2389  -12.8061 N   0  0  0  0  0  0  0  0  0  0  0  0
  -11.9965   33.5238  -13.2018 C   0  0  0  0  0  0  0  0  0  0  0  0
  -10.9029   33.9639  -13.8378 N   0  0  0  0  0  0  0  0  0  0  0  0
   -2.5012   33.5457  -11.7908 N   0  0  0  0  0  0  0  0  0  0  0  0
   -2.9503   33.1603  -13.0140 C   0  0  0  0  0  0  0  0  0  0  0  0
   -3.0621   34.0850  -14.0139 N   0  0  0  0  0  0  0  0  0  0  0  0
   -2.7207   35.3824  -13.7886 C   0  0  0  0  0  0  0  0  0  0  0  0
   -2.2700   35.7711  -12.5787 C   0  0  0  0  0  0  0  0  0  0  0  0
   -2.1631   34.8235  -11.5648 C   0  0  0  0  0  0  0  0  0  0  0  0
   -1.7284   35.0168  -10.2051 N   0  0  0  0  0  0  0  0  0  0  0  0
   -2.0152   37.0997  -12.6490 N   0  0  0  0  0  0  0  0  0  0  0  0
   -2.3068   37.5245  -13.9117 C   0  0  0  0  0  0  0  0  0  0  0  0
   -2.7393   36.4547  -14.6093 N   0  0  0  0  0  0  0  0  0  0  0  0
  1  3  1  6  0  0  0
  1  5  2  0  0  0  0
  1  9  1  0  0  0  0
  1 18  1  0  0  0  0
  2  4  1  1  0  0  0
  2  6  2  0  0  0  0
  2 10  1  0  0  0  0
  2 17  1  0  0  0  0
  7  9  1  0  0  0  0
  8 10  1  0  0  0  0
 11  7  1  6  0  0  0
 11 13  1  0  0  0  0
 11 15  1  0  0  0  0
 12  8  1  1  0  0  0
 12 14  1  0  0  0  0
 12 16  1  0  0  0  0
 13 23  1  0  0  0  0
 14 24  1  0  0  0  0
 15 17  1  1  0  0  0
 15 19  1  0  0  0  0
 16 18  1  6  0  0  0
 16 20  1  0  0  0  0
 19 21  1  6  0  0  0
 19 23  1  0  0  0  0
 20 22  1  6  0  0  0
 20 24  1  0  0  0  0
 23 34  1  1  0  0  0
 24 44  1  1  0  0  0
 25 26  2  0  0  0  0
 25 30  1  0  0  0  0
 26 27  1  0  0  0  0
 27 28  2  0  0  0  0
 28 29  1  0  0  0  0
 28 34  1  0  0  0  0
 29 30  2  0  0  0  0
 29 32  1  0  0  0  0
 30 31  1  0  0  0  0
 32 33  2  0  0  0  0
 33 34  1  0  0  0  0
 35 36  2  0  0  0  0
 35 40  1  0  0  0  0
 36 37  1  0  0  0  0
 37 38  2  0  0  0  0
 38 39  1  0  0  0  0
 38 44  1  0  0  0  0
 39 40  2  0  0  0  0
 39 42  1  0  0  0  0
 40 41  1  0  0  0  0
 42 43  2  0  0  0  0
 43 44  1  0  0  0  0
M  CHG  2   3  -1   4  -1
M  END
>  <CHROM.1>
50.37668271,131.40380817,-6.81267605,35.28833527,-14.73357039,2.82853525
0.13660026,2.66610040

>  <Name>
ligand

>  <RI>
0

>  <Rbt.Current_Directory>
/home/itssahil/PROJECTS/Mol_Feturizer/New_Systems/rnas/4QLM

>  <Rbt.Executable>
rbdock ($Id: //depot/dev/client3/rdock/2013.1/src/exe/rbdock.cxx#4 $)

>  <Rbt.Library>
libRbt.so (2013.1, Build901 2013/11/27)

>  <Rbt.Parameter_File>
/export/apps/rDock/src/rDock_2013.1_src/data/scripts/dock_solv.prm

>  <Rbt.Receptor>
prm/pocket_docking_4.prm

>  <SCORE>
-3.93713

>  <SCORE.INTER>
-3.99961

>  <SCORE.INTER.CONST>
1

>  <SCORE.INTER.POLAR>
0

>  <SCORE.INTER.ROT>
2

>  <SCORE.INTER.SOLV>
30.6695

>  <SCORE.INTER.VDW>
-17.8229

>  <SCORE.INTER.norm>
-0.0909003

>  <SCORE.INTRA>
-0.346726

>  <SCORE.INTRA.DIHEDRAL>
0.106374

>  <SCORE.INTRA.DIHEDRAL.0>
2.32994

>  <SCORE.INTRA.POLAR>
0

>  <SCORE.INTRA.POLAR.0>
0

>  <SCORE.INTRA.REPUL>
0

>  <SCORE.INTRA.REPUL.0>
0

>  <SCORE.INTRA.SOLV>
0.312476

>  <SCORE.INTRA.SOLV.lig_0>
-117.703

>  <SCORE.INTRA.VDW>
-0.556151

>  <SCORE.INTRA.VDW.0>
-1.59997

>  <SCORE.INTRA.norm>
-0.00788013

>  <SCORE.RESTR>
0.409205

>  <SCORE.RESTR.CAVITY>
0.409205

>  <SCORE.RESTR.norm>
0.00930012

>  <SCORE.SYSTEM>
0

>  <SCORE.SYSTEM.CONST>
0

>  <SCORE.SYSTEM.DIHEDRAL>
0

>  <SCORE.SYSTEM.SOLV>
0

>  <SCORE.SYSTEM.norm>
0

>  <SCORE.heavy>
44

>  <SCORE.norm>
-0.0894803

>  <RMSD>
4.728

$$$$
ligand
 OpenBabel11021811513D
libRbt.so/2013.1/901 2013/11/27
 44 50  0  0  0  0  0  0  0  0999 V2000
   -9.1364   36.3022  -12.3504 P   0  0  2  0  0  0  0  0  0  0  0  0
   -5.8755   32.5230  -14.4216 P   0  0  1  0  0  0  0  0  0  0  0  0
  -10.1076   36.1143  -11.1877 O   0  5  0  0  0  0  0  0  0  0  0  0
   -5.9797   32.6984  -15.9171 O   0  5  0  0  0  0  0  0  0  0  0  0
   -9.6941   37.4306  -13.1842 O   0  0  0  0  0  0  0  0  0  0  0  0
   -4.6686   31.5966  -14.1491 O   0  0  0  0  0  0  0  0  0  0  0  0
   -9.3537   33.7752  -12.2591 C   0  0  0  0  0  0  0  0  0  0  0  0
   -5.8447   34.0907  -12.3699 C   0  0  0  0  0  0  0  0  0  0  0  0
   -9.1123   34.9227  -13.0845 O   0  0  0  0  0  0  0  0  0  0  0  0
   -5.8334   34.0550  -13.8250 O   0  0  0  0  0  0  0  0  0  0  0  0
   -9.3490   32.5077  -13.1070 C   0  0  1  0  0  0  0  0  0  0  0  0
   -5.6605   35.6020  -11.9655 C   0  0  1  0  0  0  0  0  0  0  0  0
  -10.5338   32.3549  -13.6121 O   0  0  0  0  0  0  0  0  0  0  0  0
   -4.6409   35.9982  -12.6117 O   0  0  0  0  0  0  0  0  0  0  0  0
   -8.3869   32.5727  -14.2709 C   0  0  1  0  0  0  0  0  0  0  0  0
   -6.7896   36.4720  -12.5530 C   0  0  1  0  0  0  0  0  0  0  0  0
   -7.2747   31.8872  -13.8947 O   0  0  0  0  0  0  0  0  0  0  0  0
   -7.7141   36.7610  -11.6291 O   0  0  0  0  0  0  0  0  0  0  0  0
   -9.1390   31.8055  -15.4137 C   0  0  1  0  0  0  0  0  0  0  0  0
   -6.1284   37.7564  -13.1029 C   0  0  1  0  0  0  0  0  0  0  0  0
   -8.5952   30.4272  -15.5476 O   0  0  0  0  0  0  0  0  0  0  0  0
   -6.3391   38.9006  -12.1587 O   0  0  0  0  0  0  0  0  0  0  0  0
  -10.3904   31.7818  -15.0833 C   0  0  2  0  0  0  0  0  0  0  0  0
   -4.8716   37.4795  -13.1721 C   0  0  2  0  0  0  0  0  0  0  0  0
  -11.4978   36.1340  -18.0249 N   0  0  0  0  0  0  0  0  0  0  0  0
  -10.3979   35.9653  -17.2383 C   0  0  0  0  0  0  0  0  0  0  0  0
  -10.2058   34.8101  -16.5242 N   0  0  0  0  0  0  0  0  0  0  0  0
  -11.1412   33.8158  -16.6065 C   0  0  0  0  0  0  0  0  0  0  0  0
  -12.2317   33.9700  -17.3703 C   0  0  0  0  0  0  0  0  0  0  0  0
  -12.4145   35.1433  -18.1002 C   0  0  0  0  0  0  0  0  0  0  0  0
  -13.5115   35.4290  -18.9367 N   0  0  0  0  0  0  0  0  0  0  0  0
  -12.9706   32.8448  -17.2684 N   0  0  0  0  0  0  0  0  0  0  0  0
  -12.3230   31.9936  -16.4227 C   0  0  0  0  0  0  0  0  0  0  0  0
  -11.1870   32.5828  -16.0273 N   0  0  0  0  0  0  0  0  0  0  0  0
   -5.7255   36.9080  -18.2774 N   0  0  0  0  0  0  0  0  0  0  0  0
   -6.6194   36.7045  -17.2745 C   0  0  0  0  0  0  0  0  0  0  0  0
   -6.2326   36.8924  -15.9774 N   0  0  0  0  0  0  0  0  0  0  0  0
   -4.9623   37.2862  -15.6914 C   0  0  0  0  0  0  0  0  0  0  0  0
   -4.0712   37.4944  -16.6818 C   0  0  0  0  0  0  0  0  0  0  0  0
   -4.4725   37.2969  -17.9998 C   0  0  0  0  0  0  0  0  0  0  0  0
   -3.6910   37.4403  -19.2014 N   0  0  0  0  0  0  0  0  0  0  0  0
   -2.9049   37.8711  -16.1047 N   0  0  0  0  0  0  0  0  0  0  0  0
   -3.0861   37.8985  -14.7533 C   0  0  0  0  0  0  0  0  0  0  0  0
   -4.3622   37.5383  -14.5082 N   0  0  0  0  0  0  0  0  0  0  0  0
  1  3  1  1  0  0  0
  1  5  2  0  0  0  0
  1  9  1  0  0  0  0
  1 18  1  0  0  0  0
  2  4  1  6  0  0  0
  2  6  2  0  0  0  0
  2 10  1  0  0  0  0
  2 17  1  0  0  0  0
  7  9  1  0  0  0  0
  8 10  1  0  0  0  0
 11  7  1  6  0  0  0
 11 13  1  0  0  0  0
 11 15  1  0  0  0  0
 12  8  1  6  0  0  0
 12 14  1  0  0  0  0
 12 16  1  0  0  0  0
 13 23  1  0  0  0  0
 14 24  1  0  0  0  0
 15 17  1  1  0  0  0
 15 19  1  0  0  0  0
 16 18  1  1  0  0  0
 16 20  1  0  0  0  0
 19 21  1  1  0  0  0
 19 23  1  0  0  0  0
 20 22  1  1  0  0  0
 20 24  1  0  0  0  0
 23 34  1  6  0  0  0
 24 44  1  6  0  0  0
 25 26  2  0  0  0  0
 25 30  1  0  0  0  0
 26 27  1  0  0  0  0
 27 28  2  0  0  0  0
 28 29  1  0  0  0  0
 28 34  1  0  0  0  0
 29 30  2  0  0  0  0
 29 32  1  0  0  0  0
 30 31  1  0  0  0  0
 32 33  2  0  0  0  0
 33 34  1  0  0  0  0
 35 36  2  0  0  0  0
 35 40  1  0  0  0  0
 36 37  1  0  0  0  0
 37 38  2  0  0  0  0
 38 39  1  0  0  0  0
 38 44  1  0  0  0  0
 39 40  2  0  0  0  0
 39 42  1  0  0  0  0
 40 41  1  0  0  0  0
 42 43  2  0  0  0  0
 43 44  1  0  0  0  0
M  CHG  2   3  -1   4  -1
M  END
>  <CHROM.1>
72.21592693,89.48360657,-7.81433787,34.97050304,-14.81417462,-3.11375919
-0.54024853,-1.11057482

>  <Name>
ligand

>  <RI>
0

>  <Rbt.Current_Directory>
/home/itssahil/PROJECTS/Mol_Feturizer/New_Systems/rnas/4QLM

>  <Rbt.Executable>
rbdock ($Id: //depot/dev/client3/rdock/2013.1/src/exe/rbdock.cxx#4 $)

>  <Rbt.Library>
libRbt.so (2013.1, Build901 2013/11/27)

>  <Rbt.Parameter_File>
/export/apps/rDock/src/rDock_2013.1_src/data/scripts/dock_solv.prm

>  <Rbt.Receptor>
prm/pocket_docking_4.prm

>  <SCORE>
-9.12427

>  <SCORE.INTER>
-7.79389

>  <SCORE.INTER.CONST>
1

>  <SCORE.INTER.POLAR>
0

>  <SCORE.INTER.ROT>
2

>  <SCORE.INTER.SOLV>
23.8501

>  <SCORE.INTER.VDW>
-18.0793

>  <SCORE.INTER.norm>
-0.177134

>  <SCORE.INTRA>
-1.33037

>  <SCORE.INTRA.DIHEDRAL>
0.01137

>  <SCORE.INTRA.DIHEDRAL.0>
2.32994

>  <SCORE.INTRA.POLAR>
0

>  <SCORE.INTRA.POLAR.0>
0

>  <SCORE.INTRA.REPUL>
0

>  <SCORE.INTRA.REPUL.0>
0

>  <SCORE.INTRA.SOLV>
0.0151229

>  <SCORE.INTRA.SOLV.lig_0>
-117.703

>  <SCORE.INTRA.VDW>
-1.34362

>  <SCORE.INTRA.VDW.0>
-1.59997

>  <SCORE.INTRA.norm>
-0.0302357

>  <SCORE.RESTR>
0

>  <SCORE.RESTR.CAVITY>
0

>  <SCORE.RESTR.norm>
0

>  <SCORE.SYSTEM>
0

>  <SCORE.SYSTEM.CONST>
0

>  <SCORE.SYSTEM.DIHEDRAL>
0

>  <SCORE.SYSTEM.SOLV>
0

>  <SCORE.SYSTEM.norm>
0

>  <SCORE.heavy>
44

>  <SCORE.norm>
-0.20737

>  <RMSD>
4.749

$$$$
ligand
 OpenBabel11021811513D
libRbt.so/2013.1/901 2013/11/27
 44 50  0  0  0  0  0  0  0  0999 V2000
   -9.1975   36.2296  -12.2503 P   0  0  2  0  0  0  0  0  0  0  0  0
   -5.8858   32.5391  -14.3994 P   0  0  1  0  0  0  0  0  0  0  0  0
  -10.1659   36.0043  -11.0919 O   0  5  0  0  0  0  0  0  0  0  0  0
   -5.9926   32.7443  -15.8909 O   0  5  0  0  0  0  0  0  0  0  0  0
   -9.7706   37.3674  -13.0605 O   0  0  0  0  0  0  0  0  0  0  0  0
   -4.6664   31.6238  -14.1461 O   0  0  0  0  0  0  0  0  0  0  0  0
   -9.3804   33.6986  -12.2117 C   0  0  0  0  0  0  0  0  0  0  0  0
   -5.8760   34.0640  -12.3154 C   0  0  0  0  0  0  0  0  0  0  0  0
   -9.1547   34.8661  -13.0131 O   0  0  0  0  0  0  0  0  0  0  0  0
   -5.8644   34.0588  -13.7709 O   0  0  0  0  0  0  0  0  0  0  0  0
   -9.3586   32.4492  -13.0859 C   0  0  1  0  0  0  0  0  0  0  0  0
   -5.7124   35.5689  -11.8795 C   0  0  1  0  0  0  0  0  0  0  0  0
  -10.5413   32.2908  -13.5943 O   0  0  0  0  0  0  0  0  0  0  0  0
   -4.6984   35.9922  -12.5171 O   0  0  0  0  0  0  0  0  0  0  0  0
   -8.3976   32.5515  -14.2480 C   0  0  1  0  0  0  0  0  0  0  0  0
   -6.8533   36.4355  -12.4489 C   0  0  1  0  0  0  0  0  0  0  0  0
   -7.2762   31.8736  -13.8861 O   0  0  0  0  0  0  0  0  0  0  0  0
   -7.7815   36.6926  -11.5193 O   0  0  0  0  0  0  0  0  0  0  0  0
   -9.1393   31.7982  -15.4067 C   0  0  1  0  0  0  0  0  0  0  0  0
   -6.2096   37.7399  -12.9718 C   0  0  1  0  0  0  0  0  0  0  0  0
   -8.5769   30.4305  -15.5693 O   0  0  0  0  0  0  0  0  0  0  0  0
   -6.4358   38.8612  -12.0040 O   0  0  0  0  0  0  0  0  0  0  0  0
  -10.3903   31.7506  -15.0772 C   0  0  2  0  0  0  0  0  0  0  0  0
   -4.9492   37.4817  -13.0466 C   0  0  2  0  0  0  0  0  0  0  0  0
  -11.4733   36.0826  -18.0575 N   0  0  0  0  0  0  0  0  0  0  0  0
  -10.3485   35.8918  -17.3120 C   0  0  0  0  0  0  0  0  0  0  0  0
  -10.1656   34.7441  -16.5834 N   0  0  0  0  0  0  0  0  0  0  0  0
  -11.1353   33.7802  -16.6090 C   0  0  0  0  0  0  0  0  0  0  0  0
  -12.2502   33.9566  -17.3318 C   0  0  0  0  0  0  0  0  0  0  0  0
  -12.4239   35.1217  -18.0768 C   0  0  0  0  0  0  0  0  0  0  0  0
  -13.5439   35.4284  -18.8746 N   0  0  0  0  0  0  0  0  0  0  0  0
  -13.0205   32.8587  -17.1786 N   0  0  0  0  0  0  0  0  0  0  0  0
  -12.3674   32.0020  -16.3427 C   0  0  0  0  0  0  0  0  0  0  0  0
  -11.1978   32.5602  -16.0043 N   0  0  0  0  0  0  0  0  0  0  0  0
   -5.4573   36.2689  -18.0855 N   0  0  0  0  0  0  0  0  0  0  0  0
   -6.2826   35.8985  -17.0716 C   0  0  0  0  0  0  0  0  0  0  0  0
   -6.0032   36.2966  -15.7945 N   0  0  0  0  0  0  0  0  0  0  0  0
   -4.9090   37.0636  -15.5398 C   0  0  0  0  0  0  0  0  0  0  0  0
   -4.0882   37.4387  -16.5416 C   0  0  0  0  0  0  0  0  0  0  0  0
   -4.3780   37.0256  -17.8388 C   0  0  0  0  0  0  0  0  0  0  0  0
   -3.6375   37.2897  -19.0458 N   0  0  0  0  0  0  0  0  0  0  0  0
   -3.0969   38.1832  -15.9958 N   0  0  0  0  0  0  0  0  0  0  0  0
   -3.3164   38.2682  -14.6525 C   0  0  0  0  0  0  0  0  0  0  0  0
   -4.4408   37.5753  -14.3810 N   0  0  0  0  0  0  0  0  0  0  0  0
  1  3  1  1  0  0  0
  1  5  2  0  0  0  0
  1  9  1  0  0  0  0
  1 18  1  0  0  0  0
  2  4  1  6  0  0  0
  2  6  2  0  0  0  0
  2 10  1  0  0  0  0
  2 17  1  0  0  0  0
  7  9  1  0  0  0  0
  8 10  1  0  0  0  0
 11  7  1  6  0  0  0
 11 13  1  0  0  0  0
 11 15  1  0  0  0  0
 12  8  1  6  0  0  0
 12 14  1  0  0  0  0
 12 16  1  0  0  0  0
 13 23  1  0  0  0  0
 14 24  1  0  0  0  0
 15 17  1  1  0  0  0
 15 19  1  0  0  0  0
 16 18  1  1  0  0  0
 16 20  1  0  0  0  0
 19 21  1  1  0  0  0
 19 23  1  0  0  0  0
 20 22  1  1  0  0  0
 20 24  1  0  0  0  0
 23 34  1  6  0  0  0
 24 44  1  6  0  0  0
 25 26  2  0  0  0  0
 25 30  1  0  0  0  0
 26 27  1  0  0  0  0
 27 28  2  0  0  0  0
 28 29  1  0  0  0  0
 28 34  1  0  0  0  0
 29 30  2  0  0  0  0
 29 32  1  0  0  0  0
 30 31  1  0  0  0  0
 32 33  2  0  0  0  0
 33 34  1  0  0  0  0
 35 36  2  0  0  0  0
 35 40  1  0  0  0  0
 36 37  1  0  0  0  0
 37 38  2  0  0  0  0
 38 39  1  0  0  0  0
 38 44  1  0  0  0  0
 39 40  2  0  0  0  0
 39 42  1  0  0  0  0
 40 41  1  0  0  0  0
 42 43  2  0  0  0  0
 43 44  1  0  0  0  0
M  CHG  2   3  -1   4  -1
M  END
>  <CHROM.1>
76.41014304,72.28911726,-7.82608348,34.90698812,-14.74399671,3.05234717,-0.53511715
-1.29866318

>  <Name>
ligand

>  <RI>
0

>  <Rbt.Current_Directory>
/home/itssahil/PROJECTS/Mol_Feturizer/New_Systems/rnas/4QLM

>  <Rbt.Executable>
rbdock ($Id: //depot/dev/client3/rdock/2013.1/src/exe/rbdock.cxx#4 $)

>  <Rbt.Library>
libRbt.so (2013.1, Build901 2013/11/27)

>  <Rbt.Parameter_File>
/export/apps/rDock/src/rDock_2013.1_src/data/scripts/dock_solv.prm

>  <Rbt.Receptor>
prm/pocket_docking_4.prm

>  <SCORE>
-9.41561

>  <SCORE.INTER>
-7.63263

>  <SCORE.INTER.CONST>
1

>  <SCORE.INTER.POLAR>
0

>  <SCORE.INTER.ROT>
2

>  <SCORE.INTER.SOLV>
22.453

>  <SCORE.INTER.VDW>
-17.5061

>  <SCORE.INTER.norm>
-0.173469

>  <SCORE.INTRA>
-1.78298

>  <SCORE.INTRA.DIHEDRAL>
-0.00841305

>  <SCORE.INTRA.DIHEDRAL.0>
2.32994

>  <SCORE.INTRA.POLAR>
0

>  <SCORE.INTRA.POLAR.0>
0

>  <SCORE.INTRA.REPUL>
0

>  <SCORE.INTRA.REPUL.0>
0

>  <SCORE.INTRA.SOLV>
0.445165

>  <SCORE.INTRA.SOLV.lig_0>
-117.703

>  <SCORE.INTRA.VDW>
-2.00136

>  <SCORE.INTRA.VDW.0>
-1.59997

>  <SCORE.INTRA.norm>
-0.0405223

>  <SCORE.RESTR>
0

>  <SCORE.RESTR.CAVITY>
0

>  <SCORE.RESTR.norm>
0

>  <SCORE.SYSTEM>
0

>  <SCORE.SYSTEM.CONST>
0

>  <SCORE.SYSTEM.DIHEDRAL>
0

>  <SCORE.SYSTEM.SOLV>
0

>  <SCORE.SYSTEM.norm>
0

>  <SCORE.heavy>
44

>  <SCORE.norm>
-0.213991

>  <RMSD>
4.768

$$$$
ligand
 OpenBabel11021811513D
libRbt.so/2013.1/901 2013/11/27
 44 50  0  0  0  0  0  0  0  0999 V2000
  -10.1366   36.1348  -12.6291 P   0  0  2  0  0  0  0  0  0  0  0  0
   -6.2945   32.7507  -14.3586 P   0  0  1  0  0  0  0  0  0  0  0  0
  -11.1570   35.8519  -11.5294 O   0  5  0  0  0  0  0  0  0  0  0  0
   -6.3133   32.8789  -15.8624 O   0  5  0  0  0  0  0  0  0  0  0  0
  -10.7692   37.1656  -13.5328 O   0  0  0  0  0  0  0  0  0  0  0  0
   -5.0046   31.9895  -13.9769 O   0  0  0  0  0  0  0  0  0  0  0  0
  -10.0454   33.6031  -12.4754 C   0  0  0  0  0  0  0  0  0  0  0  0
   -6.6034   34.3544  -12.3584 C   0  0  0  0  0  0  0  0  0  0  0  0
   -9.8899   34.7535  -13.3174 O   0  0  0  0  0  0  0  0  0  0  0  0
   -6.4847   34.2886  -13.8076 O   0  0  0  0  0  0  0  0  0  0  0  0
   -9.8237   32.3280  -13.2820 C   0  0  1  0  0  0  0  0  0  0  0  0
   -6.6369   35.8854  -11.9888 C   0  0  1  0  0  0  0  0  0  0  0  0
  -10.9417   32.0165  -13.8611 O   0  0  0  0  0  0  0  0  0  0  0  0
   -5.6310   36.3922  -12.5764 O   0  0  0  0  0  0  0  0  0  0  0  0
   -8.7970   32.4878  -14.3796 C   0  0  1  0  0  0  0  0  0  0  0  0
   -7.8205   36.5936  -12.6777 C   0  0  1  0  0  0  0  0  0  0  0  0
   -7.6380   31.9559  -13.9083 O   0  0  0  0  0  0  0  0  0  0  0  0
   -8.8368   36.7843  -11.8276 O   0  0  0  0  0  0  0  0  0  0  0  0
   -9.3654   31.6074  -15.5466 C   0  0  1  0  0  0  0  0  0  0  0  0
   -7.2860   37.9385  -13.2206 C   0  0  1  0  0  0  0  0  0  0  0  0
   -8.6470   30.3057  -15.6013 O   0  0  0  0  0  0  0  0  0  0  0  0
   -7.7032   39.0676  -12.3282 O   0  0  0  0  0  0  0  0  0  0  0  0
  -10.6245   31.4340  -15.3010 C   0  0  2  0  0  0  0  0  0  0  0  0
   -6.0029   37.8202  -13.1962 C   0  0  2  0  0  0  0  0  0  0  0  0
  -11.8531   35.4108  -18.6917 N   0  0  0  0  0  0  0  0  0  0  0  0
  -10.7454   35.3554  -17.8998 C   0  0  0  0  0  0  0  0  0  0  0  0
  -10.5215   34.2901  -17.0652 N   0  0  0  0  0  0  0  0  0  0  0  0
  -11.4326   33.2707  -17.0314 C   0  0  0  0  0  0  0  0  0  0  0  0
  -12.5303   33.3144  -17.7991 C   0  0  0  0  0  0  0  0  0  0  0  0
  -12.7454   34.3961  -18.6514 C   0  0  0  0  0  0  0  0  0  0  0  0
  -13.8533   34.5624  -19.5058 N   0  0  0  0  0  0  0  0  0  0  0  0
  -13.2408   32.1898  -17.5695 N   0  0  0  0  0  0  0  0  0  0  0  0
  -12.5683   31.4518  -16.6408 C   0  0  0  0  0  0  0  0  0  0  0  0
  -11.4452   32.1077  -16.3207 N   0  0  0  0  0  0  0  0  0  0  0  0
   -6.0105   36.3510  -18.1923 N   0  0  0  0  0  0  0  0  0  0  0  0
   -6.8636   35.9351  -17.2199 C   0  0  0  0  0  0  0  0  0  0  0  0
   -6.7220   36.4139  -15.9479 N   0  0  0  0  0  0  0  0  0  0  0  0
   -5.7368   37.3058  -15.6573 C   0  0  0  0  0  0  0  0  0  0  0  0
   -4.8895   37.7265  -16.6182 C   0  0  0  0  0  0  0  0  0  0  0  0
   -5.0384   37.2306  -17.9102 C   0  0  0  0  0  0  0  0  0  0  0  0
   -4.2440   37.5237  -19.0755 N   0  0  0  0  0  0  0  0  0  0  0  0
   -4.0252   38.5969  -16.0434 N   0  0  0  0  0  0  0  0  0  0  0  0
   -4.3499   38.7131  -14.7239 C   0  0  0  0  0  0  0  0  0  0  0  0
   -5.4113   37.9133  -14.4959 N   0  0  0  0  0  0  0  0  0  0  0  0
  1  3  1  1  0  0  0
  1  5  2  0  0  0  0
  1  9  1  0  0  0  0
  1 18  1  0  0  0  0
  2  4  1  6  0  0  0
  2  6  2  0  0  0  0
  2 10  1  0  0  0  0
  2 17  1  0  0  0  0
  7  9  1  0  0  0  0
  8 10  1  0  0  0  0
 11  7  1  6  0  0  0
 11 13  1  0  0  0  0
 11 15  1  0  0  0  0
 12  8  1  6  0  0  0
 12 14  1  0  0  0  0
 12 16  1  0  0  0  0
 13 23  1  0  0  0  0
 14 24  1  0  0  0  0
 15 17  1  1  0  0  0
 15 19  1  0  0  0  0
 16 18  1  1  0  0  0
 16 20  1  0  0  0  0
 19 21  1  1  0  0  0
 19 23  1  0  0  0  0
 20 22  1  1  0  0  0
 20 24  1  0  0  0  0
 23 34  1  6  0  0  0
 24 44  1  6  0  0  0
 25 26  2  0  0  0  0
 25 30  1  0  0  0  0
 26 27  1  0  0  0  0
 27 28  2  0  0  0  0
 28 29  1  0  0  0  0
 28 34  1  0  0  0  0
 29 30  2  0  0  0  0
 29 32  1  0  0  0  0
 30 31  1  0  0  0  0
 32 33  2  0  0  0  0
 33 34  1  0  0  0  0
 35 36  2  0  0  0  0
 35 40  1  0  0  0  0
 36 37  1  0  0  0  0
 37 38  2  0  0  0  0
 38 39  1  0  0  0  0
 38 44  1  0  0  0  0
 39 40  2  0  0  0  0
 39 42  1  0  0  0  0
 40 41  1  0  0  0  0
 42 43  2  0  0  0  0
 43 44  1  0  0  0  0
M  CHG  2   3  -1   4  -1
M  END
>  <CHROM.1>
80.86939979,72.46573918,-8.44389699,34.86494684,-14.96243647,0.15495538,0.66127398
1.75056160

>  <Name>
ligand

>  <RI>
0

>  <Rbt.Current_Directory>
/home/itssahil/PROJECTS/Mol_Feturizer/New_Systems/rnas/4QLM

>  <Rbt.Executable>
rbdock ($Id: //depot/dev/client3/rdock/2013.1/src/exe/rbdock.cxx#4 $)

>  <Rbt.Library>
libRbt.so (2013.1, Build901 2013/11/27)

>  <Rbt.Parameter_File>
/export/apps/rDock/src/rDock_2013.1_src/data/scripts/dock_solv.prm

>  <Rbt.Receptor>
prm/pocket_docking_6.prm

>  <SCORE>
-10.9573

>  <SCORE.INTER>
-9.22132

>  <SCORE.INTER.CONST>
1

>  <SCORE.INTER.POLAR>
0

>  <SCORE.INTER.ROT>
2

>  <SCORE.INTER.SOLV>
22.0633

>  <SCORE.INTER.VDW>
-18.4353

>  <SCORE.INTER.norm>
-0.209575

>  <SCORE.INTRA>
-1.73597

>  <SCORE.INTRA.DIHEDRAL>
-0.0201803

>  <SCORE.INTRA.DIHEDRAL.0>
2.32994

>  <SCORE.INTRA.POLAR>
0

>  <SCORE.INTRA.POLAR.0>
0

>  <SCORE.INTRA.REPUL>
0

>  <SCORE.INTRA.REPUL.0>
0

>  <SCORE.INTRA.SOLV>
0.441557

>  <SCORE.INTRA.SOLV.lig_0>
-117.703

>  <SCORE.INTRA.VDW>
-1.94666

>  <SCORE.INTRA.VDW.0>
-1.59997

>  <SCORE.INTRA.norm>
-0.0394538

>  <SCORE.RESTR>
0

>  <SCORE.RESTR.CAVITY>
0

>  <SCORE.RESTR.norm>
0

>  <SCORE.SYSTEM>
0

>  <SCORE.SYSTEM.CONST>
0

>  <SCORE.SYSTEM.DIHEDRAL>
0

>  <SCORE.SYSTEM.SOLV>
0

>  <SCORE.SYSTEM.norm>
0

>  <SCORE.heavy>
44

>  <SCORE.norm>
-0.249029

>  <RMSD>
4.770

$$$$
ligand
 OpenBabel11021811513D
libRbt.so/2013.1/901 2013/11/27
 44 50  0  0  0  0  0  0  0  0999 V2000
   -6.7071   34.2681  -17.6426 P   0  0  2  0  0  0  0  0  0  0  0  0
   -7.8806   38.1017  -14.0188 P   0  0  1  0  0  0  0  0  0  0  0  0
   -7.4208   34.0373  -18.9722 O   0  5  0  0  0  0  0  0  0  0  0  0
   -7.8068   37.4063  -12.6813 O   0  5  0  0  0  0  0  0  0  0  0  0
   -6.1212   32.9348  -17.2444 O   0  0  0  0  0  0  0  0  0  0  0  0
   -7.9262   39.6223  -13.7460 O   0  0  0  0  0  0  0  0  0  0  0  0
   -8.8846   35.5223  -17.2870 C   0  0  0  0  0  0  0  0  0  0  0  0
   -6.5796   37.9775  -16.2459 C   0  0  0  0  0  0  0  0  0  0  0  0
   -7.8165   34.7887  -16.6727 O   0  0  0  0  0  0  0  0  0  0  0  0
   -6.6094   37.4998  -14.8713 O   0  0  0  0  0  0  0  0  0  0  0  0
   -9.9150   35.9271  -16.2382 C   0  0  1  0  0  0  0  0  0  0  0  0
   -5.2432   37.4281  -16.8736 C   0  0  1  0  0  0  0  0  0  0  0  0
  -10.7337   34.9349  -16.0718 O   0  0  0  0  0  0  0  0  0  0  0  0
   -4.3295   37.7609  -16.0561 O   0  0  0  0  0  0  0  0  0  0  0  0
   -9.3064   36.2180  -14.8857 C   0  0  1  0  0  0  0  0  0  0  0  0
   -5.1996   35.8880  -16.8177 C   0  0  1  0  0  0  0  0  0  0  0  0
   -9.2112   37.5705  -14.7850 O   0  0  0  0  0  0  0  0  0  0  0  0
   -5.5003   35.3479  -18.0050 O   0  0  0  0  0  0  0  0  0  0  0  0
  -10.3742   35.6705  -13.8758 C   0  0  1  0  0  0  0  0  0  0  0  0
   -3.7737   35.4942  -16.3694 C   0  0  1  0  0  0  0  0  0  0  0  0
  -11.1760   36.7941  -13.3208 O   0  0  0  0  0  0  0  0  0  0  0  0
   -2.9632   35.0340  -17.5427 O   0  0  0  0  0  0  0  0  0  0  0  0
  -11.1226   34.8472  -14.5374 C   0  0  2  0  0  0  0  0  0  0  0  0
   -3.2647   36.5774  -15.8913 C   0  0  2  0  0  0  0  0  0  0  0  0
   -9.2399   29.8231  -14.7258 N   0  0  0  0  0  0  0  0  0  0  0  0
   -8.9861   30.8017  -15.6396 C   0  0  0  0  0  0  0  0  0  0  0  0
   -9.5162   32.0590  -15.4996 N   0  0  0  0  0  0  0  0  0  0  0  0
  -10.3148   32.3263  -14.4222 C   0  0  0  0  0  0  0  0  0  0  0  0
  -10.5794   31.3721  -13.5189 C   0  0  0  0  0  0  0  0  0  0  0  0
  -10.0291   30.0998  -13.6636 C   0  0  0  0  0  0  0  0  0  0  0  0
  -10.2277   29.0133  -12.7888 N   0  0  0  0  0  0  0  0  0  0  0  0
  -11.3789   31.9084  -12.5726 N   0  0  0  0  0  0  0  0  0  0  0  0
  -11.6113   33.2093  -12.9088 C   0  0  0  0  0  0  0  0  0  0  0  0
  -10.9426   33.4738  -14.0388 N   0  0  0  0  0  0  0  0  0  0  0  0
   -4.1116   38.0943  -10.9819 N   0  0  0  0  0  0  0  0  0  0  0  0
   -4.7503   38.5425  -12.0944 C   0  0  0  0  0  0  0  0  0  0  0  0
   -4.4028   38.0447  -13.3186 N   0  0  0  0  0  0  0  0  0  0  0  0
   -3.4276   37.1021  -13.4233 C   0  0  0  0  0  0  0  0  0  0  0  0
   -2.7927   36.6494  -12.3233 C   0  0  0  0  0  0  0  0  0  0  0  0
   -3.1501   37.1647  -11.0808 C   0  0  0  0  0  0  0  0  0  0  0  0
   -2.5981   36.8440   -9.7895 N   0  0  0  0  0  0  0  0  0  0  0  0
   -1.8830   35.7315  -12.7296 N   0  0  0  0  0  0  0  0  0  0  0  0
   -1.9664   35.6186  -14.0861 C   0  0  0  0  0  0  0  0  0  0  0  0
   -2.9263   36.4678  -14.5051 N   0  0  0  0  0  0  0  0  0  0  0  0
  1  3  1  6  0  0  0
  1  5  2  0  0  0  0
  1  9  1  0  0  0  0
  1 18  1  0  0  0  0
  2  4  1  1  0  0  0
  2  6  2  0  0  0  0
  2 10  1  0  0  0  0
  2 17  1  0  0  0  0
  7  9  1  0  0  0  0
  8 10  1  0  0  0  0
 11  7  1  6  0  0  0
 11 13  1  0  0  0  0
 11 15  1  0  0  0  0
 12  8  1  1  0  0  0
 12 14  1  0  0  0  0
 12 16  1  0  0  0  0
 13 23  1  0  0  0  0
 14 24  1  0  0  0  0
 15 17  1  1  0  0  0
 15 19  1  0  0  0  0
 16 18  1  6  0  0  0
 16 20  1  0  0  0  0
 19 21  1  6  0  0  0
 19 23  1  0  0  0  0
 20 22  1  6  0  0  0
 20 24  1  0  0  0  0
 23 34  1  1  0  0  0
 24 44  1  1  0  0  0
 25 26  2  0  0  0  0
 25 30  1  0  0  0  0
 26 27  1  0  0  0  0
 27 28  2  0  0  0  0
 28 29  1  0  0  0  0
 28 34  1  0  0  0  0
 29 30  2  0  0  0  0
 29 32  1  0  0  0  0
 30 31  1  0  0  0  0
 32 33  2  0  0  0  0
 33 34  1  0  0  0  0
 35 36  2  0  0  0  0
 35 40  1  0  0  0  0
 36 37  1  0  0  0  0
 37 38  2  0  0  0  0
 38 39  1  0  0  0  0
 38 44  1  0  0  0  0
 39 40  2  0  0  0  0
 39 42  1  0  0  0  0
 40 41  1  0  0  0  0
 42 43  2  0  0  0  0
 43 44  1  0  0  0  0
M  CHG  2   3  -1   4  -1
M  END
>  <CHROM.1>
15.95419129,5.65754095,-7.08917624,35.37433850,-14.78789527,-2.67663109,0.43815806
0.86231983

>  <Name>
ligand

>  <RI>
0

>  <Rbt.Current_Directory>
/home/itssahil/PROJECTS/Mol_Feturizer/New_Systems/rnas/4QLM

>  <Rbt.Executable>
rbdock ($Id: //depot/dev/client3/rdock/2013.1/src/exe/rbdock.cxx#4 $)

>  <Rbt.Library>
libRbt.so (2013.1, Build901 2013/11/27)

>  <Rbt.Parameter_File>
/export/apps/rDock/src/rDock_2013.1_src/data/scripts/dock_solv.prm

>  <Rbt.Receptor>
prm/pocket_docking_4.prm

>  <SCORE>
-2.84137

>  <SCORE.INTER>
-1.85159

>  <SCORE.INTER.CONST>
1

>  <SCORE.INTER.POLAR>
0

>  <SCORE.INTER.ROT>
2

>  <SCORE.INTER.SOLV>
26.4988

>  <SCORE.INTER.VDW>
-15.0007

>  <SCORE.INTER.norm>
-0.0420816

>  <SCORE.INTRA>
-0.994074

>  <SCORE.INTRA.DIHEDRAL>
0.150411

>  <SCORE.INTRA.DIHEDRAL.0>
2.32994

>  <SCORE.INTRA.POLAR>
0

>  <SCORE.INTRA.POLAR.0>
0

>  <SCORE.INTRA.REPUL>
0

>  <SCORE.INTRA.REPUL.0>
0

>  <SCORE.INTRA.SOLV>
1.15873

>  <SCORE.INTRA.SOLV.lig_0>
-117.703

>  <SCORE.INTRA.VDW>
-1.64864

>  <SCORE.INTRA.VDW.0>
-1.59997

>  <SCORE.INTRA.norm>
-0.0225926

>  <SCORE.RESTR>
0.00429239

>  <SCORE.RESTR.CAVITY>
0.00429239

>  <SCORE.RESTR.norm>
9.75543e-05

>  <SCORE.SYSTEM>
0

>  <SCORE.SYSTEM.CONST>
0

>  <SCORE.SYSTEM.DIHEDRAL>
0

>  <SCORE.SYSTEM.SOLV>
0

>  <SCORE.SYSTEM.norm>
0

>  <SCORE.heavy>
44

>  <SCORE.norm>
-0.0645766

>  <RMSD>
4.784

$$$$
ligand
 OpenBabel11021811513D
libRbt.so/2013.1/901 2013/11/27
 44 50  0  0  0  0  0  0  0  0999 V2000
  -10.1888   36.1159  -12.6702 P   0  0  2  0  0  0  0  0  0  0  0  0
   -6.3482   32.7455  -14.4296 P   0  0  1  0  0  0  0  0  0  0  0  0
  -11.2075   35.8249  -11.5712 O   0  5  0  0  0  0  0  0  0  0  0  0
   -6.3692   32.8845  -15.9323 O   0  5  0  0  0  0  0  0  0  0  0  0
  -10.8230   37.1530  -13.5656 O   0  0  0  0  0  0  0  0  0  0  0  0
   -5.0575   31.9820  -14.0552 O   0  0  0  0  0  0  0  0  0  0  0  0
  -10.0966   33.5833  -12.5349 C   0  0  0  0  0  0  0  0  0  0  0  0
   -6.6547   34.3348  -12.4174 C   0  0  0  0  0  0  0  0  0  0  0  0
   -9.9427   34.7397  -13.3688 O   0  0  0  0  0  0  0  0  0  0  0  0
   -6.5380   34.2794  -13.8673 O   0  0  0  0  0  0  0  0  0  0  0  0
   -9.8757   32.3141  -13.3508 C   0  0  1  0  0  0  0  0  0  0  0  0
   -6.6881   35.8631  -12.0368 C   0  0  1  0  0  0  0  0  0  0  0  0
  -10.9944   32.0064  -13.9306 O   0  0  0  0  0  0  0  0  0  0  0  0
   -5.6832   36.3744  -12.6223 O   0  0  0  0  0  0  0  0  0  0  0  0
   -8.8506   32.4820  -14.4487 C   0  0  1  0  0  0  0  0  0  0  0  0
   -7.8729   36.5758  -12.7189 C   0  0  1  0  0  0  0  0  0  0  0  0
   -7.6908   31.9471  -13.9830 O   0  0  0  0  0  0  0  0  0  0  0  0
   -8.8881   36.7601  -11.8660 O   0  0  0  0  0  0  0  0  0  0  0  0
   -9.4205   31.6099  -15.6212 C   0  0  1  0  0  0  0  0  0  0  0  0
   -7.3396   37.9247  -13.2530 C   0  0  1  0  0  0  0  0  0  0  0  0
   -8.7018   30.3088  -15.6863 O   0  0  0  0  0  0  0  0  0  0  0  0
   -7.7559   39.0472  -12.3519 O   0  0  0  0  0  0  0  0  0  0  0  0
  -10.6791   31.4342  -15.3751 C   0  0  2  0  0  0  0  0  0  0  0  0
   -6.0564   37.8067  -13.2312 C   0  0  2  0  0  0  0  0  0  0  0  0
  -11.9551   35.4685  -18.6793 N   0  0  0  0  0  0  0  0  0  0  0  0
  -10.8575   35.4184  -17.8733 C   0  0  0  0  0  0  0  0  0  0  0  0
  -10.6198   34.3371  -17.0634 N   0  0  0  0  0  0  0  0  0  0  0  0
  -11.5067   33.2961  -17.0690 C   0  0  0  0  0  0  0  0  0  0  0  0
  -12.5946   33.3342  -17.8510 C   0  0  0  0  0  0  0  0  0  0  0  0
  -12.8236   34.4325  -18.6780 C   0  0  0  0  0  0  0  0  0  0  0  0
  -13.9232   34.5951  -19.5437 N   0  0  0  0  0  0  0  0  0  0  0  0
  -13.2812   32.1877  -17.6606 N   0  0  0  0  0  0  0  0  0  0  0  0
  -12.6042   31.4416  -16.7418 C   0  0  0  0  0  0  0  0  0  0  0  0
  -11.5015   32.1150  -16.3888 N   0  0  0  0  0  0  0  0  0  0  0  0
   -5.9624   36.2458  -18.1986 N   0  0  0  0  0  0  0  0  0  0  0  0
   -6.7934   35.7997  -17.2205 C   0  0  0  0  0  0  0  0  0  0  0  0
   -6.6839   36.3098  -15.9575 N   0  0  0  0  0  0  0  0  0  0  0  0
   -5.7528   37.2623  -15.6816 C   0  0  0  0  0  0  0  0  0  0  0  0
   -4.9278   37.7130  -16.6482 C   0  0  0  0  0  0  0  0  0  0  0  0
   -5.0435   37.1851  -17.9309 C   0  0  0  0  0  0  0  0  0  0  0  0
   -4.2633   37.5016  -19.0997 N   0  0  0  0  0  0  0  0  0  0  0  0
   -4.1170   38.6424  -16.0880 N   0  0  0  0  0  0  0  0  0  0  0  0
   -4.4524   38.7645  -14.7718 C   0  0  0  0  0  0  0  0  0  0  0  0
   -5.4667   37.9093  -14.5311 N   0  0  0  0  0  0  0  0  0  0  0  0
  1  3  1  1  0  0  0
  1  5  2  0  0  0  0
  1  9  1  0  0  0  0
  1 18  1  0  0  0  0
  2  4  1  6  0  0  0
  2  6  2  0  0  0  0
  2 10  1  0  0  0  0
  2 17  1  0  0  0  0
  7  9  1  0  0  0  0
  8 10  1  0  0  0  0
 11  7  1  6  0  0  0
 11 13  1  0  0  0  0
 11 15  1  0  0  0  0
 12  8  1  6  0  0  0
 12 14  1  0  0  0  0
 12 16  1  0  0  0  0
 13 23  1  0  0  0  0
 14 24  1  0  0  0  0
 15 17  1  1  0  0  0
 15 19  1  0  0  0  0
 16 18  1  1  0  0  0
 16 20  1  0  0  0  0
 19 21  1  1  0  0  0
 19 23  1  0  0  0  0
 20 22  1  1  0  0  0
 20 24  1  0  0  0  0
 23 34  1  6  0  0  0
 24 44  1  6  0  0  0
 25 26  2  0  0  0  0
 25 30  1  0  0  0  0
 26 27  1  0  0  0  0
 27 28  2  0  0  0  0
 28 29  1  0  0  0  0
 28 34  1  0  0  0  0
 29 30  2  0  0  0  0
 29 32  1  0  0  0  0
 30 31  1  0  0  0  0
 32 33  2  0  0  0  0
 33 34  1  0  0  0  0
 35 36  2  0  0  0  0
 35 40  1  0  0  0  0
 36 37  1  0  0  0  0
 37 38  2  0  0  0  0
 38 39  1  0  0  0  0
 38 44  1  0  0  0  0
 39 40  2  0  0  0  0
 39 42  1  0  0  0  0
 40 41  1  0  0  0  0
 42 43  2  0  0  0  0
 43 44  1  0  0  0  0
M  CHG  2   3  -1   4  -1
M  END
>  <CHROM.1>
78.93828382,68.84850383,-8.49369418,34.85571047,-15.00831535,2.96651694,-0.65108502
-1.42076168

>  <Name>
ligand

>  <RI>
0

>  <Rbt.Current_Directory>
/home/itssahil/PROJECTS/Mol_Feturizer/New_Systems/rnas/4QLM

>  <Rbt.Executable>
rbdock ($Id: //depot/dev/client3/rdock/2013.1/src/exe/rbdock.cxx#4 $)

>  <Rbt.Library>
libRbt.so (2013.1, Build901 2013/11/27)

>  <Rbt.Parameter_File>
/export/apps/rDock/src/rDock_2013.1_src/data/scripts/dock_solv.prm

>  <Rbt.Receptor>
prm/pocket_docking_5.prm

>  <SCORE>
-10.8566

>  <SCORE.INTER>
-9.1072

>  <SCORE.INTER.CONST>
1

>  <SCORE.INTER.POLAR>
0

>  <SCORE.INTER.ROT>
2

>  <SCORE.INTER.SOLV>
21.9657

>  <SCORE.INTER.VDW>
-18.3267

>  <SCORE.INTER.norm>
-0.206982

>  <SCORE.INTRA>
-1.7494

>  <SCORE.INTRA.DIHEDRAL>
-0.0174157

>  <SCORE.INTRA.DIHEDRAL.0>
2.32994

>  <SCORE.INTRA.POLAR>
0

>  <SCORE.INTRA.POLAR.0>
0

>  <SCORE.INTRA.REPUL>
0

>  <SCORE.INTRA.REPUL.0>
0

>  <SCORE.INTRA.SOLV>
0.57559

>  <SCORE.INTRA.SOLV.lig_0>
-117.703

>  <SCORE.INTRA.VDW>
-2.02849

>  <SCORE.INTRA.VDW.0>
-1.59997

>  <SCORE.INTRA.norm>
-0.0397591

>  <SCORE.RESTR>
0

>  <SCORE.RESTR.CAVITY>
0

>  <SCORE.RESTR.norm>
0

>  <SCORE.SYSTEM>
0

>  <SCORE.SYSTEM.CONST>
0

>  <SCORE.SYSTEM.DIHEDRAL>
0

>  <SCORE.SYSTEM.SOLV>
0

>  <SCORE.SYSTEM.norm>
0

>  <SCORE.heavy>
44

>  <SCORE.norm>
-0.246741

>  <RMSD>
4.790

$$$$
ligand
 OpenBabel11021811513D
libRbt.so/2013.1/901 2013/11/27
 44 50  0  0  0  0  0  0  0  0999 V2000
  -12.0230   37.5577  -13.4415 P   0  0  2  0  0  0  0  0  0  0  0  0
   -7.9979   33.9867  -12.9395 P   0  0  1  0  0  0  0  0  0  0  0  0
  -13.2699   37.6380  -12.5644 O   0  5  0  0  0  0  0  0  0  0  0  0
   -7.6790   33.5610  -14.3519 O   0  5  0  0  0  0  0  0  0  0  0  0
  -12.4078   38.1566  -14.7729 O   0  0  0  0  0  0  0  0  0  0  0  0
   -6.8485   33.4849  -12.0361 O   0  0  0  0  0  0  0  0  0  0  0  0
  -12.0452   35.2618  -12.3600 C   0  0  0  0  0  0  0  0  0  0  0  0
   -8.6936   36.1866  -11.7797 C   0  0  0  0  0  0  0  0  0  0  0  0
  -11.6720   36.0362  -13.5078 O   0  0  0  0  0  0  0  0  0  0  0  0
   -8.2586   35.6073  -13.0422 O   0  0  0  0  0  0  0  0  0  0  0  0
  -11.6892   33.7951  -12.5776 C   0  0  1  0  0  0  0  0  0  0  0  0
   -8.7615   37.7434  -12.0102 C   0  0  1  0  0  0  0  0  0  0  0  0
  -12.6599   33.2361  -13.2315 O   0  0  0  0  0  0  0  0  0  0  0  0
   -7.6354   38.0561  -12.5083 O   0  0  0  0  0  0  0  0  0  0  0  0
  -10.4403   33.6013  -13.4065 C   0  0  1  0  0  0  0  0  0  0  0  0
   -9.7409   38.0904  -13.1493 C   0  0  1  0  0  0  0  0  0  0  0  0
   -9.4314   33.3384  -12.5341 O   0  0  0  0  0  0  0  0  0  0  0  0
  -10.9140   38.5214  -12.6699 O   0  0  0  0  0  0  0  0  0  0  0  0
  -10.7624   32.3295  -14.2661 C   0  0  1  0  0  0  0  0  0  0  0  0
   -9.0586   39.1742  -14.0148 C   0  0  1  0  0  0  0  0  0  0  0  0
  -10.0898   31.1364  -13.6851 O   0  0  0  0  0  0  0  0  0  0  0  0
   -9.6286   40.5257  -13.7088 O   0  0  0  0  0  0  0  0  0  0  0  0
  -12.0493   32.1898  -14.2542 C   0  0  2  0  0  0  0  0  0  0  0  0
   -7.8170   39.1412  -13.6707 C   0  0  2  0  0  0  0  0  0  0  0  0
  -11.9785   34.0460  -19.2912 N   0  0  0  0  0  0  0  0  0  0  0  0
  -10.9706   34.1736  -18.3830 C   0  0  0  0  0  0  0  0  0  0  0  0
  -11.0868   33.6606  -17.1161 N   0  0  0  0  0  0  0  0  0  0  0  0
  -12.2392   33.0132  -16.7655 C   0  0  0  0  0  0  0  0  0  0  0  0
  -13.2421   32.8861  -17.6455 C   0  0  0  0  0  0  0  0  0  0  0  0
  -13.1121   33.4020  -18.9338 C   0  0  0  0  0  0  0  0  0  0  0  0
  -14.0871   33.3354  -19.9487 N   0  0  0  0  0  0  0  0  0  0  0  0
  -14.2406   32.2088  -17.0399 N   0  0  0  0  0  0  0  0  0  0  0  0
  -13.8422   31.9249  -15.7671 C   0  0  0  0  0  0  0  0  0  0  0  0
  -12.6026   32.4044  -15.6014 N   0  0  0  0  0  0  0  0  0  0  0  0
   -7.0056   36.3194  -17.9718 N   0  0  0  0  0  0  0  0  0  0  0  0
   -8.1119   36.3019  -17.1830 C   0  0  0  0  0  0  0  0  0  0  0  0
   -8.1653   37.1035  -16.0776 N   0  0  0  0  0  0  0  0  0  0  0  0
   -7.1201   37.9184  -15.7711 C   0  0  0  0  0  0  0  0  0  0  0  0
   -6.0210   37.9444  -16.5518 C   0  0  0  0  0  0  0  0  0  0  0  0
   -5.9734   37.1218  -17.6735 C   0  0  0  0  0  0  0  0  0  0  0  0
   -4.9038   36.9743  -18.6271 N   0  0  0  0  0  0  0  0  0  0  0  0
   -5.1576   38.8342  -16.0061 N   0  0  0  0  0  0  0  0  0  0  0  0
   -5.7351   39.3595  -14.8879 C   0  0  0  0  0  0  0  0  0  0  0  0
   -6.9494   38.7891  -14.7530 N   0  0  0  0  0  0  0  0  0  0  0  0
  1  3  1  1  0  0  0
  1  5  2  0  0  0  0
  1  9  1  0  0  0  0
  1 18  1  0  0  0  0
  2  4  1  6  0  0  0
  2  6  2  0  0  0  0
  2 10  1  0  0  0  0
  2 17  1  0  0  0  0
  7  9  1  0  0  0  0
  8 10  1  0  0  0  0
 11  7  1  6  0  0  0
 11 13  1  0  0  0  0
 11 15  1  0  0  0  0
 12  8  1  6  0  0  0
 12 14  1  0  0  0  0
 12 16  1  0  0  0  0
 13 23  1  0  0  0  0
 14 24  1  0  0  0  0
 15 17  1  1  0  0  0
 15 19  1  0  0  0  0
 16 18  1  1  0  0  0
 16 20  1  0  0  0  0
 19 21  1  1  0  0  0
 19 23  1  0  0  0  0
 20 22  1  1  0  0  0
 20 24  1  0  0  0  0
 23 34  1  6  0  0  0
 24 44  1  6  0  0  0
 25 26  2  0  0  0  0
 25 30  1  0  0  0  0
 26 27  1  0  0  0  0
 27 28  2  0  0  0  0
 28 29  1  0  0  0  0
 28 34  1  0  0  0  0
 29 30  2  0  0  0  0
 29 32  1  0  0  0  0
 30 31  1  0  0  0  0
 32 33  2  0  0  0  0
 33 34  1  0  0  0  0
 35 36  2  0  0  0  0
 35 40  1  0  0  0  0
 36 37  1  0  0  0  0
 37 38  2  0  0  0  0
 38 39  1  0  0  0  0
 38 44  1  0  0  0  0
 39 40  2  0  0  0  0
 39 42  1  0  0  0  0
 40 41  1  0  0  0  0
 42 43  2  0  0  0  0
 43 44  1  0  0  0  0
M  CHG  2   3  -1   4  -1
M  END
>  <CHROM.1>
99.04311499,83.63612767,-9.88536833,35.61262593,-14.76481173,0.44717337,0.68279958
1.21260598

>  <Name>
ligand

>  <RI>
0

>  <Rbt.Current_Directory>
/home/itssahil/PROJECTS/Mol_Feturizer/New_Systems/rnas/4QLM

>  <Rbt.Executable>
rbdock ($Id: //depot/dev/client3/rdock/2013.1/src/exe/rbdock.cxx#4 $)

>  <Rbt.Library>
libRbt.so (2013.1, Build901 2013/11/27)

>  <Rbt.Parameter_File>
/export/apps/rDock/src/rDock_2013.1_src/data/scripts/dock_solv.prm

>  <Rbt.Receptor>
prm/pocket_docking_7.prm

>  <SCORE>
-11.222

>  <SCORE.INTER>
-10.0233

>  <SCORE.INTER.CONST>
1

>  <SCORE.INTER.POLAR>
0

>  <SCORE.INTER.ROT>
2

>  <SCORE.INTER.SOLV>
19.0876

>  <SCORE.INTER.VDW>
-17.9781

>  <SCORE.INTER.norm>
-0.227802

>  <SCORE.INTRA>
-1.19874

>  <SCORE.INTRA.DIHEDRAL>
-0.00832375

>  <SCORE.INTRA.DIHEDRAL.0>
2.32994

>  <SCORE.INTRA.POLAR>
0

>  <SCORE.INTRA.POLAR.0>
0

>  <SCORE.INTRA.REPUL>
0

>  <SCORE.INTRA.REPUL.0>
0

>  <SCORE.INTRA.SOLV>
0.102866

>  <SCORE.INTRA.SOLV.lig_0>
-117.703

>  <SCORE.INTRA.VDW>
-1.24601

>  <SCORE.INTRA.VDW.0>
-1.59997

>  <SCORE.INTRA.norm>
-0.0272441

>  <SCORE.RESTR>
0

>  <SCORE.RESTR.CAVITY>
0

>  <SCORE.RESTR.norm>
0

>  <SCORE.SYSTEM>
0

>  <SCORE.SYSTEM.CONST>
0

>  <SCORE.SYSTEM.DIHEDRAL>
0

>  <SCORE.SYSTEM.SOLV>
0

>  <SCORE.SYSTEM.norm>
0

>  <SCORE.heavy>
44

>  <SCORE.norm>
-0.255046

>  <RMSD>
5.039

$$$$
ligand
 OpenBabel11021811513D
libRbt.so/2013.1/901 2013/11/27
 44 50  0  0  0  0  0  0  0  0999 V2000
   -5.9220   38.6921  -14.0784 P   0  0  2  0  0  0  0  0  0  0  0  0
   -6.3528   34.3077  -17.2084 P   0  0  1  0  0  0  0  0  0  0  0  0
   -5.3742   40.0519  -14.5042 O   0  5  0  0  0  0  0  0  0  0  0  0
   -5.8886   33.1641  -16.3396 O   0  5  0  0  0  0  0  0  0  0  0  0
   -5.7020   38.5997  -12.5876 O   0  0  0  0  0  0  0  0  0  0  0  0
   -7.0388   33.6943  -18.4502 O   0  0  0  0  0  0  0  0  0  0  0  0
   -4.6403   38.0980  -16.1868 C   0  0  0  0  0  0  0  0  0  0  0  0
   -7.7015   36.4800  -16.8472 C   0  0  0  0  0  0  0  0  0  0  0  0
   -5.1041   37.6490  -14.9063 O   0  0  0  0  0  0  0  0  0  0  0  0
   -7.2527   35.2522  -16.2069 O   0  0  0  0  0  0  0  0  0  0  0  0
   -3.8214   37.0032  -16.8624 C   0  0  1  0  0  0  0  0  0  0  0  0
   -8.6533   37.1925  -15.8137 C   0  0  1  0  0  0  0  0  0  0  0  0
   -2.6021   37.0836  -16.4273 O   0  0  0  0  0  0  0  0  0  0  0  0
   -9.4918   36.3040  -15.4652 O   0  0  0  0  0  0  0  0  0  0  0  0
   -4.3064   35.6092  -16.5370 C   0  0  1  0  0  0  0  0  0  0  0  0
   -7.9119   37.4905  -14.4952 C   0  0  1  0  0  0  0  0  0  0  0  0
   -5.0516   35.1993  -17.5977 O   0  0  0  0  0  0  0  0  0  0  0  0
   -7.5433   38.7753  -14.4222 O   0  0  0  0  0  0  0  0  0  0  0  0
   -2.9838   34.7712  -16.4443 C   0  0  1  0  0  0  0  0  0  0  0  0
   -8.8739   37.1186  -13.3440 C   0  0  1  0  0  0  0  0  0  0  0  0
   -2.7865   33.9880  -17.6937 O   0  0  0  0  0  0  0  0  0  0  0  0
   -9.4937   38.3512  -12.7593 O   0  0  0  0  0  0  0  0  0  0  0  0
   -2.0201   35.6175  -16.2686 C   0  0  2  0  0  0  0  0  0  0  0  0
   -9.7876   36.3957  -13.8950 C   0  0  2  0  0  0  0  0  0  0  0  0
   -2.0830   34.4242  -11.0348 N   0  0  0  0  0  0  0  0  0  0  0  0
   -3.1504   34.3527  -11.8790 C   0  0  0  0  0  0  0  0  0  0  0  0
   -3.0297   34.6794  -13.2057 N   0  0  0  0  0  0  0  0  0  0  0  0
   -1.8134   35.0857  -13.6811 C   0  0  0  0  0  0  0  0  0  0  0  0
   -0.7562   35.1680  -12.8614 C   0  0  0  0  0  0  0  0  0  0  0  0
   -0.8853   34.8250  -11.5166 C   0  0  0  0  0  0  0  0  0  0  0  0
    0.1433   34.8673  -10.5547 N   0  0  0  0  0  0  0  0  0  0  0  0
    0.3006   35.5856  -13.5900 N   0  0  0  0  0  0  0  0  0  0  0  0
   -0.1213   35.7680  -14.8736 C   0  0  0  0  0  0  0  0  0  0  0  0
   -1.4195   35.4439  -14.9358 N   0  0  0  0  0  0  0  0  0  0  0  0
   -7.2734   31.9835  -12.7411 N   0  0  0  0  0  0  0  0  0  0  0  0
   -6.7423   33.0997  -13.3053 C   0  0  0  0  0  0  0  0  0  0  0  0
   -7.5444   34.1782  -13.5518 N   0  0  0  0  0  0  0  0  0  0  0  0
   -8.8654   34.1375  -13.2295 C   0  0  0  0  0  0  0  0  0  0  0  0
   -9.3983   33.0350  -12.6651 C   0  0  0  0  0  0  0  0  0  0  0  0
   -8.5750   31.9396  -12.4211 C   0  0  0  0  0  0  0  0  0  0  0  0
   -8.9306   30.6656  -11.8506 N   0  0  0  0  0  0  0  0  0  0  0  0
  -10.7148   33.2804  -12.4611 N   0  0  0  0  0  0  0  0  0  0  0  0
  -10.9870   34.5431  -12.8986 C   0  0  0  0  0  0  0  0  0  0  0  0
   -9.8365   35.0657  -13.3690 N   0  0  0  0  0  0  0  0  0  0  0  0
  1  3  1  6  0  0  0
  1  5  2  0  0  0  0
  1  9  1  0  0  0  0
  1 18  1  0  0  0  0
  2  4  1  1  0  0  0
  2  6  2  0  0  0  0
  2 10  1  0  0  0  0
  2 17  1  0  0  0  0
  7  9  1  0  0  0  0
  8 10  1  0  0  0  0
 11  7  1  1  0  0  0
 11 13  1  0  0  0  0
 11 15  1  0  0  0  0
 12  8  1  6  0  0  0
 12 14  1  0  0  0  0
 12 16  1  0  0  0  0
 13 23  1  0  0  0  0
 14 24  1  0  0  0  0
 15 17  1  6  0  0  0
 15 19  1  0  0  0  0
 16 18  1  6  0  0  0
 16 20  1  0  0  0  0
 19 21  1  6  0  0  0
 19 23  1  0  0  0  0
 20 22  1  6  0  0  0
 20 24  1  0  0  0  0
 23 34  1  1  0  0  0
 24 44  1  1  0  0  0
 25 26  2  0  0  0  0
 25 30  1  0  0  0  0
 26 27  1  0  0  0  0
 27 28  2  0  0  0  0
 28 29  1  0  0  0  0
 28 34  1  0  0  0  0
 29 30  2  0  0  0  0
 29 32  1  0  0  0  0
 30 31  1  0  0  0  0
 32 33  2  0  0  0  0
 33 34  1  0  0  0  0
 35 36  2  0  0  0  0
 35 40  1  0  0  0  0
 36 37  1  0  0  0  0
 37 38  2  0  0  0  0
 38 39  1  0  0  0  0
 38 44  1  0  0  0  0
 39 40  2  0  0  0  0
 39 42  1  0  0  0  0
 40 41  1  0  0  0  0
 42 43  2  0  0  0  0
 43 44  1  0  0  0  0
M  CHG  2   3  -1   4  -1
M  END
>  <CHROM.1>
87.07803004,67.50095198,-5.69063517,35.55460010,-14.50728956,3.05781941,0.00940565
2.49467587

>  <Name>
ligand

>  <RI>
0

>  <Rbt.Current_Directory>
/home/itssahil/PROJECTS/Mol_Feturizer/New_Systems/rnas/4QLM

>  <Rbt.Executable>
rbdock ($Id: //depot/dev/client3/rdock/2013.1/src/exe/rbdock.cxx#4 $)

>  <Rbt.Library>
libRbt.so (2013.1, Build901 2013/11/27)

>  <Rbt.Parameter_File>
/export/apps/rDock/src/rDock_2013.1_src/data/scripts/dock_solv.prm

>  <Rbt.Receptor>
prm/pocket_docking_7.prm

>  <SCORE>
-8.76173

>  <SCORE.INTER>
-7.10353

>  <SCORE.INTER.CONST>
1

>  <SCORE.INTER.POLAR>
0

>  <SCORE.INTER.ROT>
2

>  <SCORE.INTER.SOLV>
28.2385

>  <SCORE.INTER.VDW>
-19.0818

>  <SCORE.INTER.norm>
-0.161444

>  <SCORE.INTRA>
-1.65819

>  <SCORE.INTRA.DIHEDRAL>
-0.0302964

>  <SCORE.INTRA.DIHEDRAL.0>
2.32994

>  <SCORE.INTRA.POLAR>
0

>  <SCORE.INTRA.POLAR.0>
0

>  <SCORE.INTRA.REPUL>
0

>  <SCORE.INTRA.REPUL.0>
0

>  <SCORE.INTRA.SOLV>
0.651656

>  <SCORE.INTRA.SOLV.lig_0>
-117.703

>  <SCORE.INTRA.VDW>
-1.96887

>  <SCORE.INTRA.VDW.0>
-1.59997

>  <SCORE.INTRA.norm>
-0.0376862

>  <SCORE.RESTR>
0

>  <SCORE.RESTR.CAVITY>
0

>  <SCORE.RESTR.norm>
0

>  <SCORE.SYSTEM>
0

>  <SCORE.SYSTEM.CONST>
0

>  <SCORE.SYSTEM.DIHEDRAL>
0

>  <SCORE.SYSTEM.SOLV>
0

>  <SCORE.SYSTEM.norm>
0

>  <SCORE.heavy>
44

>  <SCORE.norm>
-0.19913

>  <RMSD>
5.193

$$$$
ligand
 OpenBabel11021811513D
libRbt.so/2013.1/901 2013/11/27
 44 50  0  0  0  0  0  0  0  0999 V2000
   -7.0862   36.7034  -12.5647 P   0  0  2  0  0  0  0  0  0  0  0  0
   -5.9019   33.1240  -16.4365 P   0  0  1  0  0  0  0  0  0  0  0  0
   -7.7464   36.3935  -11.2236 O   0  5  0  0  0  0  0  0  0  0  0  0
   -6.3053   33.7990  -17.7248 O   0  5  0  0  0  0  0  0  0  0  0  0
   -7.4188   38.1435  -12.8727 O   0  0  0  0  0  0  0  0  0  0  0  0
   -5.0492   31.8901  -16.8098 O   0  0  0  0  0  0  0  0  0  0  0  0
   -8.1111   34.4238  -13.0054 C   0  0  0  0  0  0  0  0  0  0  0  0
   -4.8422   33.8746  -14.2045 C   0  0  0  0  0  0  0  0  0  0  0  0
   -7.7087   35.6798  -13.5684 O   0  0  0  0  0  0  0  0  0  0  0  0
   -5.2017   34.3151  -15.5444 O   0  0  0  0  0  0  0  0  0  0  0  0
   -8.7415   33.5444  -14.0800 C   0  0  1  0  0  0  0  0  0  0  0  0
   -4.0671   35.0744  -13.5401 C   0  0  1  0  0  0  0  0  0  0  0  0
   -9.9943   33.8650  -14.1811 O   0  0  0  0  0  0  0  0  0  0  0  0
   -3.1659   35.3931  -14.3769 O   0  0  0  0  0  0  0  0  0  0  0  0
   -8.1312   33.7449  -15.4481 C   0  0  1  0  0  0  0  0  0  0  0  0
   -4.9455   36.3406  -13.4935 C   0  0  1  0  0  0  0  0  0  0  0  0
   -7.2581   32.7202  -15.6383 O   0  0  0  0  0  0  0  0  0  0  0  0
   -5.4616   36.5319  -12.2733 O   0  0  0  0  0  0  0  0  0  0  0  0
   -9.3539   33.6063  -16.4208 C   0  0  1  0  0  0  0  0  0  0  0  0
   -4.0476   37.5268  -13.9130 C   0  0  1  0  0  0  0  0  0  0  0  0
   -9.3559   32.2582  -17.0501 O   0  0  0  0  0  0  0  0  0  0  0  0
   -3.6222   38.3136  -12.7108 O   0  0  0  0  0  0  0  0  0  0  0  0
  -10.4183   33.7880  -15.7069 C   0  0  2  0  0  0  0  0  0  0  0  0
   -3.0151   36.9843  -14.4614 C   0  0  2  0  0  0  0  0  0  0  0  0
  -11.3772   39.0690  -15.5913 N   0  0  0  0  0  0  0  0  0  0  0  0
  -10.4219   38.4188  -14.8690 C   0  0  0  0  0  0  0  0  0  0  0  0
  -10.2556   37.0611  -14.9711 N   0  0  0  0  0  0  0  0  0  0  0  0
  -11.0690   36.3544  -15.8133 C   0  0  0  0  0  0  0  0  0  0  0  0
  -12.0178   36.9789  -16.5247 C   0  0  0  0  0  0  0  0  0  0  0  0
  -12.1738   38.3601  -16.4222 C   0  0  0  0  0  0  0  0  0  0  0  0
  -13.1280   39.1335  -17.1124 N   0  0  0  0  0  0  0  0  0  0  0  0
  -12.6592   36.0495  -17.2644 N   0  0  0  0  0  0  0  0  0  0  0  0
  -12.0966   34.8373  -16.9937 C   0  0  0  0  0  0  0  0  0  0  0  0
  -11.1052   35.0252  -16.1129 N   0  0  0  0  0  0  0  0  0  0  0  0
   -2.2408   35.4876  -19.3889 N   0  0  0  0  0  0  0  0  0  0  0  0
   -2.3095   34.6843  -18.2951 C   0  0  0  0  0  0  0  0  0  0  0  0
   -2.5120   35.2386  -17.0625 N   0  0  0  0  0  0  0  0  0  0  0  0
   -2.6496   36.5855  -16.9312 C   0  0  0  0  0  0  0  0  0  0  0  0
   -2.5872   37.3883  -18.0128 C   0  0  0  0  0  0  0  0  0  0  0  0
   -2.3767   36.8158  -19.2638 C   0  0  0  0  0  0  0  0  0  0  0  0
   -2.2578   37.4760  -20.5386 N   0  0  0  0  0  0  0  0  0  0  0  0
   -2.7528   38.6619  -17.5819 N   0  0  0  0  0  0  0  0  0  0  0  0
   -2.9231   38.6367  -16.2291 C   0  0  0  0  0  0  0  0  0  0  0  0
   -2.8607   37.3481  -15.8368 N   0  0  0  0  0  0  0  0  0  0  0  0
  1  3  1  1  0  0  0
  1  5  2  0  0  0  0
  1  9  1  0  0  0  0
  1 18  1  0  0  0  0
  2  4  1  6  0  0  0
  2  6  2  0  0  0  0
  2 10  1  0  0  0  0
  2 17  1  0  0  0  0
  7  9  1  0  0  0  0
  8 10  1  0  0  0  0
 11  7  1  1  0  0  0
 11 13  1  0  0  0  0
 11 15  1  0  0  0  0
 12  8  1  6  0  0  0
 12 14  1  0  0  0  0
 12 16  1  0  0  0  0
 13 23  1  0  0  0  0
 14 24  1  0  0  0  0
 15 17  1  6  0  0  0
 15 19  1  0  0  0  0
 16 18  1  1  0  0  0
 16 20  1  0  0  0  0
 19 21  1  1  0  0  0
 19 23  1  0  0  0  0
 20 22  1  1  0  0  0
 20 24  1  0  0  0  0
 23 34  1  6  0  0  0
 24 44  1  6  0  0  0
 25 26  2  0  0  0  0
 25 30  1  0  0  0  0
 26 27  1  0  0  0  0
 27 28  2  0  0  0  0
 28 29  1  0  0  0  0
 28 34  1  0  0  0  0
 29 30  2  0  0  0  0
 29 32  1  0  0  0  0
 30 31  1  0  0  0  0
 32 33  2  0  0  0  0
 33 34  1  0  0  0  0
 35 36  2  0  0  0  0
 35 40  1  0  0  0  0
 36 37  1  0  0  0  0
 37 38  2  0  0  0  0
 38 39  1  0  0  0  0
 38 44  1  0  0  0  0
 39 40  2  0  0  0  0
 39 42  1  0  0  0  0
 40 41  1  0  0  0  0
 42 43  2  0  0  0  0
 43 44  1  0  0  0  0
M  CHG  2   3  -1   4  -1
M  END
>  <CHROM.1>
32.32481406,-10.21219039,-6.75785055,35.74938884,-15.50804007,-3.04832519
-0.09489326,-2.19760157

>  <Name>
ligand

>  <RI>
0

>  <Rbt.Current_Directory>
/home/itssahil/PROJECTS/Mol_Feturizer/New_Systems/rnas/4QLM

>  <Rbt.Executable>
rbdock ($Id: //depot/dev/client3/rdock/2013.1/src/exe/rbdock.cxx#4 $)

>  <Rbt.Library>
libRbt.so (2013.1, Build901 2013/11/27)

>  <Rbt.Parameter_File>
/export/apps/rDock/src/rDock_2013.1_src/data/scripts/dock_solv.prm

>  <Rbt.Receptor>
prm/pocket_docking_5.prm

>  <SCORE>
-5.23123

>  <SCORE.INTER>
-4.33478

>  <SCORE.INTER.CONST>
1

>  <SCORE.INTER.POLAR>
0

>  <SCORE.INTER.ROT>
2

>  <SCORE.INTER.SOLV>
32.932

>  <SCORE.INTER.VDW>
-18.8005

>  <SCORE.INTER.norm>
-0.0985177

>  <SCORE.INTRA>
-0.903477

>  <SCORE.INTRA.DIHEDRAL>
0.178053

>  <SCORE.INTRA.DIHEDRAL.0>
2.32994

>  <SCORE.INTRA.POLAR>
0

>  <SCORE.INTRA.POLAR.0>
0

>  <SCORE.INTRA.REPUL>
0

>  <SCORE.INTRA.REPUL.0>
0

>  <SCORE.INTRA.SOLV>
0.484736

>  <SCORE.INTRA.SOLV.lig_0>
-117.703

>  <SCORE.INTRA.VDW>
-1.23487

>  <SCORE.INTRA.VDW.0>
-1.59997

>  <SCORE.INTRA.norm>
-0.0205336

>  <SCORE.RESTR>
0.00702013

>  <SCORE.RESTR.CAVITY>
0.00702013

>  <SCORE.RESTR.norm>
0.000159549

>  <SCORE.SYSTEM>
0

>  <SCORE.SYSTEM.CONST>
0

>  <SCORE.SYSTEM.DIHEDRAL>
0

>  <SCORE.SYSTEM.SOLV>
0

>  <SCORE.SYSTEM.norm>
0

>  <SCORE.heavy>
44

>  <SCORE.norm>
-0.118892

>  <RMSD>
5.428

$$$$
ligand
 OpenBabel11021811513D
libRbt.so/2013.1/901 2013/11/27
 44 50  0  0  0  0  0  0  0  0999 V2000
  -11.9064   35.9785  -13.0906 P   0  0  2  0  0  0  0  0  0  0  0  0
   -7.7651   32.8154  -14.5223 P   0  0  1  0  0  0  0  0  0  0  0  0
  -13.0184   35.6165  -12.1093 O   0  5  0  0  0  0  0  0  0  0  0  0
   -7.6389   32.9944  -16.0157 O   0  5  0  0  0  0  0  0  0  0  0  0
  -12.4901   37.0131  -14.0224 O   0  0  0  0  0  0  0  0  0  0  0  0
   -6.4877   32.0947  -14.0347 O   0  0  0  0  0  0  0  0  0  0  0  0
  -11.7196   33.4488  -13.0049 C   0  0  0  0  0  0  0  0  0  0  0  0
   -8.3432   34.3354  -12.5164 C   0  0  0  0  0  0  0  0  0  0  0  0
  -11.5315   34.6328  -13.7916 O   0  0  0  0  0  0  0  0  0  0  0  0
   -8.0771   34.3243  -13.9474 O   0  0  0  0  0  0  0  0  0  0  0  0
  -11.3624   32.2124  -13.8228 C   0  0  1  0  0  0  0  0  0  0  0  0
   -8.4809   35.8501  -12.1062 C   0  0  1  0  0  0  0  0  0  0  0  0
  -12.4019   31.8756  -14.5215 O   0  0  0  0  0  0  0  0  0  0  0  0
   -7.4445   36.4174  -12.5731 O   0  0  0  0  0  0  0  0  0  0  0  0
  -10.2389   32.4516  -14.8051 C   0  0  1  0  0  0  0  0  0  0  0  0
   -9.6196   36.5327  -12.8900 C   0  0  1  0  0  0  0  0  0  0  0  0
   -9.1107   31.9514  -14.2349 O   0  0  0  0  0  0  0  0  0  0  0  0
  -10.7234   36.6525  -12.1422 O   0  0  0  0  0  0  0  0  0  0  0  0
  -10.6483   31.5894  -16.0499 C   0  0  1  0  0  0  0  0  0  0  0  0
   -9.0931   37.9162  -13.3351 C   0  0  1  0  0  0  0  0  0  0  0  0
   -9.8714   30.3207  -16.0705 O   0  0  0  0  0  0  0  0  0  0  0  0
   -9.6469   38.9959  -12.4561 O   0  0  0  0  0  0  0  0  0  0  0  0
  -11.9168   31.3564  -15.9388 C   0  0  2  0  0  0  0  0  0  0  0  0
   -7.8150   37.8495  -13.1841 C   0  0  2  0  0  0  0  0  0  0  0  0
  -13.0264   35.4274  -19.2580 N   0  0  0  0  0  0  0  0  0  0  0  0
  -12.0167   35.4005  -18.3431 C   0  0  0  0  0  0  0  0  0  0  0  0
  -11.8152   34.3072  -17.5396 N   0  0  0  0  0  0  0  0  0  0  0  0
  -12.6486   33.2300  -17.6635 C   0  0  0  0  0  0  0  0  0  0  0  0
  -13.6504   33.2445  -18.5537 C   0  0  0  0  0  0  0  0  0  0  0  0
  -13.8424   34.3557  -19.3729 C   0  0  0  0  0  0  0  0  0  0  0  0
  -14.8530   34.4965  -20.3445 N   0  0  0  0  0  0  0  0  0  0  0  0
  -14.3003   32.0647  -18.4645 N   0  0  0  0  0  0  0  0  0  0  0  0
  -13.6887   31.3216  -17.4985 C   0  0  0  0  0  0  0  0  0  0  0  0
  -12.6600   32.0308  -17.0157 N   0  0  0  0  0  0  0  0  0  0  0  0
   -7.1545   36.4369  -18.1528 N   0  0  0  0  0  0  0  0  0  0  0  0
   -8.0622   35.9323  -17.2765 C   0  0  0  0  0  0  0  0  0  0  0  0
   -8.1020   36.4095  -15.9967 N   0  0  0  0  0  0  0  0  0  0  0  0
   -7.2424   37.3876  -15.6031 C   0  0  0  0  0  0  0  0  0  0  0  0
   -6.3422   37.8962  -16.4685 C   0  0  0  0  0  0  0  0  0  0  0  0
   -6.3058   37.4016  -17.7690 C   0  0  0  0  0  0  0  0  0  0  0  0
   -5.4241   37.7804  -18.8433 N   0  0  0  0  0  0  0  0  0  0  0  0
   -5.6302   38.8386  -15.8051 N   0  0  0  0  0  0  0  0  0  0  0  0
   -6.1022   38.9102  -14.5276 C   0  0  0  0  0  0  0  0  0  0  0  0
   -7.1008   38.0113  -14.4137 N   0  0  0  0  0  0  0  0  0  0  0  0
  1  3  1  1  0  0  0
  1  5  2  0  0  0  0
  1  9  1  0  0  0  0
  1 18  1  0  0  0  0
  2  4  1  6  0  0  0
  2  6  2  0  0  0  0
  2 10  1  0  0  0  0
  2 17  1  0  0  0  0
  7  9  1  0  0  0  0
  8 10  1  0  0  0  0
 11  7  1  6  0  0  0
 11 13  1  0  0  0  0
 11 15  1  0  0  0  0
 12  8  1  6  0  0  0
 12 14  1  0  0  0  0
 12 16  1  0  0  0  0
 13 23  1  0  0  0  0
 14 24  1  0  0  0  0
 15 17  1  1  0  0  0
 15 19  1  0  0  0  0
 16 18  1  1  0  0  0
 16 20  1  0  0  0  0
 19 21  1  1  0  0  0
 19 23  1  0  0  0  0
 20 22  1  1  0  0  0
 20 24  1  0  0  0  0
 23 34  1  6  0  0  0
 24 44  1  6  0  0  0
 25 26  2  0  0  0  0
 25 30  1  0  0  0  0
 26 27  1  0  0  0  0
 27 28  2  0  0  0  0
 28 29  1  0  0  0  0
 28 34  1  0  0  0  0
 29 30  2  0  0  0  0
 29 32  1  0  0  0  0
 30 31  1  0  0  0  0
 32 33  2  0  0  0  0
 33 34  1  0  0  0  0
 35 36  2  0  0  0  0
 35 40  1  0  0  0  0
 36 37  1  0  0  0  0
 37 38  2  0  0  0  0
 38 39  1  0  0  0  0
 38 44  1  0  0  0  0
 39 40  2  0  0  0  0
 39 42  1  0  0  0  0
 40 41  1  0  0  0  0
 42 43  2  0  0  0  0
 43 44  1  0  0  0  0
M  CHG  2   3  -1   4  -1
M  END
>  <CHROM.1>
78.75291291,69.05534706,-9.93006359,34.85282113,-15.27005298,2.84463543,-0.70616920
-1.47016909

>  <Name>
ligand

>  <RI>
0

>  <Rbt.Current_Directory>
/home/itssahil/PROJECTS/Mol_Feturizer/New_Systems/rnas/4QLM

>  <Rbt.Executable>
rbdock ($Id: //depot/dev/client3/rdock/2013.1/src/exe/rbdock.cxx#4 $)

>  <Rbt.Library>
libRbt.so (2013.1, Build901 2013/11/27)

>  <Rbt.Parameter_File>
/export/apps/rDock/src/rDock_2013.1_src/data/scripts/dock_solv.prm

>  <Rbt.Receptor>
prm/pocket_docking_7.prm

>  <SCORE>
-10.5532

>  <SCORE.INTER>
-8.80174

>  <SCORE.INTER.CONST>
1

>  <SCORE.INTER.POLAR>
0

>  <SCORE.INTER.ROT>
2

>  <SCORE.INTER.SOLV>
21.8274

>  <SCORE.INTER.VDW>
-18.077

>  <SCORE.INTER.norm>
-0.20004

>  <SCORE.INTRA>
-1.75151

>  <SCORE.INTRA.DIHEDRAL>
-0.0168262

>  <SCORE.INTRA.DIHEDRAL.0>
2.32994

>  <SCORE.INTRA.POLAR>
0

>  <SCORE.INTRA.POLAR.0>
0

>  <SCORE.INTRA.REPUL>
0

>  <SCORE.INTRA.REPUL.0>
0

>  <SCORE.INTRA.SOLV>
0.564416

>  <SCORE.INTRA.SOLV.lig_0>
-117.703

>  <SCORE.INTRA.VDW>
-2.02531

>  <SCORE.INTRA.VDW.0>
-1.59997

>  <SCORE.INTRA.norm>
-0.0398071

>  <SCORE.RESTR>
0

>  <SCORE.RESTR.CAVITY>
0

>  <SCORE.RESTR.norm>
0

>  <SCORE.SYSTEM>
0

>  <SCORE.SYSTEM.CONST>
0

>  <SCORE.SYSTEM.DIHEDRAL>
0

>  <SCORE.SYSTEM.SOLV>
0

>  <SCORE.SYSTEM.norm>
0

>  <SCORE.heavy>
44

>  <SCORE.norm>
-0.239847

>  <RMSD>
5.509

$$$$
ligand
 OpenBabel11021811513D
libRbt.so/2013.1/901 2013/11/27
 44 50  0  0  0  0  0  0  0  0999 V2000
  -12.3228   38.1154  -12.8429 P   0  0  2  0  0  0  0  0  0  0  0  0
   -8.8236   33.9993  -12.9820 P   0  0  1  0  0  0  0  0  0  0  0  0
  -13.5033   38.2615  -11.8860 O   0  5  0  0  0  0  0  0  0  0  0  0
   -8.6348   33.7006  -14.4494 O   0  5  0  0  0  0  0  0  0  0  0  0
  -12.6813   38.9106  -14.0752 O   0  0  0  0  0  0  0  0  0  0  0  0
   -7.7155   33.2458  -12.2118 O   0  0  0  0  0  0  0  0  0  0  0  0
  -12.6184   35.7341  -12.0163 C   0  0  0  0  0  0  0  0  0  0  0  0
   -9.1462   36.1241  -11.5504 C   0  0  0  0  0  0  0  0  0  0  0  0
  -12.1939   36.5783  -13.0949 O   0  0  0  0  0  0  0  0  0  0  0  0
   -8.8573   35.6412  -12.8928 O   0  0  0  0  0  0  0  0  0  0  0  0
  -12.4838   34.2677  -12.4127 C   0  0  1  0  0  0  0  0  0  0  0  0
   -9.0042   37.6920  -11.6068 C   0  0  1  0  0  0  0  0  0  0  0  0
  -13.5535   33.9245  -13.0611 O   0  0  0  0  0  0  0  0  0  0  0  0
   -7.8699   37.9051  -12.1377 O   0  0  0  0  0  0  0  0  0  0  0  0
  -11.3152   34.0041  -13.3342 C   0  0  1  0  0  0  0  0  0  0  0  0
   -9.9772   38.2974  -12.6382 C   0  0  1  0  0  0  0  0  0  0  0  0
  -10.3137   33.5082  -12.5601 O   0  0  0  0  0  0  0  0  0  0  0  0
  -11.0538   38.8247  -12.0427 O   0  0  0  0  0  0  0  0  0  0  0  0
  -11.8538   32.8954  -14.3042 C   0  0  1  0  0  0  0  0  0  0  0  0
   -9.1900   39.3718  -13.4228 C   0  0  1  0  0  0  0  0  0  0  0  0
  -11.3300   31.5633  -13.8986 O   0  0  0  0  0  0  0  0  0  0  0  0
   -9.5483   40.7434  -12.9376 O   0  0  0  0  0  0  0  0  0  0  0  0
  -13.1455   32.9305  -14.2269 C   0  0  2  0  0  0  0  0  0  0  0  0
   -7.9508   39.1318  -13.1625 C   0  0  2  0  0  0  0  0  0  0  0  0
  -14.9514   32.2351  -19.2346 N   0  0  0  0  0  0  0  0  0  0  0  0
  -14.4829   31.2522  -18.4151 C   0  0  0  0  0  0  0  0  0  0  0  0
  -14.0437   31.5344  -17.1466 N   0  0  0  0  0  0  0  0  0  0  0  0
  -14.0774   32.8284  -16.7052 C   0  0  0  0  0  0  0  0  0  0  0  0
  -14.5287   33.8069  -17.5022 C   0  0  0  0  0  0  0  0  0  0  0  0
  -14.9820   33.5101  -18.7864 C   0  0  0  0  0  0  0  0  0  0  0  0
  -15.4787   34.4420  -19.7191 N   0  0  0  0  0  0  0  0  0  0  0  0
  -14.4544   34.9669  -16.8158 N   0  0  0  0  0  0  0  0  0  0  0  0
  -13.9424   34.6917  -15.5824 C   0  0  0  0  0  0  0  0  0  0  0  0
  -13.7257   33.3721  -15.5059 N   0  0  0  0  0  0  0  0  0  0  0  0
   -7.5374   36.3163  -17.5240 N   0  0  0  0  0  0  0  0  0  0  0  0
   -8.5558   36.2805  -16.6251 C   0  0  0  0  0  0  0  0  0  0  0  0
   -8.5091   37.0833  -15.5203 N   0  0  0  0  0  0  0  0  0  0  0  0
   -7.4527   37.9175  -15.3236 C   0  0  0  0  0  0  0  0  0  0  0  0
   -6.4408   37.9616  -16.2136 C   0  0  0  0  0  0  0  0  0  0  0  0
   -6.4945   37.1377  -17.3342 C   0  0  0  0  0  0  0  0  0  0  0  0
   -5.5268   37.0075  -18.3932 N   0  0  0  0  0  0  0  0  0  0  0  0
   -5.5418   38.8679  -15.7603 N   0  0  0  0  0  0  0  0  0  0  0  0
   -6.0101   39.3850  -14.5884 C   0  0  0  0  0  0  0  0  0  0  0  0
   -7.1935   38.7931  -14.3287 N   0  0  0  0  0  0  0  0  0  0  0  0
  1  3  1  1  0  0  0
  1  5  2  0  0  0  0
  1  9  1  0  0  0  0
  1 18  1  0  0  0  0
  2  4  1  6  0  0  0
  2  6  2  0  0  0  0
  2 10  1  0  0  0  0
  2 17  1  0  0  0  0
  7  9  1  0  0  0  0
  8 10  1  0  0  0  0
 11  7  1  6  0  0  0
 11 13  1  0  0  0  0
 11 15  1  0  0  0  0
 12  8  1  6  0  0  0
 12 14  1  0  0  0  0
 12 16  1  0  0  0  0
 13 23  1  0  0  0  0
 14 24  1  0  0  0  0
 15 17  1  1  0  0  0
 15 19  1  0  0  0  0
 16 18  1  1  0  0  0
 16 20  1  0  0  0  0
 19 21  1  1  0  0  0
 19 23  1  0  0  0  0
 20 22  1  1  0  0  0
 20 24  1  0  0  0  0
 23 34  1  6  0  0  0
 24 44  1  6  0  0  0
 25 26  2  0  0  0  0
 25 30  1  0  0  0  0
 26 27  1  0  0  0  0
 27 28  2  0  0  0  0
 28 29  1  0  0  0  0
 28 34  1  0  0  0  0
 29 30  2  0  0  0  0
 29 32  1  0  0  0  0
 30 31  1  0  0  0  0
 32 33  2  0  0  0  0
 33 34  1  0  0  0  0
 35 36  2  0  0  0  0
 35 40  1  0  0  0  0
 36 37  1  0  0  0  0
 37 38  2  0  0  0  0
 38 39  1  0  0  0  0
 38 44  1  0  0  0  0
 39 40  2  0  0  0  0
 39 42  1  0  0  0  0
 40 41  1  0  0  0  0
 42 43  2  0  0  0  0
 43 44  1  0  0  0  0
M  CHG  2   3  -1   4  -1
M  END
>  <CHROM.1>
-156.07936136,72.19572449,-10.65231637,35.82051999,-14.49724262,0.61390168
0.45730166,1.04452243

>  <Name>
ligand

>  <RI>
0

>  <Rbt.Current_Directory>
/home/itssahil/PROJECTS/Mol_Feturizer/New_Systems/rnas/4QLM

>  <Rbt.Executable>
rbdock ($Id: //depot/dev/client3/rdock/2013.1/src/exe/rbdock.cxx#4 $)

>  <Rbt.Library>
libRbt.so (2013.1, Build901 2013/11/27)

>  <Rbt.Parameter_File>
/export/apps/rDock/src/rDock_2013.1_src/data/scripts/dock_solv.prm

>  <Rbt.Receptor>
prm/pocket_docking_8.prm

>  <SCORE>
-9.58758

>  <SCORE.INTER>
-8.72593

>  <SCORE.INTER.CONST>
1

>  <SCORE.INTER.POLAR>
0

>  <SCORE.INTER.ROT>
2

>  <SCORE.INTER.SOLV>
11.287

>  <SCORE.INTER.VDW>
-14.513

>  <SCORE.INTER.norm>
-0.198317

>  <SCORE.INTRA>
-0.861651

>  <SCORE.INTRA.DIHEDRAL>
-0.0254127

>  <SCORE.INTRA.DIHEDRAL.0>
2.32994

>  <SCORE.INTRA.POLAR>
0

>  <SCORE.INTRA.POLAR.0>
0

>  <SCORE.INTRA.REPUL>
0

>  <SCORE.INTRA.REPUL.0>
0

>  <SCORE.INTRA.SOLV>
0.455669

>  <SCORE.INTRA.SOLV.lig_0>
-117.703

>  <SCORE.INTRA.VDW>
-1.07678

>  <SCORE.INTRA.VDW.0>
-1.59997

>  <SCORE.INTRA.norm>
-0.019583

>  <SCORE.RESTR>
0

>  <SCORE.RESTR.CAVITY>
0

>  <SCORE.RESTR.norm>
0

>  <SCORE.SYSTEM>
0

>  <SCORE.SYSTEM.CONST>
0

>  <SCORE.SYSTEM.DIHEDRAL>
0

>  <SCORE.SYSTEM.SOLV>
0

>  <SCORE.SYSTEM.norm>
0

>  <SCORE.heavy>
44

>  <SCORE.norm>
-0.2179

>  <RMSD>
5.678

$$$$
ligand
 OpenBabel11021811513D
libRbt.so/2013.1/901 2013/11/27
 44 50  0  0  0  0  0  0  0  0999 V2000
   -6.2952   32.6590  -13.7908 P   0  0  2  0  0  0  0  0  0  0  0  0
   -5.9315   36.4528  -17.6224 P   0  0  1  0  0  0  0  0  0  0  0  0
   -6.9248   31.2773  -13.9488 O   0  5  0  0  0  0  0  0  0  0  0  0
   -6.2857   37.7435  -16.9247 O   0  5  0  0  0  0  0  0  0  0  0  0
   -6.3998   33.0021  -12.3242 O   0  0  0  0  0  0  0  0  0  0  0  0
   -5.3170   36.8223  -18.9916 O   0  0  0  0  0  0  0  0  0  0  0  0
   -7.7068   32.9677  -15.8773 C   0  0  0  0  0  0  0  0  0  0  0  0
   -4.6436   34.3029  -16.9996 C   0  0  0  0  0  0  0  0  0  0  0  0
   -7.1320   33.5941  -14.7224 O   0  0  0  0  0  0  0  0  0  0  0  0
   -4.9963   35.6388  -16.5418 O   0  0  0  0  0  0  0  0  0  0  0  0
   -8.5313   33.9784  -16.6674 C   0  0  1  0  0  0  0  0  0  0  0  0
   -3.6455   33.7202  -15.9293 C   0  0  1  0  0  0  0  0  0  0  0  0
   -9.7169   34.0303  -16.1440 O   0  0  0  0  0  0  0  0  0  0  0  0
   -2.7500   34.6104  -15.7892 O   0  0  0  0  0  0  0  0  0  0  0  0
   -7.9704   35.3807  -16.6095 C   0  0  1  0  0  0  0  0  0  0  0  0
   -4.2974   33.6766  -14.5328 C   0  0  1  0  0  0  0  0  0  0  0  0
   -7.2912   35.5760  -17.7709 O   0  0  0  0  0  0  0  0  0  0  0  0
   -4.7084   32.4406  -14.2244 O   0  0  0  0  0  0  0  0  0  0  0  0
   -9.2495   36.2875  -16.5675 C   0  0  1  0  0  0  0  0  0  0  0  0
   -3.2387   34.1813  -13.5260 C   0  0  1  0  0  0  0  0  0  0  0  0
   -9.5093   36.8673  -17.9127 O   0  0  0  0  0  0  0  0  0  0  0  0
   -2.6247   33.0300  -12.7892 O   0  0  0  0  0  0  0  0  0  0  0  0
  -10.2290   35.5300  -16.1903 C   0  0  2  0  0  0  0  0  0  0  0  0
   -2.3417   34.7591  -14.2488 C   0  0  2  0  0  0  0  0  0  0  0  0
   -9.8456   36.3032  -10.8916 N   0  0  0  0  0  0  0  0  0  0  0  0
   -8.8568   35.8254  -11.6986 C   0  0  0  0  0  0  0  0  0  0  0  0
   -9.0554   35.6650  -13.0463 N   0  0  0  0  0  0  0  0  0  0  0  0
  -10.2713   35.9902  -13.5813 C   0  0  0  0  0  0  0  0  0  0  0  0
  -11.2558   36.4545  -12.7992 C   0  0  0  0  0  0  0  0  0  0  0  0
  -11.0426   36.6235  -11.4322 C   0  0  0  0  0  0  0  0  0  0  0  0
  -11.9898   37.1006  -10.5048 N   0  0  0  0  0  0  0  0  0  0  0  0
  -12.3283   36.6946  -13.5829 N   0  0  0  0  0  0  0  0  0  0  0  0
  -11.9942   36.3643  -14.8629 C   0  0  0  0  0  0  0  0  0  0  0  0
  -10.7216   35.9464  -14.8670 N   0  0  0  0  0  0  0  0  0  0  0  0
   -2.9401   39.7013  -15.7775 N   0  0  0  0  0  0  0  0  0  0  0  0
   -3.2396   38.5856  -16.4930 C   0  0  0  0  0  0  0  0  0  0  0  0
   -3.0148   37.3533  -15.9471 N   0  0  0  0  0  0  0  0  0  0  0  0
   -2.4997   37.2432  -14.6928 C   0  0  0  0  0  0  0  0  0  0  0  0
   -2.2044   38.3459  -13.9752 C   0  0  0  0  0  0  0  0  0  0  0  0
   -2.4328   39.5971  -14.5405 C   0  0  0  0  0  0  0  0  0  0  0  0
   -2.1767   40.8945  -13.9694 N   0  0  0  0  0  0  0  0  0  0  0  0
   -1.7118   37.9332  -12.7827 N   0  0  0  0  0  0  0  0  0  0  0  0
   -1.7113   36.5695  -12.7694 C   0  0  0  0  0  0  0  0  0  0  0  0
   -2.2030   36.1526  -13.9536 N   0  0  0  0  0  0  0  0  0  0  0  0
  1  3  1  6  0  0  0
  1  5  2  0  0  0  0
  1  9  1  0  0  0  0
  1 18  1  0  0  0  0
  2  4  1  1  0  0  0
  2  6  2  0  0  0  0
  2 10  1  0  0  0  0
  2 17  1  0  0  0  0
  7  9  1  0  0  0  0
  8 10  1  0  0  0  0
 11  7  1  1  0  0  0
 11 13  1  0  0  0  0
 11 15  1  0  0  0  0
 12  8  1  6  0  0  0
 12 14  1  0  0  0  0
 12 16  1  0  0  0  0
 13 23  1  0  0  0  0
 14 24  1  0  0  0  0
 15 17  1  6  0  0  0
 15 19  1  0  0  0  0
 16 18  1  1  0  0  0
 16 20  1  0  0  0  0
 19 21  1  6  0  0  0
 19 23  1  0  0  0  0
 20 22  1  6  0  0  0
 20 24  1  0  0  0  0
 23 34  1  1  0  0  0
 24 44  1  1  0  0  0
 25 26  2  0  0  0  0
 25 30  1  0  0  0  0
 26 27  1  0  0  0  0
 27 28  2  0  0  0  0
 28 29  1  0  0  0  0
 28 34  1  0  0  0  0
 29 30  2  0  0  0  0
 29 32  1  0  0  0  0
 30 31  1  0  0  0  0
 32 33  2  0  0  0  0
 33 34  1  0  0  0  0
 35 36  2  0  0  0  0
 35 40  1  0  0  0  0
 36 37  1  0  0  0  0
 37 38  2  0  0  0  0
 38 39  1  0  0  0  0
 38 44  1  0  0  0  0
 39 40  2  0  0  0  0
 39 42  1  0  0  0  0
 40 41  1  0  0  0  0
 42 43  2  0  0  0  0
 43 44  1  0  0  0  0
M  CHG  2   3  -1   4  -1
M  END
>  <CHROM.1>
54.19501140,8.26582268,-6.32186443,35.63121862,-14.85378504,-2.96063145,0.03716842
-0.49997190

>  <Name>
ligand

>  <RI>
0

>  <Rbt.Current_Directory>
/home/itssahil/PROJECTS/Mol_Feturizer/New_Systems/rnas/4QLM

>  <Rbt.Executable>
rbdock ($Id: //depot/dev/client3/rdock/2013.1/src/exe/rbdock.cxx#4 $)

>  <Rbt.Library>
libRbt.so (2013.1, Build901 2013/11/27)

>  <Rbt.Parameter_File>
/export/apps/rDock/src/rDock_2013.1_src/data/scripts/dock_solv.prm

>  <Rbt.Receptor>
prm/pocket_docking_5.prm

>  <SCORE>
-11.0329

>  <SCORE.INTER>
-9.99313

>  <SCORE.INTER.CONST>
1

>  <SCORE.INTER.POLAR>
0

>  <SCORE.INTER.ROT>
2

>  <SCORE.INTER.SOLV>
25.1295

>  <SCORE.INTER.VDW>
-19.9719

>  <SCORE.INTER.norm>
-0.227117

>  <SCORE.INTRA>
-1.35133

>  <SCORE.INTRA.DIHEDRAL>
0.088085

>  <SCORE.INTRA.DIHEDRAL.0>
2.32994

>  <SCORE.INTRA.POLAR>
0

>  <SCORE.INTRA.POLAR.0>
0

>  <SCORE.INTRA.REPUL>
0

>  <SCORE.INTRA.REPUL.0>
0

>  <SCORE.INTRA.SOLV>
1.32617

>  <SCORE.INTRA.SOLV.lig_0>
-117.703

>  <SCORE.INTRA.VDW>
-2.05846

>  <SCORE.INTRA.VDW.0>
-1.59997

>  <SCORE.INTRA.norm>
-0.0307119

>  <SCORE.RESTR>
0.311606

>  <SCORE.RESTR.CAVITY>
0.311606

>  <SCORE.RESTR.norm>
0.00708195

>  <SCORE.SYSTEM>
0

>  <SCORE.SYSTEM.CONST>
0

>  <SCORE.SYSTEM.DIHEDRAL>
0

>  <SCORE.SYSTEM.SOLV>
0

>  <SCORE.SYSTEM.norm>
0

>  <SCORE.heavy>
44

>  <SCORE.norm>
-0.250747

>  <RMSD>
6.164

$$$$
ligand
 OpenBabel11021811513D
libRbt.so/2013.1/901 2013/11/27
 44 50  0  0  0  0  0  0  0  0999 V2000
   -6.1885   32.6785  -13.7501 P   0  0  2  0  0  0  0  0  0  0  0  0
   -5.9284   36.6136  -17.4451 P   0  0  1  0  0  0  0  0  0  0  0  0
   -6.7720   31.2835  -13.9600 O   0  5  0  0  0  0  0  0  0  0  0  0
   -6.3280   37.8670  -16.7053 O   0  5  0  0  0  0  0  0  0  0  0  0
   -6.3119   32.9665  -12.2732 O   0  0  0  0  0  0  0  0  0  0  0  0
   -5.3191   37.0504  -18.7967 O   0  0  0  0  0  0  0  0  0  0  0  0
   -7.5985   33.0141  -15.8335 C   0  0  0  0  0  0  0  0  0  0  0  0
   -4.5746   34.4860  -16.8893 C   0  0  0  0  0  0  0  0  0  0  0  0
   -7.0505   33.6180  -14.6540 O   0  0  0  0  0  0  0  0  0  0  0  0
   -4.9729   35.7930  -16.3875 O   0  0  0  0  0  0  0  0  0  0  0  0
   -8.4513   34.0246  -16.5932 C   0  0  1  0  0  0  0  0  0  0  0  0
   -3.5636   33.8988  -15.8335 C   0  0  1  0  0  0  0  0  0  0  0  0
   -9.6407   34.0198  -16.0759 O   0  0  0  0  0  0  0  0  0  0  0  0
   -2.6983   34.8121  -15.6569 O   0  0  0  0  0  0  0  0  0  0  0  0
   -7.9366   35.4414  -16.4831 C   0  0  1  0  0  0  0  0  0  0  0  0
   -4.2211   33.7855  -14.4436 C   0  0  1  0  0  0  0  0  0  0  0  0
   -7.2581   35.6990  -17.6327 O   0  0  0  0  0  0  0  0  0  0  0  0
   -4.5932   32.5267  -14.1809 O   0  0  0  0  0  0  0  0  0  0  0  0
   -9.2447   36.3044  -16.4177 C   0  0  1  0  0  0  0  0  0  0  0  0
   -3.1846   34.2885  -13.4131 C   0  0  1  0  0  0  0  0  0  0  0  0
   -9.5162   36.9221  -17.7436 O   0  0  0  0  0  0  0  0  0  0  0  0
   -2.5373   33.1327  -12.7129 O   0  0  0  0  0  0  0  0  0  0  0  0
  -10.2011   35.5029  -16.0733 C   0  0  2  0  0  0  0  0  0  0  0  0
   -2.3031   34.9200  -14.1097 C   0  0  2  0  0  0  0  0  0  0  0  0
   -9.8056   36.3270  -10.7832 N   0  0  0  0  0  0  0  0  0  0  0  0
   -8.7821   35.9752  -11.6113 C   0  0  0  0  0  0  0  0  0  0  0  0
   -8.9875   35.7889  -12.9547 N   0  0  0  0  0  0  0  0  0  0  0  0
  -10.2455   35.9586  -13.4635 C   0  0  0  0  0  0  0  0  0  0  0  0
  -11.2636   36.2974  -12.6603 C   0  0  0  0  0  0  0  0  0  0  0  0
  -11.0444   36.4941  -11.2980 C   0  0  0  0  0  0  0  0  0  0  0  0
  -12.0241   36.8506  -10.3504 N   0  0  0  0  0  0  0  0  0  0  0  0
  -12.3741   36.4003  -13.4209 N   0  0  0  0  0  0  0  0  0  0  0  0
  -12.0283   36.1122  -14.7081 C   0  0  0  0  0  0  0  0  0  0  0  0
  -10.7138   35.8567  -14.7395 N   0  0  0  0  0  0  0  0  0  0  0  0
   -2.9119   39.8948  -15.5242 N   0  0  0  0  0  0  0  0  0  0  0  0
   -3.1447   38.7963  -16.2894 C   0  0  0  0  0  0  0  0  0  0  0  0
   -2.9273   37.5522  -15.7677 N   0  0  0  0  0  0  0  0  0  0  0  0
   -2.4859   37.4131  -14.4885 C   0  0  0  0  0  0  0  0  0  0  0  0
   -2.2571   38.4986  -13.7219 C   0  0  0  0  0  0  0  0  0  0  0  0
   -2.4774   39.7621  -14.2625 C   0  0  0  0  0  0  0  0  0  0  0  0
   -2.2829   41.0458  -13.6386 N   0  0  0  0  0  0  0  0  0  0  0  0
   -1.8282   38.0586  -12.5146 N   0  0  0  0  0  0  0  0  0  0  0  0
   -1.8001   36.6954  -12.5418 C   0  0  0  0  0  0  0  0  0  0  0  0
   -2.2113   36.3060  -13.7654 N   0  0  0  0  0  0  0  0  0  0  0  0
  1  3  1  6  0  0  0
  1  5  2  0  0  0  0
  1  9  1  0  0  0  0
  1 18  1  0  0  0  0
  2  4  1  1  0  0  0
  2  6  2  0  0  0  0
  2 10  1  0  0  0  0
  2 17  1  0  0  0  0
  7  9  1  0  0  0  0
  8 10  1  0  0  0  0
 11  7  1  1  0  0  0
 11 13  1  0  0  0  0
 11 15  1  0  0  0  0
 12  8  1  6  0  0  0
 12 14  1  0  0  0  0
 12 16  1  0  0  0  0
 13 23  1  0  0  0  0
 14 24  1  0  0  0  0
 15 17  1  6  0  0  0
 15 19  1  0  0  0  0
 16 18  1  1  0  0  0
 16 20  1  0  0  0  0
 19 21  1  6  0  0  0
 19 23  1  0  0  0  0
 20 22  1  6  0  0  0
 20 24  1  0  0  0  0
 23 34  1  1  0  0  0
 24 44  1  1  0  0  0
 25 26  2  0  0  0  0
 25 30  1  0  0  0  0
 26 27  1  0  0  0  0
 27 28  2  0  0  0  0
 28 29  1  0  0  0  0
 28 34  1  0  0  0  0
 29 30  2  0  0  0  0
 29 32  1  0  0  0  0
 30 31  1  0  0  0  0
 32 33  2  0  0  0  0
 33 34  1  0  0  0  0
 35 36  2  0  0  0  0
 35 40  1  0  0  0  0
 36 37  1  0  0  0  0
 37 38  2  0  0  0  0
 38 39  1  0  0  0  0
 38 44  1  0  0  0  0
 39 40  2  0  0  0  0
 39 42  1  0  0  0  0
 40 41  1  0  0  0  0
 42 43  2  0  0  0  0
 43 44  1  0  0  0  0
M  CHG  2   3  -1   4  -1
M  END
>  <CHROM.1>
60.09566977,5.06038153,-6.29058440,35.69896988,-14.71565205,-2.93713288,0.02682942
-0.41549063

>  <Name>
ligand

>  <RI>
0

>  <Rbt.Current_Directory>
/home/itssahil/PROJECTS/Mol_Feturizer/New_Systems/rnas/4QLM

>  <Rbt.Executable>
rbdock ($Id: //depot/dev/client3/rdock/2013.1/src/exe/rbdock.cxx#4 $)

>  <Rbt.Library>
libRbt.so (2013.1, Build901 2013/11/27)

>  <Rbt.Parameter_File>
/export/apps/rDock/src/rDock_2013.1_src/data/scripts/dock_solv.prm

>  <Rbt.Receptor>
prm/pocket_docking_7.prm

>  <SCORE>
-12.4492

>  <SCORE.INTER>
-11.0807

>  <SCORE.INTER.CONST>
1

>  <SCORE.INTER.POLAR>
0

>  <SCORE.INTER.ROT>
2

>  <SCORE.INTER.SOLV>
23.823

>  <SCORE.INTER.VDW>
-20.2615

>  <SCORE.INTER.norm>
-0.251834

>  <SCORE.INTRA>
-1.36849

>  <SCORE.INTRA.DIHEDRAL>
0.0576608

>  <SCORE.INTRA.DIHEDRAL.0>
2.32994

>  <SCORE.INTRA.POLAR>
0

>  <SCORE.INTRA.POLAR.0>
0

>  <SCORE.INTRA.REPUL>
0

>  <SCORE.INTRA.REPUL.0>
0

>  <SCORE.INTRA.SOLV>
1.05505

>  <SCORE.INTRA.SOLV.lig_0>
-117.703

>  <SCORE.INTRA.VDW>
-1.92485

>  <SCORE.INTRA.VDW.0>
-1.59997

>  <SCORE.INTRA.norm>
-0.0311021

>  <SCORE.RESTR>
0

>  <SCORE.RESTR.CAVITY>
0

>  <SCORE.RESTR.norm>
0

>  <SCORE.SYSTEM>
0

>  <SCORE.SYSTEM.CONST>
0

>  <SCORE.SYSTEM.DIHEDRAL>
0

>  <SCORE.SYSTEM.SOLV>
0

>  <SCORE.SYSTEM.norm>
0

>  <SCORE.heavy>
44

>  <SCORE.norm>
-0.282936

>  <RMSD>
6.197

$$$$
ligand
 OpenBabel11021811513D
libRbt.so/2013.1/901 2013/11/27
 44 50  0  0  0  0  0  0  0  0999 V2000
   -7.9515   31.9133  -12.7805 P   0  0  2  0  0  0  0  0  0  0  0  0
   -7.8368   35.1449  -17.1105 P   0  0  1  0  0  0  0  0  0  0  0  0
   -7.9450   30.3868  -12.7960 O   0  5  0  0  0  0  0  0  0  0  0  0
   -8.8395   36.2321  -16.8094 O   0  5  0  0  0  0  0  0  0  0  0  0
   -8.6262   32.3165  -11.4914 O   0  0  0  0  0  0  0  0  0  0  0  0
   -7.0081   35.6071  -18.3307 O   0  0  0  0  0  0  0  0  0  0  0  0
   -8.6520   31.4158  -15.1686 C   0  0  0  0  0  0  0  0  0  0  0  0
   -6.1108   33.7881  -15.7509 C   0  0  0  0  0  0  0  0  0  0  0  0
   -8.7388   32.3278  -14.0654 O   0  0  0  0  0  0  0  0  0  0  0  0
   -7.0542   34.8947  -15.6857 O   0  0  0  0  0  0  0  0  0  0  0  0
   -9.5004   31.9169  -16.3324 C   0  0  1  0  0  0  0  0  0  0  0  0
   -5.3551   33.7724  -14.3688 C   0  0  1  0  0  0  0  0  0  0  0  0
  -10.7212   31.5220  -16.1423 O   0  0  0  0  0  0  0  0  0  0  0  0
   -4.9420   34.9620  -14.2011 O   0  0  0  0  0  0  0  0  0  0  0  0
   -9.5435   33.4244  -16.4331 C   0  0  1  0  0  0  0  0  0  0  0  0
   -6.3450   33.5926  -13.2006 C   0  0  1  0  0  0  0  0  0  0  0  0
   -8.6588   33.7747  -17.4041 O   0  0  0  0  0  0  0  0  0  0  0  0
   -6.3459   32.3316  -12.7513 O   0  0  0  0  0  0  0  0  0  0  0  0
  -11.0110   33.7206  -16.9008 C   0  0  1  0  0  0  0  0  0  0  0  0
   -5.9169   34.5807  -12.0918 C   0  0  1  0  0  0  0  0  0  0  0  0
  -11.0332   34.0136  -18.3592 O   0  0  0  0  0  0  0  0  0  0  0  0
   -5.1845   33.8602  -11.0011 O   0  0  0  0  0  0  0  0  0  0  0  0
  -11.7077   32.6642  -16.6279 C   0  0  2  0  0  0  0  0  0  0  0  0
   -5.1188   35.4082  -12.6743 C   0  0  2  0  0  0  0  0  0  0  0  0
  -13.3402   34.4982  -11.8538 N   0  0  0  0  0  0  0  0  0  0  0  0
  -12.0622   34.5370  -12.3253 C   0  0  0  0  0  0  0  0  0  0  0  0
  -11.7471   34.0410  -13.5647 N   0  0  0  0  0  0  0  0  0  0  0  0
  -12.7387   33.4970  -14.3336 C   0  0  0  0  0  0  0  0  0  0  0  0
  -13.9990   33.4452  -13.8805 C   0  0  0  0  0  0  0  0  0  0  0  0
  -14.3124   33.9601  -12.6237 C   0  0  0  0  0  0  0  0  0  0  0  0
  -15.5917   33.9673  -12.0336 N   0  0  0  0  0  0  0  0  0  0  0  0
  -14.7588   32.8694  -14.8362 N   0  0  0  0  0  0  0  0  0  0  0  0
  -13.9466   32.5586  -15.8864 C   0  0  0  0  0  0  0  0  0  0  0  0
  -12.7046   32.9602  -15.5859 N   0  0  0  0  0  0  0  0  0  0  0  0
   -6.7827   39.5690  -15.3275 N   0  0  0  0  0  0  0  0  0  0  0  0
   -6.3737   38.3820  -15.8471 C   0  0  0  0  0  0  0  0  0  0  0  0
   -5.9571   37.3862  -15.0091 N   0  0  0  0  0  0  0  0  0  0  0  0
   -5.9568   37.5793  -13.6626 C   0  0  0  0  0  0  0  0  0  0  0  0
   -6.3656   38.7530  -13.1396 C   0  0  0  0  0  0  0  0  0  0  0  0
   -6.7846   39.7631  -14.0006 C   0  0  0  0  0  0  0  0  0  0  0  0
   -7.2394   41.0886  -13.6667 N   0  0  0  0  0  0  0  0  0  0  0  0
   -6.2548   38.6569  -11.7930 N   0  0  0  0  0  0  0  0  0  0  0  0
   -5.7805   37.4145  -11.4908 C   0  0  0  0  0  0  0  0  0  0  0  0
   -5.6023   36.7550  -12.6533 N   0  0  0  0  0  0  0  0  0  0  0  0
  1  3  1  1  0  0  0
  1  5  2  0  0  0  0
  1  9  1  0  0  0  0
  1 18  1  0  0  0  0
  2  4  1  1  0  0  0
  2  6  2  0  0  0  0
  2 10  1  0  0  0  0
  2 17  1  0  0  0  0
  7  9  1  0  0  0  0
  8 10  1  0  0  0  0
 11  7  1  1  0  0  0
 11 13  1  0  0  0  0
 11 15  1  0  0  0  0
 12  8  1  6  0  0  0
 12 14  1  0  0  0  0
 12 16  1  0  0  0  0
 13 23  1  0  0  0  0
 14 24  1  0  0  0  0
 15 17  1  6  0  0  0
 15 19  1  0  0  0  0
 16 18  1  1  0  0  0
 16 20  1  0  0  0  0
 19 21  1  6  0  0  0
 19 23  1  0  0  0  0
 20 22  1  1  0  0  0
 20 24  1  0  0  0  0
 23 34  1  1  0  0  0
 24 44  1  6  0  0  0
 25 26  2  0  0  0  0
 25 30  1  0  0  0  0
 26 27  1  0  0  0  0
 27 28  2  0  0  0  0
 28 29  1  0  0  0  0
 28 34  1  0  0  0  0
 29 30  2  0  0  0  0
 29 32  1  0  0  0  0
 30 31  1  0  0  0  0
 32 33  2  0  0  0  0
 33 34  1  0  0  0  0
 35 36  2  0  0  0  0
 35 40  1  0  0  0  0
 36 37  1  0  0  0  0
 37 38  2  0  0  0  0
 38 39  1  0  0  0  0
 38 44  1  0  0  0  0
 39 40  2  0  0  0  0
 39 42  1  0  0  0  0
 40 41  1  0  0  0  0
 42 43  2  0  0  0  0
 43 44  1  0  0  0  0
M  CHG  2   3  -1   4  -1
M  END
>  <CHROM.1>
67.06647655,3.67491735,-8.72412397,34.53438087,-14.42887494,-2.71604721,-0.37381317
-0.47296617

>  <Name>
ligand

>  <RI>
0

>  <Rbt.Current_Directory>
/home/itssahil/PROJECTS/Mol_Feturizer/New_Systems/rnas/4QLM

>  <Rbt.Executable>
rbdock ($Id: //depot/dev/client3/rdock/2013.1/src/exe/rbdock.cxx#4 $)

>  <Rbt.Library>
libRbt.so (2013.1, Build901 2013/11/27)

>  <Rbt.Parameter_File>
/export/apps/rDock/src/rDock_2013.1_src/data/scripts/dock_solv.prm

>  <Rbt.Receptor>
prm/pocket_docking_7.prm

>  <SCORE>
-11.205

>  <SCORE.INTER>
-9.92793

>  <SCORE.INTER.CONST>
1

>  <SCORE.INTER.POLAR>
0

>  <SCORE.INTER.ROT>
2

>  <SCORE.INTER.SOLV>
27.9725

>  <SCORE.INTER.VDW>
-20.8761

>  <SCORE.INTER.norm>
-0.225635

>  <SCORE.INTRA>
-1.2771

>  <SCORE.INTRA.DIHEDRAL>
0.021871

>  <SCORE.INTRA.DIHEDRAL.0>
2.32994

>  <SCORE.INTRA.POLAR>
0

>  <SCORE.INTRA.POLAR.0>
0

>  <SCORE.INTRA.REPUL>
0

>  <SCORE.INTRA.REPUL.0>
0

>  <SCORE.INTRA.SOLV>
0.88501

>  <SCORE.INTRA.SOLV.lig_0>
-117.703

>  <SCORE.INTRA.VDW>
-1.73054

>  <SCORE.INTRA.VDW.0>
-1.59997

>  <SCORE.INTRA.norm>
-0.0290251

>  <SCORE.RESTR>
0

>  <SCORE.RESTR.CAVITY>
0

>  <SCORE.RESTR.norm>
0

>  <SCORE.SYSTEM>
0

>  <SCORE.SYSTEM.CONST>
0

>  <SCORE.SYSTEM.DIHEDRAL>
0

>  <SCORE.SYSTEM.SOLV>
0

>  <SCORE.SYSTEM.norm>
0

>  <SCORE.heavy>
44

>  <SCORE.norm>
-0.25466

>  <RMSD>
6.249

$$$$
ligand
 OpenBabel11021811513D
libRbt.so/2013.1/901 2013/11/27
 44 50  0  0  0  0  0  0  0  0999 V2000
   -6.3007   32.7649  -13.9237 P   0  0  2  0  0  0  0  0  0  0  0  0
   -5.7962   36.5748  -17.7230 P   0  0  1  0  0  0  0  0  0  0  0  0
   -6.9174   31.3812  -14.1125 O   0  5  0  0  0  0  0  0  0  0  0  0
   -6.1841   37.8614  -17.0357 O   0  5  0  0  0  0  0  0  0  0  0  0
   -6.4669   33.1018  -12.4614 O   0  0  0  0  0  0  0  0  0  0  0  0
   -5.1276   36.9522  -19.0645 O   0  0  0  0  0  0  0  0  0  0  0  0
   -7.6268   33.0759  -16.0652 C   0  0  0  0  0  0  0  0  0  0  0  0
   -4.5258   34.4279  -17.0559 C   0  0  0  0  0  0  0  0  0  0  0  0
   -7.1025   33.7001  -14.8854 O   0  0  0  0  0  0  0  0  0  0  0  0
   -4.9026   35.7606  -16.6080 O   0  0  0  0  0  0  0  0  0  0  0  0
   -8.4224   34.0862  -16.8847 C   0  0  1  0  0  0  0  0  0  0  0  0
   -3.5700   33.8451  -15.9477 C   0  0  1  0  0  0  0  0  0  0  0  0
   -9.6288   34.1312  -16.4102 O   0  0  0  0  0  0  0  0  0  0  0  0
   -2.6848   34.7384  -15.7676 O   0  0  0  0  0  0  0  0  0  0  0  0
   -7.8704   35.4905  -16.7987 C   0  0  1  0  0  0  0  0  0  0  0  0
   -4.2785   33.7935  -14.5793 C   0  0  1  0  0  0  0  0  0  0  0  0
   -7.1449   35.6931  -17.9305 O   0  0  0  0  0  0  0  0  0  0  0  0
   -4.6965   32.5546  -14.2926 O   0  0  0  0  0  0  0  0  0  0  0  0
   -9.1539   36.3920  -16.8058 C   0  0  1  0  0  0  0  0  0  0  0  0
   -3.2641   34.2985  -13.5280 C   0  0  1  0  0  0  0  0  0  0  0  0
   -9.3608   36.9759  -18.1585 O   0  0  0  0  0  0  0  0  0  0  0  0
   -2.6760   33.1470  -12.7709 O   0  0  0  0  0  0  0  0  0  0  0  0
  -10.1449   35.6290  -16.4720 C   0  0  2  0  0  0  0  0  0  0  0  0
   -2.3407   34.8828  -14.2112 C   0  0  2  0  0  0  0  0  0  0  0  0
  -12.4729   34.7932  -11.7072 N   0  0  0  0  0  0  0  0  0  0  0  0
  -12.1481   33.8283  -12.6131 C   0  0  0  0  0  0  0  0  0  0  0  0
  -11.5519   34.1466  -13.8068 N   0  0  0  0  0  0  0  0  0  0  0  0
  -11.2846   35.4584  -14.0861 C   0  0  0  0  0  0  0  0  0  0  0  0
  -11.6048   36.4192  -13.2082 C   0  0  0  0  0  0  0  0  0  0  0  0
  -12.2018   36.0863  -11.9934 C   0  0  0  0  0  0  0  0  0  0  0  0
  -12.5859   36.9965  -10.9890 N   0  0  0  0  0  0  0  0  0  0  0  0
  -11.2276   37.6034  -13.7350 N   0  0  0  0  0  0  0  0  0  0  0  0
  -10.6748   37.3609  -14.9576 C   0  0  0  0  0  0  0  0  0  0  0  0
  -10.6931   36.0383  -15.1685 N   0  0  0  0  0  0  0  0  0  0  0  0
   -4.6656   39.4867  -13.4907 N   0  0  0  0  0  0  0  0  0  0  0  0
   -5.2674   38.3125  -13.8154 C   0  0  0  0  0  0  0  0  0  0  0  0
   -4.5088   37.1875  -13.9767 N   0  0  0  0  0  0  0  0  0  0  0  0
   -3.1600   37.2405  -13.8079 C   0  0  0  0  0  0  0  0  0  0  0  0
   -2.5565   38.4012  -13.4813 C   0  0  0  0  0  0  0  0  0  0  0  0
   -3.3363   39.5432  -13.3228 C   0  0  0  0  0  0  0  0  0  0  0  0
   -2.9066   40.8791  -12.9975 N   0  0  0  0  0  0  0  0  0  0  0  0
   -1.2282   38.1538  -13.3841 N   0  0  0  0  0  0  0  0  0  0  0  0
   -1.0193   36.8322  -13.6477 C   0  0  0  0  0  0  0  0  0  0  0  0
   -2.2201   36.2757  -13.9055 N   0  0  0  0  0  0  0  0  0  0  0  0
  1  3  1  6  0  0  0
  1  5  2  0  0  0  0
  1  9  1  0  0  0  0
  1 18  1  0  0  0  0
  2  4  1  1  0  0  0
  2  6  2  0  0  0  0
  2 10  1  0  0  0  0
  2 17  1  0  0  0  0
  7  9  1  0  0  0  0
  8 10  1  0  0  0  0
 11  7  1  1  0  0  0
 11 13  1  0  0  0  0
 11 15  1  0  0  0  0
 12  8  1  6  0  0  0
 12 14  1  0  0  0  0
 12 16  1  0  0  0  0
 13 23  1  0  0  0  0
 14 24  1  0  0  0  0
 15 17  1  6  0  0  0
 15 19  1  0  0  0  0
 16 18  1  1  0  0  0
 16 20  1  0  0  0  0
 19 21  1  6  0  0  0
 19 23  1  0  0  0  0
 20 22  1  6  0  0  0
 20 24  1  0  0  0  0
 23 34  1  1  0  0  0
 24 44  1  1  0  0  0
 25 26  2  0  0  0  0
 25 30  1  0  0  0  0
 26 27  1  0  0  0  0
 27 28  2  0  0  0  0
 28 29  1  0  0  0  0
 28 34  1  0  0  0  0
 29 30  2  0  0  0  0
 29 32  1  0  0  0  0
 30 31  1  0  0  0  0
 32 33  2  0  0  0  0
 33 34  1  0  0  0  0
 35 36  2  0  0  0  0
 35 40  1  0  0  0  0
 36 37  1  0  0  0  0
 37 38  2  0  0  0  0
 38 39  1  0  0  0  0
 38 44  1  0  0  0  0
 39 40  2  0  0  0  0
 39 42  1  0  0  0  0
 40 41  1  0  0  0  0
 42 43  2  0  0  0  0
 43 44  1  0  0  0  0
M  CHG  2   3  -1   4  -1
M  END
>  <CHROM.1>
-27.62280610,72.25183641,-6.60211102,35.61253173,-14.84215811,-3.01296527
0.05499832,0.02719491

>  <Name>
ligand

>  <RI>
0

>  <Rbt.Current_Directory>
/home/itssahil/PROJECTS/Mol_Feturizer/New_Systems/rnas/4QLM

>  <Rbt.Executable>
rbdock ($Id: //depot/dev/client3/rdock/2013.1/src/exe/rbdock.cxx#4 $)

>  <Rbt.Library>
libRbt.so (2013.1, Build901 2013/11/27)

>  <Rbt.Parameter_File>
/export/apps/rDock/src/rDock_2013.1_src/data/scripts/dock_solv.prm

>  <Rbt.Receptor>
prm/pocket_docking_5.prm

>  <SCORE>
-5.86878

>  <SCORE.INTER>
-7.62436

>  <SCORE.INTER.CONST>
1

>  <SCORE.INTER.POLAR>
0

>  <SCORE.INTER.ROT>
2

>  <SCORE.INTER.SOLV>
21.9578

>  <SCORE.INTER.VDW>
-17.3355

>  <SCORE.INTER.norm>
-0.173281

>  <SCORE.INTRA>
1.4233

>  <SCORE.INTRA.DIHEDRAL>
-0.0258283

>  <SCORE.INTRA.DIHEDRAL.0>
2.32994

>  <SCORE.INTRA.POLAR>
0

>  <SCORE.INTRA.POLAR.0>
0

>  <SCORE.INTRA.REPUL>
0

>  <SCORE.INTRA.REPUL.0>
0

>  <SCORE.INTRA.SOLV>
0.51498

>  <SCORE.INTRA.SOLV.lig_0>
-117.703

>  <SCORE.INTRA.VDW>
1.17873

>  <SCORE.INTRA.VDW.0>
-1.59997

>  <SCORE.INTRA.norm>
0.0323478

>  <SCORE.RESTR>
0.332278

>  <SCORE.RESTR.CAVITY>
0.332278

>  <SCORE.RESTR.norm>
0.00755178

>  <SCORE.SYSTEM>
0

>  <SCORE.SYSTEM.CONST>
0

>  <SCORE.SYSTEM.DIHEDRAL>
0

>  <SCORE.SYSTEM.SOLV>
0

>  <SCORE.SYSTEM.norm>
0

>  <SCORE.heavy>
44

>  <SCORE.norm>
-0.133381

>  <RMSD>
6.277

$$$$
ligand
 OpenBabel11021811513D
libRbt.so/2013.1/901 2013/11/27
 44 50  0  0  0  0  0  0  0  0999 V2000
  -10.5270   34.8369  -16.9236 P   0  0  2  0  0  0  0  0  0  0  0  0
   -8.4118   32.1471  -12.7408 P   0  0  1  0  0  0  0  0  0  0  0  0
  -10.7896   34.2718  -18.3173 O   0  5  0  0  0  0  0  0  0  0  0  0
   -7.4307   33.1097  -12.1172 O   0  5  0  0  0  0  0  0  0  0  0  0
  -10.3407   36.3244  -17.1026 O   0  0  0  0  0  0  0  0  0  0  0  0
   -8.6152   30.9847  -11.7425 O   0  0  0  0  0  0  0  0  0  0  0  0
   -9.0599   32.7659  -16.9288 C   0  0  0  0  0  0  0  0  0  0  0  0
  -10.7331   32.3310  -13.8569 C   0  0  0  0  0  0  0  0  0  0  0  0
   -9.2480   34.0933  -16.4199 O   0  0  0  0  0  0  0  0  0  0  0  0
   -9.7119   33.0745  -13.1337 O   0  0  0  0  0  0  0  0  0  0  0  0
   -7.7570   32.1789  -16.3964 C   0  0  1  0  0  0  0  0  0  0  0  0
  -11.9522   33.3134  -14.0309 C   0  0  1  0  0  0  0  0  0  0  0  0
   -6.7907   32.5769  -17.1647 O   0  0  0  0  0  0  0  0  0  0  0  0
  -12.1865   33.7633  -12.8661 O   0  0  0  0  0  0  0  0  0  0  0  0
   -7.4199   32.6458  -14.9990 C   0  0  1  0  0  0  0  0  0  0  0  0
  -11.5339   34.5807  -14.8028 C   0  0  1  0  0  0  0  0  0  0  0  0
   -7.7892   31.6458  -14.1552 O   0  0  0  0  0  0  0  0  0  0  0  0
  -11.9226   34.5233  -16.0824 O   0  0  0  0  0  0  0  0  0  0  0  0
   -5.8580   32.7878  -15.0248 C   0  0  1  0  0  0  0  0  0  0  0  0
  -12.1780   35.7834  -14.0763 C   0  0  1  0  0  0  0  0  0  0  0  0
   -5.2273   31.6141  -14.3630 O   0  0  0  0  0  0  0  0  0  0  0  0
  -13.3854   36.2624  -14.8234 O   0  0  0  0  0  0  0  0  0  0  0  0
   -5.5127   32.8607  -16.2703 C   0  0  2  0  0  0  0  0  0  0  0  0
  -12.5359   35.3241  -12.9265 C   0  0  2  0  0  0  0  0  0  0  0  0
   -1.7836   36.2609  -18.1014 N   0  0  0  0  0  0  0  0  0  0  0  0
   -1.7002   34.9009  -18.1272 C   0  0  0  0  0  0  0  0  0  0  0  0
   -2.7123   34.1178  -17.6332 N   0  0  0  0  0  0  0  0  0  0  0  0
   -3.8202   34.7207  -17.1048 C   0  0  0  0  0  0  0  0  0  0  0  0
   -3.9135   36.0572  -17.0659 C   0  0  0  0  0  0  0  0  0  0  0  0
   -2.8847   36.8455  -17.5786 C   0  0  0  0  0  0  0  0  0  0  0  0
   -2.8595   38.2540  -17.5985 N   0  0  0  0  0  0  0  0  0  0  0  0
   -5.0994   36.3730  -16.5038 N   0  0  0  0  0  0  0  0  0  0  0  0
   -5.7365   35.2095  -16.1882 C   0  0  0  0  0  0  0  0  0  0  0  0
   -4.9577   34.1900  -16.5734 N   0  0  0  0  0  0  0  0  0  0  0  0
   -8.0733   36.8611  -10.7256 N   0  0  0  0  0  0  0  0  0  0  0  0
   -8.2137   36.1867  -11.8969 C   0  0  0  0  0  0  0  0  0  0  0  0
   -9.4630   35.8487  -12.3354 N   0  0  0  0  0  0  0  0  0  0  0  0
  -10.5603   36.1899  -11.6073 C   0  0  0  0  0  0  0  0  0  0  0  0
  -10.4289   36.8631  -10.4464 C   0  0  0  0  0  0  0  0  0  0  0  0
   -9.1525   37.1999  -10.0052 C   0  0  0  0  0  0  0  0  0  0  0  0
   -8.7794   37.8934   -8.7990 N   0  0  0  0  0  0  0  0  0  0  0  0
  -11.6735   37.0592   -9.9488 N   0  0  0  0  0  0  0  0  0  0  0  0
  -12.5715   36.5070  -10.8139 C   0  0  0  0  0  0  0  0  0  0  0  0
  -11.8735   35.9748  -11.8374 N   0  0  0  0  0  0  0  0  0  0  0  0
  1  3  1  6  0  0  0
  1  5  2  0  0  0  0
  1  9  1  0  0  0  0
  1 18  1  0  0  0  0
  2  4  1  1  0  0  0
  2  6  2  0  0  0  0
  2 10  1  0  0  0  0
  2 17  1  0  0  0  0
  7  9  1  0  0  0  0
  8 10  1  0  0  0  0
 11  7  1  6  0  0  0
 11 13  1  0  0  0  0
 11 15  1  0  0  0  0
 12  8  1  1  0  0  0
 12 14  1  0  0  0  0
 12 16  1  0  0  0  0
 13 23  1  0  0  0  0
 14 24  1  0  0  0  0
 15 17  1  1  0  0  0
 15 19  1  0  0  0  0
 16 18  1  6  0  0  0
 16 20  1  0  0  0  0
 19 21  1  6  0  0  0
 19 23  1  0  0  0  0
 20 22  1  6  0  0  0
 20 24  1  0  0  0  0
 23 34  1  6  0  0  0
 24 44  1  1  0  0  0
 25 26  2  0  0  0  0
 25 30  1  0  0  0  0
 26 27  1  0  0  0  0
 27 28  2  0  0  0  0
 28 29  1  0  0  0  0
 28 34  1  0  0  0  0
 29 30  2  0  0  0  0
 29 32  1  0  0  0  0
 30 31  1  0  0  0  0
 32 33  2  0  0  0  0
 33 34  1  0  0  0  0
 35 36  2  0  0  0  0
 35 40  1  0  0  0  0
 36 37  1  0  0  0  0
 37 38  2  0  0  0  0
 38 39  1  0  0  0  0
 38 44  1  0  0  0  0
 39 40  2  0  0  0  0
 39 42  1  0  0  0  0
 40 41  1  0  0  0  0
 42 43  2  0  0  0  0
 43 44  1  0  0  0  0
M  CHG  2   3  -1   4  -1
M  END
>  <CHROM.1>
-114.81014702,68.15067362,-8.39080267,34.57409293,-14.54309817,2.58579264
0.22236104,1.12088794

>  <Name>
ligand

>  <RI>
0

>  <Rbt.Current_Directory>
/home/itssahil/PROJECTS/Mol_Feturizer/New_Systems/rnas/4QLM

>  <Rbt.Executable>
rbdock ($Id: //depot/dev/client3/rdock/2013.1/src/exe/rbdock.cxx#4 $)

>  <Rbt.Library>
libRbt.so (2013.1, Build901 2013/11/27)

>  <Rbt.Parameter_File>
/export/apps/rDock/src/rDock_2013.1_src/data/scripts/dock_solv.prm

>  <Rbt.Receptor>
prm/pocket_docking_6.prm

>  <SCORE>
-12.6552

>  <SCORE.INTER>
-12.789

>  <SCORE.INTER.CONST>
1

>  <SCORE.INTER.POLAR>
0

>  <SCORE.INTER.ROT>
2

>  <SCORE.INTER.SOLV>
31.4885

>  <SCORE.INTER.VDW>
-23.9555

>  <SCORE.INTER.norm>
-0.290659

>  <SCORE.INTRA>
0.133801

>  <SCORE.INTRA.DIHEDRAL>
0.111241

>  <SCORE.INTRA.DIHEDRAL.0>
2.32994

>  <SCORE.INTRA.POLAR>
0

>  <SCORE.INTRA.POLAR.0>
0

>  <SCORE.INTRA.REPUL>
0

>  <SCORE.INTRA.REPUL.0>
0

>  <SCORE.INTRA.SOLV>
0.613705

>  <SCORE.INTRA.SOLV.lig_0>
-117.703

>  <SCORE.INTRA.VDW>
-0.228672

>  <SCORE.INTRA.VDW.0>
-1.59997

>  <SCORE.INTRA.norm>
0.00304093

>  <SCORE.RESTR>
0

>  <SCORE.RESTR.CAVITY>
0

>  <SCORE.RESTR.norm>
0

>  <SCORE.SYSTEM>
0

>  <SCORE.SYSTEM.CONST>
0

>  <SCORE.SYSTEM.DIHEDRAL>
0

>  <SCORE.SYSTEM.SOLV>
0

>  <SCORE.SYSTEM.norm>
0

>  <SCORE.heavy>
44

>  <SCORE.norm>
-0.287618

>  <RMSD>
6.284

$$$$
ligand
 OpenBabel11021811513D
libRbt.so/2013.1/901 2013/11/27
 44 50  0  0  0  0  0  0  0  0999 V2000
   -6.9955   35.3629  -17.7922 P   0  0  2  0  0  0  0  0  0  0  0  0
   -7.0070   32.5613  -13.1709 P   0  0  1  0  0  0  0  0  0  0  0  0
   -6.0347   35.1659  -18.9620 O   0  5  0  0  0  0  0  0  0  0  0  0
   -7.2199   33.5947  -12.0917 O   0  5  0  0  0  0  0  0  0  0  0  0
   -7.4563   36.7988  -17.8655 O   0  0  0  0  0  0  0  0  0  0  0  0
   -7.2163   31.1720  -12.5267 O   0  0  0  0  0  0  0  0  0  0  0  0
   -5.1045   34.0710  -16.6985 C   0  0  0  0  0  0  0  0  0  0  0  0
   -7.8674   32.1911  -15.5773 C   0  0  0  0  0  0  0  0  0  0  0  0
   -6.1547   35.0305  -16.5174 O   0  0  0  0  0  0  0  0  0  0  0  0
   -8.0152   33.0168  -14.3878 O   0  0  0  0  0  0  0  0  0  0  0  0
   -4.3389   33.8778  -15.3939 C   0  0  1  0  0  0  0  0  0  0  0  0
   -8.9858   32.6622  -16.5817 C   0  0  1  0  0  0  0  0  0  0  0  0
   -3.4355   34.8051  -15.3141 O   0  0  0  0  0  0  0  0  0  0  0  0
  -10.0655   32.6404  -15.9125 O   0  0  0  0  0  0  0  0  0  0  0  0
   -5.2094   34.0143  -14.1659 C   0  0  1  0  0  0  0  0  0  0  0  0
   -8.8297   34.1585  -16.9191 C   0  0  1  0  0  0  0  0  0  0  0  0
   -5.5030   32.7520  -13.7552 O   0  0  0  0  0  0  0  0  0  0  0  0
   -8.2548   34.3316  -18.1155 O   0  0  0  0  0  0  0  0  0  0  0  0
   -4.2716   34.7211  -13.1262 C   0  0  1  0  0  0  0  0  0  0  0  0
  -10.2456   34.7777  -16.8845 C   0  0  1  0  0  0  0  0  0  0  0  0
   -3.7394   33.7247  -12.1581 O   0  0  0  0  0  0  0  0  0  0  0  0
  -10.7674   34.9720  -18.2756 O   0  0  0  0  0  0  0  0  0  0  0  0
   -3.3141   35.2694  -13.8031 C   0  0  2  0  0  0  0  0  0  0  0  0
  -10.9725   33.9103  -16.2678 C   0  0  2  0  0  0  0  0  0  0  0  0
   -5.8582   39.9922  -13.5930 N   0  0  0  0  0  0  0  0  0  0  0  0
   -6.4563   38.7698  -13.6653 C   0  0  0  0  0  0  0  0  0  0  0  0
   -5.7138   37.6175  -13.7134 N   0  0  0  0  0  0  0  0  0  0  0  0
   -4.3493   37.7059  -13.6907 C   0  0  0  0  0  0  0  0  0  0  0  0
   -3.7465   38.9013  -13.6271 C   0  0  0  0  0  0  0  0  0  0  0  0
   -4.5086   40.0669  -13.5689 C   0  0  0  0  0  0  0  0  0  0  0  0
   -4.0005   41.3792  -13.4997 N   0  0  0  0  0  0  0  0  0  0  0  0
   -2.4130   38.6921  -13.6141 N   0  0  0  0  0  0  0  0  0  0  0  0
   -2.1994   37.3469  -13.6782 C   0  0  0  0  0  0  0  0  0  0  0  0
   -3.3913   36.7364  -13.7080 N   0  0  0  0  0  0  0  0  0  0  0  0
  -10.2289   36.2775  -11.6892 N   0  0  0  0  0  0  0  0  0  0  0  0
   -9.2781   35.9646  -12.6081 C   0  0  0  0  0  0  0  0  0  0  0  0
   -9.6393   35.3327  -13.7646 N   0  0  0  0  0  0  0  0  0  0  0  0
  -10.9433   35.0235  -13.9979 C   0  0  0  0  0  0  0  0  0  0  0  0
  -11.8929   35.3351  -13.0927 C   0  0  0  0  0  0  0  0  0  0  0  0
  -11.5156   35.9751  -11.9157 C   0  0  0  0  0  0  0  0  0  0  0  0
  -12.3499   36.3802  -10.8135 N   0  0  0  0  0  0  0  0  0  0  0  0
  -13.0798   34.9094  -13.5879 N   0  0  0  0  0  0  0  0  0  0  0  0
  -12.8547   34.3390  -14.8060 C   0  0  0  0  0  0  0  0  0  0  0  0
  -11.5313   34.4172  -15.0518 N   0  0  0  0  0  0  0  0  0  0  0  0
  1  3  1  6  0  0  0
  1  5  2  0  0  0  0
  1  9  1  0  0  0  0
  1 18  1  0  0  0  0
  2  4  1  1  0  0  0
  2  6  2  0  0  0  0
  2 10  1  0  0  0  0
  2 17  1  0  0  0  0
  7  9  1  0  0  0  0
  8 10  1  0  0  0  0
 11  7  1  6  0  0  0
 11 13  1  0  0  0  0
 11 15  1  0  0  0  0
 12  8  1  1  0  0  0
 12 14  1  0  0  0  0
 12 16  1  0  0  0  0
 13 23  1  0  0  0  0
 14 24  1  0  0  0  0
 15 17  1  1  0  0  0
 15 19  1  0  0  0  0
 16 18  1  6  0  0  0
 16 20  1  0  0  0  0
 19 21  1  1  0  0  0
 19 23  1  0  0  0  0
 20 22  1  6  0  0  0
 20 24  1  0  0  0  0
 23 34  1  6  0  0  0
 24 44  1  1  0  0  0
 25 26  2  0  0  0  0
 25 30  1  0  0  0  0
 26 27  1  0  0  0  0
 27 28  2  0  0  0  0
 28 29  1  0  0  0  0
 28 34  1  0  0  0  0
 29 30  2  0  0  0  0
 29 32  1  0  0  0  0
 30 31  1  0  0  0  0
 32 33  2  0  0  0  0
 33 34  1  0  0  0  0
 35 36  2  0  0  0  0
 35 40  1  0  0  0  0
 36 37  1  0  0  0  0
 37 38  2  0  0  0  0
 38 39  1  0  0  0  0
 38 44  1  0  0  0  0
 39 40  2  0  0  0  0
 39 42  1  0  0  0  0
 40 41  1  0  0  0  0
 42 43  2  0  0  0  0
 43 44  1  0  0  0  0
M  CHG  2   3  -1   4  -1
M  END
>  <CHROM.1>
81.30084362,68.11354066,-7.29954289,35.22138788,-14.65155055,-2.76840982
0.21150911,0.75212309

>  <Name>
ligand

>  <RI>
0

>  <Rbt.Current_Directory>
/home/itssahil/PROJECTS/Mol_Feturizer/New_Systems/rnas/4QLM

>  <Rbt.Executable>
rbdock ($Id: //depot/dev/client3/rdock/2013.1/src/exe/rbdock.cxx#4 $)

>  <Rbt.Library>
libRbt.so (2013.1, Build901 2013/11/27)

>  <Rbt.Parameter_File>
/export/apps/rDock/src/rDock_2013.1_src/data/scripts/dock_solv.prm

>  <Rbt.Receptor>
prm/pocket_docking_5.prm

>  <SCORE>
-4.61967

>  <SCORE.INTER>
-3.15997

>  <SCORE.INTER.CONST>
1

>  <SCORE.INTER.POLAR>
0

>  <SCORE.INTER.ROT>
2

>  <SCORE.INTER.SOLV>
27.7639

>  <SCORE.INTER.VDW>
-16.2946

>  <SCORE.INTER.norm>
-0.0718174

>  <SCORE.INTRA>
-1.73929

>  <SCORE.INTRA.DIHEDRAL>
-0.0231882

>  <SCORE.INTRA.DIHEDRAL.0>
2.32994

>  <SCORE.INTRA.POLAR>
0

>  <SCORE.INTRA.POLAR.0>
0

>  <SCORE.INTRA.REPUL>
0

>  <SCORE.INTRA.REPUL.0>
0

>  <SCORE.INTRA.SOLV>
0.616507

>  <SCORE.INTRA.SOLV.lig_0>
-117.703

>  <SCORE.INTRA.VDW>
-2.03595

>  <SCORE.INTRA.VDW.0>
-1.59997

>  <SCORE.INTRA.norm>
-0.0395294

>  <SCORE.RESTR>
0.279592

>  <SCORE.RESTR.CAVITY>
0.279592

>  <SCORE.RESTR.norm>
0.00635437

>  <SCORE.SYSTEM>
0

>  <SCORE.SYSTEM.CONST>
0

>  <SCORE.SYSTEM.DIHEDRAL>
0

>  <SCORE.SYSTEM.SOLV>
0

>  <SCORE.SYSTEM.norm>
0

>  <SCORE.heavy>
44

>  <SCORE.norm>
-0.104992

>  <RMSD>
6.304

$$$$
ligand
 OpenBabel11021811513D
libRbt.so/2013.1/901 2013/11/27
 44 50  0  0  0  0  0  0  0  0999 V2000
   -5.7810   36.5826  -17.9668 P   0  0  2  0  0  0  0  0  0  0  0  0
   -5.6221   33.4378  -13.5747 P   0  0  1  0  0  0  0  0  0  0  0  0
   -5.0767   36.3118  -19.2939 O   0  5  0  0  0  0  0  0  0  0  0  0
   -5.4500   34.3938  -12.4195 O   0  5  0  0  0  0  0  0  0  0  0  0
   -5.9502   38.0804  -17.8800 O   0  0  0  0  0  0  0  0  0  0  0  0
   -6.0010   32.0617  -12.9817 O   0  0  0  0  0  0  0  0  0  0  0  0
   -4.0385   34.8665  -17.2887 C   0  0  0  0  0  0  0  0  0  0  0  0
   -6.9092   33.4495  -15.8134 C   0  0  0  0  0  0  0  0  0  0  0  0
   -4.8328   35.9869  -16.8765 O   0  0  0  0  0  0  0  0  0  0  0  0
   -6.6982   34.1804  -14.5724 O   0  0  0  0  0  0  0  0  0  0  0  0
   -3.1305   34.4184  -16.1484 C   0  0  1  0  0  0  0  0  0  0  0  0
   -8.0550   34.2095  -16.5822 C   0  0  1  0  0  0  0  0  0  0  0  0
   -2.0586   35.1482  -16.1745 O   0  0  0  0  0  0  0  0  0  0  0  0
   -8.9973   34.3327  -15.7390 O   0  0  0  0  0  0  0  0  0  0  0  0
   -3.7504   34.6079  -14.7830 C   0  0  1  0  0  0  0  0  0  0  0  0
   -7.6575   35.6733  -16.8583 C   0  0  1  0  0  0  0  0  0  0  0  0
   -4.2223   33.3923  -14.3982 O   0  0  0  0  0  0  0  0  0  0  0  0
   -7.2563   35.8396  -18.1245 O   0  0  0  0  0  0  0  0  0  0  0  0
   -2.5374   35.0311  -13.8832 C   0  0  1  0  0  0  0  0  0  0  0  0
   -8.8968   36.5427  -16.5458 C   0  0  1  0  0  0  0  0  0  0  0  0
   -2.0693   33.8710  -13.0779 O   0  0  0  0  0  0  0  0  0  0  0  0
   -9.5826   36.9535  -17.8132 O   0  0  0  0  0  0  0  0  0  0  0  0
   -1.6089   35.4465  -14.6838 C   0  0  2  0  0  0  0  0  0  0  0  0
   -9.6759   35.7770  -15.8619 C   0  0  2  0  0  0  0  0  0  0  0  0
   -2.9291   40.6461  -14.8903 N   0  0  0  0  0  0  0  0  0  0  0  0
   -3.7347   39.6068  -15.2483 C   0  0  0  0  0  0  0  0  0  0  0  0
   -3.3018   38.3085  -15.1567 N   0  0  0  0  0  0  0  0  0  0  0  0
   -2.0368   38.0614  -14.6995 C   0  0  0  0  0  0  0  0  0  0  0  0
   -1.2304   39.0734  -14.3506 C   0  0  0  0  0  0  0  0  0  0  0  0
   -1.6814   40.3894  -14.4377 C   0  0  0  0  0  0  0  0  0  0  0  0
   -0.9369   41.5378  -14.1034 N   0  0  0  0  0  0  0  0  0  0  0  0
   -0.0589   38.5453  -13.9371 N   0  0  0  0  0  0  0  0  0  0  0  0
   -0.1505   37.1889  -14.0427 C   0  0  0  0  0  0  0  0  0  0  0  0
   -1.3744   36.8877  -14.4959 N   0  0  0  0  0  0  0  0  0  0  0  0
  -12.3409   35.3944  -11.4041 N   0  0  0  0  0  0  0  0  0  0  0  0
  -12.4831   34.6141  -12.5074 C   0  0  0  0  0  0  0  0  0  0  0  0
  -11.7062   34.8512  -13.6063 N   0  0  0  0  0  0  0  0  0  0  0  0
  -10.7919   35.8584  -13.5946 C   0  0  0  0  0  0  0  0  0  0  0  0
  -10.6421   36.6338  -12.5017 C   0  0  0  0  0  0  0  0  0  0  0  0
  -11.4403   36.3878  -11.3883 C   0  0  0  0  0  0  0  0  0  0  0  0
  -11.4637   37.0949  -10.1335 N   0  0  0  0  0  0  0  0  0  0  0  0
   -9.6753   37.5414  -12.7784 N   0  0  0  0  0  0  0  0  0  0  0  0
   -9.2275   37.3156  -14.0466 C   0  0  0  0  0  0  0  0  0  0  0  0
   -9.9220   36.2711  -14.5416 N   0  0  0  0  0  0  0  0  0  0  0  0
  1  3  1  6  0  0  0
  1  5  2  0  0  0  0
  1  9  1  0  0  0  0
  1 18  1  0  0  0  0
  2  4  1  1  0  0  0
  2  6  2  0  0  0  0
  2 10  1  0  0  0  0
  2 17  1  0  0  0  0
  7  9  1  0  0  0  0
  8 10  1  0  0  0  0
 11  7  1  6  0  0  0
 11 13  1  0  0  0  0
 11 15  1  0  0  0  0
 12  8  1  1  0  0  0
 12 14  1  0  0  0  0
 12 16  1  0  0  0  0
 13 23  1  0  0  0  0
 14 24  1  0  0  0  0
 15 17  1  1  0  0  0
 15 19  1  0  0  0  0
 16 18  1  6  0  0  0
 16 20  1  0  0  0  0
 19 21  1  6  0  0  0
 19 23  1  0  0  0  0
 20 22  1  6  0  0  0
 20 24  1  0  0  0  0
 23 34  1  6  0  0  0
 24 44  1  1  0  0  0
 25 26  2  0  0  0  0
 25 30  1  0  0  0  0
 26 27  1  0  0  0  0
 27 28  2  0  0  0  0
 28 29  1  0  0  0  0
 28 34  1  0  0  0  0
 29 30  2  0  0  0  0
 29 32  1  0  0  0  0
 30 31  1  0  0  0  0
 32 33  2  0  0  0  0
 33 34  1  0  0  0  0
 35 36  2  0  0  0  0
 35 40  1  0  0  0  0
 36 37  1  0  0  0  0
 37 38  2  0  0  0  0
 38 39  1  0  0  0  0
 38 44  1  0  0  0  0
 39 40  2  0  0  0  0
 39 42  1  0  0  0  0
 40 41  1  0  0  0  0
 42 43  2  0  0  0  0
 43 44  1  0  0  0  0
M  CHG  2   3  -1   4  -1
M  END
>  <CHROM.1>
52.77834115,-68.73250263,-5.94415378,36.06628748,-14.91136027,0.24434268
-0.12402627,-1.10160179

>  <Name>
ligand

>  <RI>
0

>  <Rbt.Current_Directory>
/home/itssahil/PROJECTS/Mol_Feturizer/New_Systems/rnas/4QLM

>  <Rbt.Executable>
rbdock ($Id: //depot/dev/client3/rdock/2013.1/src/exe/rbdock.cxx#4 $)

>  <Rbt.Library>
libRbt.so (2013.1, Build901 2013/11/27)

>  <Rbt.Parameter_File>
/export/apps/rDock/src/rDock_2013.1_src/data/scripts/dock_solv.prm

>  <Rbt.Receptor>
prm/pocket_docking_8.prm

>  <SCORE>
-11.4607

>  <SCORE.INTER>
-12.3653

>  <SCORE.INTER.CONST>
1

>  <SCORE.INTER.POLAR>
0

>  <SCORE.INTER.ROT>
2

>  <SCORE.INTER.SOLV>
27.7345

>  <SCORE.INTER.VDW>
-22.4217

>  <SCORE.INTER.norm>
-0.28103

>  <SCORE.INTRA>
0.904608

>  <SCORE.INTRA.DIHEDRAL>
0.09518

>  <SCORE.INTRA.DIHEDRAL.0>
2.32994

>  <SCORE.INTRA.POLAR>
0

>  <SCORE.INTRA.POLAR.0>
0

>  <SCORE.INTRA.REPUL>
0

>  <SCORE.INTRA.REPUL.0>
0

>  <SCORE.INTRA.SOLV>
0.265771

>  <SCORE.INTRA.SOLV.lig_0>
-117.703

>  <SCORE.INTRA.VDW>
0.724133

>  <SCORE.INTRA.VDW.0>
-1.59997

>  <SCORE.INTRA.norm>
0.0205593

>  <SCORE.RESTR>
0

>  <SCORE.RESTR.CAVITY>
0

>  <SCORE.RESTR.norm>
0

>  <SCORE.SYSTEM>
0

>  <SCORE.SYSTEM.CONST>
0

>  <SCORE.SYSTEM.DIHEDRAL>
0

>  <SCORE.SYSTEM.SOLV>
0

>  <SCORE.SYSTEM.norm>
0

>  <SCORE.heavy>
44

>  <SCORE.norm>
-0.260471

>  <RMSD>
6.314

$$$$
ligand
 OpenBabel11021811513D
libRbt.so/2013.1/901 2013/11/27
 44 50  0  0  0  0  0  0  0  0999 V2000
   -7.8918   32.0366  -12.7381 P   0  0  2  0  0  0  0  0  0  0  0  0
   -7.2450   34.9076  -17.2707 P   0  0  1  0  0  0  0  0  0  0  0  0
   -8.0710   30.5232  -12.6489 O   0  5  0  0  0  0  0  0  0  0  0  0
   -8.1170   36.1256  -17.0858 O   0  5  0  0  0  0  0  0  0  0  0  0
   -8.5534   32.6103  -11.5082 O   0  0  0  0  0  0  0  0  0  0  0  0
   -6.3275   35.1775  -18.4850 O   0  0  0  0  0  0  0  0  0  0  0  0
   -8.5707   31.4537  -15.1131 C   0  0  0  0  0  0  0  0  0  0  0  0
   -5.7419   33.4573  -15.7524 C   0  0  0  0  0  0  0  0  0  0  0  0
   -8.5811   32.4475  -14.0793 O   0  0  0  0  0  0  0  0  0  0  0  0
   -6.5450   34.6702  -15.8016 O   0  0  0  0  0  0  0  0  0  0  0  0
   -9.3139   31.9664  -16.3421 C   0  0  1  0  0  0  0  0  0  0  0  0
   -5.0385   33.4521  -14.3429 C   0  0  1  0  0  0  0  0  0  0  0  0
  -10.5791   31.7348  -16.1752 O   0  0  0  0  0  0  0  0  0  0  0  0
   -4.4892   34.5930  -14.2403 O   0  0  0  0  0  0  0  0  0  0  0  0
   -9.1696   33.4569  -16.5472 C   0  0  1  0  0  0  0  0  0  0  0  0
   -6.0800   33.4772  -13.2064 C   0  0  1  0  0  0  0  0  0  0  0  0
   -8.2181   33.6275  -17.5031 O   0  0  0  0  0  0  0  0  0  0  0  0
   -6.2490   32.2615  -12.6723 O   0  0  0  0  0  0  0  0  0  0  0  0
  -10.5743   33.8912  -17.0934 C   0  0  1  0  0  0  0  0  0  0  0  0
   -5.5705   34.4854  -12.1513 C   0  0  1  0  0  0  0  0  0  0  0  0
  -10.5138   34.0778  -18.5682 O   0  0  0  0  0  0  0  0  0  0  0  0
   -4.9668   33.7640  -10.9849 O   0  0  0  0  0  0  0  0  0  0  0  0
  -11.4029   32.9481  -16.7775 C   0  0  2  0  0  0  0  0  0  0  0  0
   -4.6592   35.1671  -12.7560 C   0  0  2  0  0  0  0  0  0  0  0  0
  -12.9803   34.8556  -12.0136 N   0  0  0  0  0  0  0  0  0  0  0  0
  -11.6951   34.5792  -12.3730 C   0  0  0  0  0  0  0  0  0  0  0  0
  -11.3952   34.0940  -13.6204 N   0  0  0  0  0  0  0  0  0  0  0  0
  -12.4102   33.8843  -14.5126 C   0  0  0  0  0  0  0  0  0  0  0  0
  -13.6798   34.1446  -14.1712 C   0  0  0  0  0  0  0  0  0  0  0  0
  -13.9750   34.6464  -12.9048 C   0  0  0  0  0  0  0  0  0  0  0  0
  -15.2615   34.9602  -12.4238 N   0  0  0  0  0  0  0  0  0  0  0  0
  -14.4616   33.8537  -15.2326 N   0  0  0  0  0  0  0  0  0  0  0  0
  -13.6555   33.4016  -16.2351 C   0  0  0  0  0  0  0  0  0  0  0  0
  -12.3893   33.4360  -15.7996 N   0  0  0  0  0  0  0  0  0  0  0  0
   -7.9922   38.8731  -14.2651 N   0  0  0  0  0  0  0  0  0  0  0  0
   -8.1401   37.5316  -14.4227 C   0  0  0  0  0  0  0  0  0  0  0  0
   -7.1633   36.6877  -13.9743 N   0  0  0  0  0  0  0  0  0  0  0  0
   -6.0520   37.1864  -13.3687 C   0  0  0  0  0  0  0  0  0  0  0  0
   -5.9005   38.5162  -13.2049 C   0  0  0  0  0  0  0  0  0  0  0  0
   -6.8985   39.3687  -13.6681 C   0  0  0  0  0  0  0  0  0  0  0  0
   -6.9372   40.8078  -13.6171 N   0  0  0  0  0  0  0  0  0  0  0  0
   -4.7137   38.7151  -12.5827 N   0  0  0  0  0  0  0  0  0  0  0  0
   -4.1388   37.4986  -12.3601 C   0  0  0  0  0  0  0  0  0  0  0  0
   -4.9754   36.5599  -12.8469 N   0  0  0  0  0  0  0  0  0  0  0  0
  1  3  1  1  0  0  0
  1  5  2  0  0  0  0
  1  9  1  0  0  0  0
  1 18  1  0  0  0  0
  2  4  1  1  0  0  0
  2  6  2  0  0  0  0
  2 10  1  0  0  0  0
  2 17  1  0  0  0  0
  7  9  1  0  0  0  0
  8 10  1  0  0  0  0
 11  7  1  1  0  0  0
 11 13  1  0  0  0  0
 11 15  1  0  0  0  0
 12  8  1  6  0  0  0
 12 14  1  0  0  0  0
 12 16  1  0  0  0  0
 13 23  1  0  0  0  0
 14 24  1  0  0  0  0
 15 17  1  6  0  0  0
 15 19  1  0  0  0  0
 16 18  1  1  0  0  0
 16 20  1  0  0  0  0
 19 21  1  6  0  0  0
 19 23  1  0  0  0  0
 20 22  1  1  0  0  0
 20 24  1  0  0  0  0
 23 34  1  1  0  0  0
 24 44  1  6  0  0  0
 25 26  2  0  0  0  0
 25 30  1  0  0  0  0
 26 27  1  0  0  0  0
 27 28  2  0  0  0  0
 28 29  1  0  0  0  0
 28 34  1  0  0  0  0
 29 30  2  0  0  0  0
 29 32  1  0  0  0  0
 30 31  1  0  0  0  0
 32 33  2  0  0  0  0
 33 34  1  0  0  0  0
 35 36  2  0  0  0  0
 35 40  1  0  0  0  0
 36 37  1  0  0  0  0
 37 38  2  0  0  0  0
 38 39  1  0  0  0  0
 38 44  1  0  0  0  0
 39 40  2  0  0  0  0
 39 42  1  0  0  0  0
 40 41  1  0  0  0  0
 42 43  2  0  0  0  0
 43 44  1  0  0  0  0
M  CHG  2   3  -1   4  -1
M  END
>  <CHROM.1>
54.73828328,64.33336377,-8.46272115,34.54148348,-14.46459001,-2.73067825
-0.12194752,0.19212005

>  <Name>
ligand

>  <RI>
0

>  <Rbt.Current_Directory>
/home/itssahil/PROJECTS/Mol_Feturizer/New_Systems/rnas/4QLM

>  <Rbt.Executable>
rbdock ($Id: //depot/dev/client3/rdock/2013.1/src/exe/rbdock.cxx#4 $)

>  <Rbt.Library>
libRbt.so (2013.1, Build901 2013/11/27)

>  <Rbt.Parameter_File>
/export/apps/rDock/src/rDock_2013.1_src/data/scripts/dock_solv.prm

>  <Rbt.Receptor>
prm/pocket_docking_5.prm

>  <SCORE>
-8.68648

>  <SCORE.INTER>
-8.00641

>  <SCORE.INTER.CONST>
1

>  <SCORE.INTER.POLAR>
0

>  <SCORE.INTER.ROT>
2

>  <SCORE.INTER.SOLV>
25.2552

>  <SCORE.INTER.VDW>
-18.6894

>  <SCORE.INTER.norm>
-0.181964

>  <SCORE.INTRA>
-1.86606

>  <SCORE.INTRA.DIHEDRAL>
0.0919854

>  <SCORE.INTRA.DIHEDRAL.0>
2.32994

>  <SCORE.INTRA.POLAR>
0

>  <SCORE.INTRA.POLAR.0>
0

>  <SCORE.INTRA.REPUL>
0

>  <SCORE.INTRA.REPUL.0>
0

>  <SCORE.INTRA.SOLV>
0.994233

>  <SCORE.INTRA.SOLV.lig_0>
-117.703

>  <SCORE.INTRA.VDW>
-2.40917

>  <SCORE.INTRA.VDW.0>
-1.59997

>  <SCORE.INTRA.norm>
-0.0424105

>  <SCORE.RESTR>
1.18599

>  <SCORE.RESTR.CAVITY>
1.18599

>  <SCORE.RESTR.norm>
0.0269544

>  <SCORE.SYSTEM>
0

>  <SCORE.SYSTEM.CONST>
0

>  <SCORE.SYSTEM.DIHEDRAL>
0

>  <SCORE.SYSTEM.SOLV>
0

>  <SCORE.SYSTEM.norm>
0

>  <SCORE.heavy>
44

>  <SCORE.norm>
-0.19742

>  <RMSD>
6.348

$$$$
ligand
 OpenBabel11021811513D
libRbt.so/2013.1/901 2013/11/27
 44 50  0  0  0  0  0  0  0  0999 V2000
   -5.2977   35.9304  -12.2141 P   0  0  2  0  0  0  0  0  0  0  0  0
   -6.9963   33.6952  -16.8319 P   0  0  1  0  0  0  0  0  0  0  0  0
   -5.6583   35.4686  -10.8044 O   0  5  0  0  0  0  0  0  0  0  0  0
   -7.3430   34.8628  -17.7231 O   0  5  0  0  0  0  0  0  0  0  0  0
   -4.9697   37.3999  -12.1028 O   0  0  0  0  0  0  0  0  0  0  0  0
   -6.9626   32.4309  -17.7205 O   0  0  0  0  0  0  0  0  0  0  0  0
   -7.3589   34.5133  -12.6436 C   0  0  0  0  0  0  0  0  0  0  0  0
   -5.1771   33.1837  -15.0720 C   0  0  0  0  0  0  0  0  0  0  0  0
   -6.5655   35.6268  -13.0761 O   0  0  0  0  0  0  0  0  0  0  0  0
   -5.6118   34.1502  -16.0698 O   0  0  0  0  0  0  0  0  0  0  0  0
   -8.5828   34.3606  -13.5404 C   0  0  1  0  0  0  0  0  0  0  0  0
   -3.7836   33.6936  -14.5432 C   0  0  1  0  0  0  0  0  0  0  0  0
   -9.5096   35.1528  -13.0980 O   0  0  0  0  0  0  0  0  0  0  0  0
   -3.0873   33.9010  -15.5853 O   0  0  0  0  0  0  0  0  0  0  0  0
   -8.3233   34.7565  -14.9758 C   0  0  1  0  0  0  0  0  0  0  0  0
   -3.9071   35.1050  -13.9352 C   0  0  1  0  0  0  0  0  0  0  0  0
   -8.1258   33.6030  -15.6677 O   0  0  0  0  0  0  0  0  0  0  0  0
   -3.9384   35.0592  -12.5977 O   0  0  0  0  0  0  0  0  0  0  0  0
   -9.6662   35.4347  -15.4194 C   0  0  1  0  0  0  0  0  0  0  0  0
   -2.6935   35.9195  -14.4383 C   0  0  1  0  0  0  0  0  0  0  0  0
  -10.4712   34.4875  -16.2369 O   0  0  0  0  0  0  0  0  0  0  0  0
   -1.6537   36.0289  -13.3650 O   0  0  0  0  0  0  0  0  0  0  0  0
  -10.2926   35.7616  -14.3348 C   0  0  2  0  0  0  0  0  0  0  0  0
   -2.2236   35.2392  -15.4269 C   0  0  2  0  0  0  0  0  0  0  0  0
  -12.0930   40.6376  -15.6782 N   0  0  0  0  0  0  0  0  0  0  0  0
  -12.4761   39.4628  -16.2529 C   0  0  0  0  0  0  0  0  0  0  0  0
  -11.9556   38.2646  -15.8348 N   0  0  0  0  0  0  0  0  0  0  0  0
  -11.0341   38.2579  -14.8243 C   0  0  0  0  0  0  0  0  0  0  0  0
  -10.6421   39.4058  -14.2542 C   0  0  0  0  0  0  0  0  0  0  0  0
  -11.1831   40.6182  -14.6786 C   0  0  0  0  0  0  0  0  0  0  0  0
  -10.8577   41.8889  -14.1645 N   0  0  0  0  0  0  0  0  0  0  0  0
   -9.7410   39.1049  -13.2952 N   0  0  0  0  0  0  0  0  0  0  0  0
   -9.5757   37.7514  -13.2856 C   0  0  0  0  0  0  0  0  0  0  0  0
  -10.3844   37.2260  -14.2152 N   0  0  0  0  0  0  0  0  0  0  0  0
   -0.7067   35.6175  -20.3944 N   0  0  0  0  0  0  0  0  0  0  0  0
   -0.3472   34.6559  -19.5042 C   0  0  0  0  0  0  0  0  0  0  0  0
   -0.8305   34.7042  -18.2269 N   0  0  0  0  0  0  0  0  0  0  0  0
   -1.6709   35.7052  -17.8497 C   0  0  0  0  0  0  0  0  0  0  0  0
   -2.0356   36.6602  -18.7290 C   0  0  0  0  0  0  0  0  0  0  0  0
   -1.5355   36.6056  -20.0268 C   0  0  0  0  0  0  0  0  0  0  0  0
   -1.7736   37.5201  -21.1140 N   0  0  0  0  0  0  0  0  0  0  0  0
   -2.8638   37.5133  -18.0801 N   0  0  0  0  0  0  0  0  0  0  0  0
   -3.0107   37.0737  -16.7975 C   0  0  0  0  0  0  0  0  0  0  0  0
   -2.2716   35.9536  -16.6660 N   0  0  0  0  0  0  0  0  0  0  0  0
  1  3  1  1  0  0  0
  1  5  2  0  0  0  0
  1  9  1  0  0  0  0
  1 18  1  0  0  0  0
  2  4  1  6  0  0  0
  2  6  2  0  0  0  0
  2 10  1  0  0  0  0
  2 17  1  0  0  0  0
  7  9  1  0  0  0  0
  8 10  1  0  0  0  0
 11  7  1  1  0  0  0
 11 13  1  0  0  0  0
 11 15  1  0  0  0  0
 12  8  1  6  0  0  0
 12 14  1  0  0  0  0
 12 16  1  0  0  0  0
 13 23  1  0  0  0  0
 14 24  1  0  0  0  0
 15 17  1  6  0  0  0
 15 19  1  0  0  0  0
 16 18  1  1  0  0  0
 16 20  1  0  0  0  0
 19 21  1  1  0  0  0
 19 23  1  0  0  0  0
 20 22  1  1  0  0  0
 20 24  1  0  0  0  0
 23 34  1  1  0  0  0
 24 44  1  6  0  0  0
 25 26  2  0  0  0  0
 25 30  1  0  0  0  0
 26 27  1  0  0  0  0
 27 28  2  0  0  0  0
 28 29  1  0  0  0  0
 28 34  1  0  0  0  0
 29 30  2  0  0  0  0
 29 32  1  0  0  0  0
 30 31  1  0  0  0  0
 32 33  2  0  0  0  0
 33 34  1  0  0  0  0
 35 36  2  0  0  0  0
 35 40  1  0  0  0  0
 36 37  1  0  0  0  0
 37 38  2  0  0  0  0
 38 39  1  0  0  0  0
 38 44  1  0  0  0  0
 39 40  2  0  0  0  0
 39 42  1  0  0  0  0
 40 41  1  0  0  0  0
 42 43  2  0  0  0  0
 43 44  1  0  0  0  0
M  CHG  2   3  -1   4  -1
M  END
>  <CHROM.1>
-169.95635184,-73.44471524,-6.24296281,35.99522716,-15.37315996,-2.93134360
0.38948818,-1.21135709

>  <Name>
ligand

>  <RI>
0

>  <Rbt.Current_Directory>
/home/itssahil/PROJECTS/Mol_Feturizer/New_Systems/rnas/4QLM

>  <Rbt.Executable>
rbdock ($Id: //depot/dev/client3/rdock/2013.1/src/exe/rbdock.cxx#4 $)

>  <Rbt.Library>
libRbt.so (2013.1, Build901 2013/11/27)

>  <Rbt.Parameter_File>
/export/apps/rDock/src/rDock_2013.1_src/data/scripts/dock_solv.prm

>  <Rbt.Receptor>
prm/pocket_docking_7.prm

>  <SCORE>
-12.86

>  <SCORE.INTER>
-14.735

>  <SCORE.INTER.CONST>
1

>  <SCORE.INTER.POLAR>
0

>  <SCORE.INTER.ROT>
2

>  <SCORE.INTER.SOLV>
29.4055

>  <SCORE.INTER.VDW>
-24.5585

>  <SCORE.INTER.norm>
-0.334887

>  <SCORE.INTRA>
1.875

>  <SCORE.INTRA.DIHEDRAL>
0.00272707

>  <SCORE.INTRA.DIHEDRAL.0>
2.32994

>  <SCORE.INTRA.POLAR>
0

>  <SCORE.INTRA.POLAR.0>
0

>  <SCORE.INTRA.REPUL>
0

>  <SCORE.INTRA.REPUL.0>
0

>  <SCORE.INTRA.SOLV>
0.0447765

>  <SCORE.INTRA.SOLV.lig_0>
-117.703

>  <SCORE.INTRA.VDW>
1.85124

>  <SCORE.INTRA.VDW.0>
-1.59997

>  <SCORE.INTRA.norm>
0.0426135

>  <SCORE.RESTR>
0

>  <SCORE.RESTR.CAVITY>
0

>  <SCORE.RESTR.norm>
0

>  <SCORE.SYSTEM>
0

>  <SCORE.SYSTEM.CONST>
0

>  <SCORE.SYSTEM.DIHEDRAL>
0

>  <SCORE.SYSTEM.SOLV>
0

>  <SCORE.SYSTEM.norm>
0

>  <SCORE.heavy>
44

>  <SCORE.norm>
-0.292274

>  <RMSD>
6.378

$$$$
ligand
 OpenBabel11021811513D
libRbt.so/2013.1/901 2013/11/27
 44 50  0  0  0  0  0  0  0  0999 V2000
   -7.8038   31.9728  -12.7873 P   0  0  2  0  0  0  0  0  0  0  0  0
   -7.6512   35.1706  -17.1411 P   0  0  1  0  0  0  0  0  0  0  0  0
   -7.8232   30.4464  -12.7916 O   0  5  0  0  0  0  0  0  0  0  0  0
   -8.6343   36.2767  -16.8443 O   0  5  0  0  0  0  0  0  0  0  0  0
   -8.4667   32.3968  -11.4987 O   0  0  0  0  0  0  0  0  0  0  0  0
   -6.8196   35.6098  -18.3678 O   0  0  0  0  0  0  0  0  0  0  0  0
   -8.5218   31.4700  -15.1690 C   0  0  0  0  0  0  0  0  0  0  0  0
   -5.9431   33.7947  -15.7781 C   0  0  0  0  0  0  0  0  0  0  0  0
   -8.5890   32.3913  -14.0722 O   0  0  0  0  0  0  0  0  0  0  0  0
   -6.8675   34.9175  -15.7175 O   0  0  0  0  0  0  0  0  0  0  0  0
   -9.3661   31.9770  -16.3333 C   0  0  1  0  0  0  0  0  0  0  0  0
   -5.1825   33.7762  -14.3987 C   0  0  1  0  0  0  0  0  0  0  0  0
  -10.5926   31.6041  -16.1358 O   0  0  0  0  0  0  0  0  0  0  0  0
   -4.7488   34.9599  -14.2413 O   0  0  0  0  0  0  0  0  0  0  0  0
   -9.3841   33.4841  -16.4448 C   0  0  1  0  0  0  0  0  0  0  0  0
   -6.1709   33.6216  -13.2256 C   0  0  1  0  0  0  0  0  0  0  0  0
   -8.4973   33.8124  -17.4216 O   0  0  0  0  0  0  0  0  0  0  0  0
   -6.1913   32.3642  -12.7671 O   0  0  0  0  0  0  0  0  0  0  0  0
  -10.8482   33.8017  -16.9092 C   0  0  1  0  0  0  0  0  0  0  0  0
   -5.7219   34.6105  -12.1256 C   0  0  1  0  0  0  0  0  0  0  0  0
  -10.8710   34.0845  -18.3697 O   0  0  0  0  0  0  0  0  0  0  0  0
   -4.9976   33.8856  -11.0324 O   0  0  0  0  0  0  0  0  0  0  0  0
  -11.5615   32.7592  -16.6261 C   0  0  2  0  0  0  0  0  0  0  0  0
   -4.9121   35.4201  -12.7171 C   0  0  2  0  0  0  0  0  0  0  0  0
  -14.6888   36.0370  -13.7455 N   0  0  0  0  0  0  0  0  0  0  0  0
  -13.8778   36.4131  -14.7741 C   0  0  0  0  0  0  0  0  0  0  0  0
  -13.1160   35.4945  -15.4503 N   0  0  0  0  0  0  0  0  0  0  0  0
  -13.1753   34.1800  -15.0776 C   0  0  0  0  0  0  0  0  0  0  0  0
  -13.9627   33.7960  -14.0633 C   0  0  0  0  0  0  0  0  0  0  0  0
  -14.7408   34.7345  -13.3875 C   0  0  0  0  0  0  0  0  0  0  0  0
  -15.6062   34.4623  -12.3096 N   0  0  0  0  0  0  0  0  0  0  0  0
  -13.8296   32.4605  -13.9189 N   0  0  0  0  0  0  0  0  0  0  0  0
  -12.9405   32.0244  -14.8563 C   0  0  0  0  0  0  0  0  0  0  0  0
  -12.5493   33.0796  -15.5826 N   0  0  0  0  0  0  0  0  0  0  0  0
   -6.6830   39.5320  -15.3773 N   0  0  0  0  0  0  0  0  0  0  0  0
   -6.3269   38.3240  -15.8874 C   0  0  0  0  0  0  0  0  0  0  0  0
   -5.8715   37.3454  -15.0495 N   0  0  0  0  0  0  0  0  0  0  0  0
   -5.7801   37.5764  -13.7120 C   0  0  0  0  0  0  0  0  0  0  0  0
   -6.1359   38.7711  -13.1982 C   0  0  0  0  0  0  0  0  0  0  0  0
   -6.5950   39.7636  -14.0593 C   0  0  0  0  0  0  0  0  0  0  0  0
   -7.0068   41.1054  -13.7355 N   0  0  0  0  0  0  0  0  0  0  0  0
   -5.9386   38.7112  -11.8593 N   0  0  0  0  0  0  0  0  0  0  0  0
   -5.4643   37.4700  -11.5524 C   0  0  0  0  0  0  0  0  0  0  0  0
   -5.3728   36.7750  -12.7042 N   0  0  0  0  0  0  0  0  0  0  0  0
  1  3  1  1  0  0  0
  1  5  2  0  0  0  0
  1  9  1  0  0  0  0
  1 18  1  0  0  0  0
  2  4  1  1  0  0  0
  2  6  2  0  0  0  0
  2 10  1  0  0  0  0
  2 17  1  0  0  0  0
  7  9  1  0  0  0  0
  8 10  1  0  0  0  0
 11  7  1  1  0  0  0
 11 13  1  0  0  0  0
 11 15  1  0  0  0  0
 12  8  1  6  0  0  0
 12 14  1  0  0  0  0
 12 16  1  0  0  0  0
 13 23  1  0  0  0  0
 14 24  1  0  0  0  0
 15 17  1  6  0  0  0
 15 19  1  0  0  0  0
 16 18  1  1  0  0  0
 16 20  1  0  0  0  0
 19 21  1  6  0  0  0
 19 23  1  0  0  0  0
 20 22  1  1  0  0  0
 20 24  1  0  0  0  0
 23 34  1  1  0  0  0
 24 44  1  6  0  0  0
 25 26  2  0  0  0  0
 25 30  1  0  0  0  0
 26 27  1  0  0  0  0
 27 28  2  0  0  0  0
 28 29  1  0  0  0  0
 28 34  1  0  0  0  0
 29 30  2  0  0  0  0
 29 32  1  0  0  0  0
 30 31  1  0  0  0  0
 32 33  2  0  0  0  0
 33 34  1  0  0  0  0
 35 36  2  0  0  0  0
 35 40  1  0  0  0  0
 36 37  1  0  0  0  0
 37 38  2  0  0  0  0
 38 39  1  0  0  0  0
 38 44  1  0  0  0  0
 39 40  2  0  0  0  0
 39 42  1  0  0  0  0
 40 41  1  0  0  0  0
 42 43  2  0  0  0  0
 43 44  1  0  0  0  0
M  CHG  2   3  -1   4  -1
M  END
>  <CHROM.1>
142.32932574,7.41125083,-8.65242935,34.68849980,-14.57645325,-2.75945413
-0.22985840,-0.15152367

>  <Name>
ligand

>  <RI>
0

>  <Rbt.Current_Directory>
/home/itssahil/PROJECTS/Mol_Feturizer/New_Systems/rnas/4QLM

>  <Rbt.Executable>
rbdock ($Id: //depot/dev/client3/rdock/2013.1/src/exe/rbdock.cxx#4 $)

>  <Rbt.Library>
libRbt.so (2013.1, Build901 2013/11/27)

>  <Rbt.Parameter_File>
/export/apps/rDock/src/rDock_2013.1_src/data/scripts/dock_solv.prm

>  <Rbt.Receptor>
prm/pocket_docking_7.prm

>  <SCORE>
-8.14736

>  <SCORE.INTER>
-7.90677

>  <SCORE.INTER.CONST>
1

>  <SCORE.INTER.POLAR>
0

>  <SCORE.INTER.ROT>
2

>  <SCORE.INTER.SOLV>
26.0234

>  <SCORE.INTER.VDW>
-18.879

>  <SCORE.INTER.norm>
-0.179699

>  <SCORE.INTRA>
-0.240597

>  <SCORE.INTRA.DIHEDRAL>
0.165562

>  <SCORE.INTRA.DIHEDRAL.0>
2.32994

>  <SCORE.INTRA.POLAR>
0

>  <SCORE.INTRA.POLAR.0>
0

>  <SCORE.INTRA.REPUL>
0

>  <SCORE.INTRA.REPUL.0>
0

>  <SCORE.INTRA.SOLV>
1.09091

>  <SCORE.INTRA.SOLV.lig_0>
-117.703

>  <SCORE.INTRA.VDW>
-0.868835

>  <SCORE.INTRA.VDW.0>
-1.59997

>  <SCORE.INTRA.norm>
-0.00546812

>  <SCORE.RESTR>
0

>  <SCORE.RESTR.CAVITY>
0

>  <SCORE.RESTR.norm>
0

>  <SCORE.SYSTEM>
0

>  <SCORE.SYSTEM.CONST>
0

>  <SCORE.SYSTEM.DIHEDRAL>
0

>  <SCORE.SYSTEM.SOLV>
0

>  <SCORE.SYSTEM.norm>
0

>  <SCORE.heavy>
44

>  <SCORE.norm>
-0.185167

>  <RMSD>
6.386

$$$$
ligand
 OpenBabel11021811513D
libRbt.so/2013.1/901 2013/11/27
 44 50  0  0  0  0  0  0  0  0999 V2000
   -5.6851   33.1335  -13.6356 P   0  0  2  0  0  0  0  0  0  0  0  0
   -4.7270   36.9295  -17.3609 P   0  0  1  0  0  0  0  0  0  0  0  0
   -6.2107   31.7249  -13.9001 O   0  5  0  0  0  0  0  0  0  0  0  0
   -5.2682   38.2051  -16.7626 O   0  5  0  0  0  0  0  0  0  0  0  0
   -6.0949   33.4755  -12.2233 O   0  0  0  0  0  0  0  0  0  0  0  0
   -3.8680   37.3223  -18.5844 O   0  0  0  0  0  0  0  0  0  0  0  0
   -6.6638   33.3739  -15.9648 C   0  0  0  0  0  0  0  0  0  0  0  0
   -3.4984   34.8404  -16.4695 C   0  0  0  0  0  0  0  0  0  0  0  0
   -6.3584   34.0282  -14.7259 O   0  0  0  0  0  0  0  0  0  0  0  0
   -3.9922   36.1606  -16.1064 O   0  0  0  0  0  0  0  0  0  0  0  0
   -7.3566   34.3450  -16.9149 C   0  0  1  0  0  0  0  0  0  0  0  0
   -2.7098   34.3052  -15.2152 C   0  0  1  0  0  0  0  0  0  0  0  0
   -8.6239   34.3458  -16.6388 O   0  0  0  0  0  0  0  0  0  0  0  0
   -1.8993   35.2346  -14.9097 O   0  0  0  0  0  0  0  0  0  0  0  0
   -6.8791   35.7709  -16.7625 C   0  0  1  0  0  0  0  0  0  0  0  0
   -3.6249   34.2366  -13.9763 C   0  0  1  0  0  0  0  0  0  0  0  0
   -5.9908   35.9930  -17.7674 O   0  0  0  0  0  0  0  0  0  0  0  0
   -4.0358   32.9844  -13.7418 O   0  0  0  0  0  0  0  0  0  0  0  0
   -8.1785   36.6204  -16.9864 C   0  0  1  0  0  0  0  0  0  0  0  0
   -2.8110   34.7902  -12.7845 C   0  0  1  0  0  0  0  0  0  0  0  0
   -8.1892   37.1845  -18.3630 O   0  0  0  0  0  0  0  0  0  0  0  0
   -2.3076   33.6692  -11.9270 O   0  0  0  0  0  0  0  0  0  0  0  0
   -9.1803   35.8212  -16.8034 C   0  0  2  0  0  0  0  0  0  0  0  0
   -1.8134   35.4053  -13.3206 C   0  0  2  0  0  0  0  0  0  0  0  0
  -10.6324   35.5108  -11.6443 N   0  0  0  0  0  0  0  0  0  0  0  0
   -9.6820   34.7445  -12.2499 C   0  0  0  0  0  0  0  0  0  0  0  0
   -9.3824   34.9033  -13.5790 N   0  0  0  0  0  0  0  0  0  0  0  0
  -10.0562   35.8479  -14.3028 C   0  0  0  0  0  0  0  0  0  0  0  0
  -10.9986   36.6041  -13.7229 C   0  0  0  0  0  0  0  0  0  0  0  0
  -11.2902   36.4429  -12.3695 C   0  0  0  0  0  0  0  0  0  0  0  0
  -12.2535   37.1707  -11.6433 N   0  0  0  0  0  0  0  0  0  0  0  0
  -11.4892   37.4438  -14.6591 N   0  0  0  0  0  0  0  0  0  0  0  0
  -10.8400   37.1900  -15.8310 C   0  0  0  0  0  0  0  0  0  0  0  0
   -9.9443   36.2190  -15.6096 N   0  0  0  0  0  0  0  0  0  0  0  0
   -2.1381   40.3161  -15.0230 N   0  0  0  0  0  0  0  0  0  0  0  0
   -2.2096   39.1870  -15.7755 C   0  0  0  0  0  0  0  0  0  0  0  0
   -2.0984   37.9659  -15.1723 N   0  0  0  0  0  0  0  0  0  0  0  0
   -1.9227   37.8802  -13.8261 C   0  0  0  0  0  0  0  0  0  0  0  0
   -1.8553   38.9963  -13.0724 C   0  0  0  0  0  0  0  0  0  0  0  0
   -1.9656   40.2360  -13.6955 C   0  0  0  0  0  0  0  0  0  0  0  0
   -1.9038   41.5444  -13.0962 N   0  0  0  0  0  0  0  0  0  0  0  0
   -1.6767   38.6070  -11.7873 N   0  0  0  0  0  0  0  0  0  0  0  0
   -1.6402   37.2441  -11.7547 C   0  0  0  0  0  0  0  0  0  0  0  0
   -1.7962   36.8043  -13.0197 N   0  0  0  0  0  0  0  0  0  0  0  0
  1  3  1  6  0  0  0
  1  5  2  0  0  0  0
  1  9  1  0  0  0  0
  1 18  1  0  0  0  0
  2  4  1  1  0  0  0
  2  6  2  0  0  0  0
  2 10  1  0  0  0  0
  2 17  1  0  0  0  0
  7  9  1  0  0  0  0
  8 10  1  0  0  0  0
 11  7  1  1  0  0  0
 11 13  1  0  0  0  0
 11 15  1  0  0  0  0
 12  8  1  6  0  0  0
 12 14  1  0  0  0  0
 12 16  1  0  0  0  0
 13 23  1  0  0  0  0
 14 24  1  0  0  0  0
 15 17  1  6  0  0  0
 15 19  1  0  0  0  0
 16 18  1  1  0  0  0
 16 20  1  0  0  0  0
 19 21  1  6  0  0  0
 19 23  1  0  0  0  0
 20 22  1  1  0  0  0
 20 24  1  0  0  0  0
 23 34  1  1  0  0  0
 24 44  1  6  0  0  0
 25 26  2  0  0  0  0
 25 30  1  0  0  0  0
 26 27  1  0  0  0  0
 27 28  2  0  0  0  0
 28 29  1  0  0  0  0
 28 34  1  0  0  0  0
 29 30  2  0  0  0  0
 29 32  1  0  0  0  0
 30 31  1  0  0  0  0
 32 33  2  0  0  0  0
 33 34  1  0  0  0  0
 35 36  2  0  0  0  0
 35 40  1  0  0  0  0
 36 37  1  0  0  0  0
 37 38  2  0  0  0  0
 38 39  1  0  0  0  0
 38 44  1  0  0  0  0
 39 40  2  0  0  0  0
 39 42  1  0  0  0  0
 40 41  1  0  0  0  0
 42 43  2  0  0  0  0
 43 44  1  0  0  0  0
M  CHG  2   3  -1   4  -1
M  END
>  <CHROM.1>
20.25397975,4.68321341,-5.66508892,36.02536587,-14.72711666,-2.98983645,-0.16796957
-0.62383510

>  <Name>
ligand

>  <RI>
0

>  <Rbt.Current_Directory>
/home/itssahil/PROJECTS/Mol_Feturizer/New_Systems/rnas/4QLM

>  <Rbt.Executable>
rbdock ($Id: //depot/dev/client3/rdock/2013.1/src/exe/rbdock.cxx#4 $)

>  <Rbt.Library>
libRbt.so (2013.1, Build901 2013/11/27)

>  <Rbt.Parameter_File>
/export/apps/rDock/src/rDock_2013.1_src/data/scripts/dock_solv.prm

>  <Rbt.Receptor>
prm/pocket_docking_7.prm

>  <SCORE>
-11.4759

>  <SCORE.INTER>
-10.3987

>  <SCORE.INTER.CONST>
1

>  <SCORE.INTER.POLAR>
0

>  <SCORE.INTER.ROT>
2

>  <SCORE.INTER.SOLV>
18.7523

>  <SCORE.INTER.VDW>
-18.1166

>  <SCORE.INTER.norm>
-0.236335

>  <SCORE.INTRA>
-1.0772

>  <SCORE.INTRA.DIHEDRAL>
0.162944

>  <SCORE.INTRA.DIHEDRAL.0>
2.32994

>  <SCORE.INTRA.POLAR>
0

>  <SCORE.INTRA.POLAR.0>
0

>  <SCORE.INTRA.REPUL>
0

>  <SCORE.INTRA.REPUL.0>
0

>  <SCORE.INTRA.SOLV>
1.18631

>  <SCORE.INTRA.SOLV.lig_0>
-117.703

>  <SCORE.INTRA.VDW>
-1.75182

>  <SCORE.INTRA.VDW.0>
-1.59997

>  <SCORE.INTRA.norm>
-0.0244817

>  <SCORE.RESTR>
0

>  <SCORE.RESTR.CAVITY>
0

>  <SCORE.RESTR.norm>
0

>  <SCORE.SYSTEM>
0

>  <SCORE.SYSTEM.CONST>
0

>  <SCORE.SYSTEM.DIHEDRAL>
0

>  <SCORE.SYSTEM.SOLV>
0

>  <SCORE.SYSTEM.norm>
0

>  <SCORE.heavy>
44

>  <SCORE.norm>
-0.260817

>  <RMSD>
6.387

$$$$
ligand
 OpenBabel11021811513D
libRbt.so/2013.1/901 2013/11/27
 44 50  0  0  0  0  0  0  0  0999 V2000
   -7.6836   34.8326  -17.6599 P   0  0  2  0  0  0  0  0  0  0  0  0
   -7.1600   32.2291  -12.9532 P   0  0  1  0  0  0  0  0  0  0  0  0
   -6.8470   34.5999  -18.9154 O   0  5  0  0  0  0  0  0  0  0  0  0
   -7.2779   33.3042  -11.9004 O   0  5  0  0  0  0  0  0  0  0  0  0
   -8.1759   36.2576  -17.7424 O   0  0  0  0  0  0  0  0  0  0  0  0
   -7.2752   30.8655  -12.2347 O   0  0  0  0  0  0  0  0  0  0  0  0
   -5.6651   33.6149  -16.7198 C   0  0  0  0  0  0  0  0  0  0  0  0
   -8.2605   31.7454  -15.2387 C   0  0  0  0  0  0  0  0  0  0  0  0
   -6.7081   34.5664  -16.4683 O   0  0  0  0  0  0  0  0  0  0  0  0
   -8.2983   32.6185  -14.0747 O   0  0  0  0  0  0  0  0  0  0  0  0
   -4.7638   33.4878  -15.4963 C   0  0  1  0  0  0  0  0  0  0  0  0
   -9.4863   32.1579  -16.1380 C   0  0  1  0  0  0  0  0  0  0  0  0
   -3.8743   34.4303  -15.5498 O   0  0  0  0  0  0  0  0  0  0  0  0
  -10.4895   32.1492  -15.3585 O   0  0  0  0  0  0  0  0  0  0  0  0
   -5.5035   33.6638  -14.1901 C   0  0  1  0  0  0  0  0  0  0  0  0
   -9.3939   33.6406  -16.5504 C   0  0  1  0  0  0  0  0  0  0  0  0
   -5.7292   32.4160  -13.6998 O   0  0  0  0  0  0  0  0  0  0  0  0
   -8.9506   33.7710  -17.8067 O   0  0  0  0  0  0  0  0  0  0  0  0
   -4.4752   34.4271  -13.2844 C   0  0  1  0  0  0  0  0  0  0  0  0
  -10.8096   34.2408  -16.3920 C   0  0  1  0  0  0  0  0  0  0  0  0
   -3.8264   33.4801  -12.3380 O   0  0  0  0  0  0  0  0  0  0  0  0
  -11.4775   34.3687  -17.7272 O   0  0  0  0  0  0  0  0  0  0  0  0
   -3.6040   34.9597  -14.0800 C   0  0  2  0  0  0  0  0  0  0  0  0
  -11.4519   33.3901  -15.6676 C   0  0  2  0  0  0  0  0  0  0  0  0
   -3.4911   39.7620  -11.6828 N   0  0  0  0  0  0  0  0  0  0  0  0
   -3.2595   38.5646  -11.0747 C   0  0  0  0  0  0  0  0  0  0  0  0
   -3.3110   37.3887  -11.7790 N   0  0  0  0  0  0  0  0  0  0  0  0
   -3.6033   37.4272  -13.1144 C   0  0  0  0  0  0  0  0  0  0  0  0
   -3.8405   38.5966  -13.7249 C   0  0  0  0  0  0  0  0  0  0  0  0
   -3.7769   39.7877  -13.0039 C   0  0  0  0  0  0  0  0  0  0  0  0
   -4.0039   41.0772  -13.5242 N   0  0  0  0  0  0  0  0  0  0  0  0
   -4.0941   38.3402  -15.0257 N   0  0  0  0  0  0  0  0  0  0  0  0
   -4.0173   36.9913  -15.2095 C   0  0  0  0  0  0  0  0  0  0  0  0
   -3.6979   36.4282  -14.0369 N   0  0  0  0  0  0  0  0  0  0  0  0
  -10.6627   36.7714  -11.7864 N   0  0  0  0  0  0  0  0  0  0  0  0
   -9.8741   36.5852  -12.8772 C   0  0  0  0  0  0  0  0  0  0  0  0
  -10.2198   35.6457  -13.8073 N   0  0  0  0  0  0  0  0  0  0  0  0
  -11.3492   34.9049  -13.6459 C   0  0  0  0  0  0  0  0  0  0  0  0
  -12.1389   35.0873  -12.5683 C   0  0  0  0  0  0  0  0  0  0  0  0
  -11.7773   36.0436  -11.6238 C   0  0  0  0  0  0  0  0  0  0  0  0
  -12.4541   36.3898  -10.4003 N   0  0  0  0  0  0  0  0  0  0  0  0
  -13.1744   34.2203  -12.6735 N   0  0  0  0  0  0  0  0  0  0  0  0
  -13.0194   33.5073  -13.8256 C   0  0  0  0  0  0  0  0  0  0  0  0
  -11.8896   33.9401  -14.4211 N   0  0  0  0  0  0  0  0  0  0  0  0
  1  3  1  6  0  0  0
  1  5  2  0  0  0  0
  1  9  1  0  0  0  0
  1 18  1  0  0  0  0
  2  4  1  1  0  0  0
  2  6  2  0  0  0  0
  2 10  1  0  0  0  0
  2 17  1  0  0  0  0
  7  9  1  0  0  0  0
  8 10  1  0  0  0  0
 11  7  1  6  0  0  0
 11 13  1  0  0  0  0
 11 15  1  0  0  0  0
 12  8  1  1  0  0  0
 12 14  1  0  0  0  0
 12 16  1  0  0  0  0
 13 23  1  0  0  0  0
 14 24  1  0  0  0  0
 15 17  1  1  0  0  0
 15 19  1  0  0  0  0
 16 18  1  6  0  0  0
 16 20  1  0  0  0  0
 19 21  1  1  0  0  0
 19 23  1  0  0  0  0
 20 22  1  6  0  0  0
 20 24  1  0  0  0  0
 23 34  1  6  0  0  0
 24 44  1  1  0  0  0
 25 26  2  0  0  0  0
 25 30  1  0  0  0  0
 26 27  1  0  0  0  0
 27 28  2  0  0  0  0
 28 29  1  0  0  0  0
 28 34  1  0  0  0  0
 29 30  2  0  0  0  0
 29 32  1  0  0  0  0
 30 31  1  0  0  0  0
 32 33  2  0  0  0  0
 33 34  1  0  0  0  0
 35 36  2  0  0  0  0
 35 40  1  0  0  0  0
 36 37  1  0  0  0  0
 37 38  2  0  0  0  0
 38 39  1  0  0  0  0
 38 44  1  0  0  0  0
 39 40  2  0  0  0  0
 39 42  1  0  0  0  0
 40 41  1  0  0  0  0
 42 43  2  0  0  0  0
 43 44  1  0  0  0  0
M  CHG  2   3  -1   4  -1
M  END
>  <CHROM.1>
178.25480860,89.82659328,-7.50647919,34.88907928,-14.39119849,-2.73199572
0.25344186,0.85901790

>  <Name>
ligand

>  <RI>
0

>  <Rbt.Current_Directory>
/home/itssahil/PROJECTS/Mol_Feturizer/New_Systems/rnas/4QLM

>  <Rbt.Executable>
rbdock ($Id: //depot/dev/client3/rdock/2013.1/src/exe/rbdock.cxx#4 $)

>  <Rbt.Library>
libRbt.so (2013.1, Build901 2013/11/27)

>  <Rbt.Parameter_File>
/export/apps/rDock/src/rDock_2013.1_src/data/scripts/dock_solv.prm

>  <Rbt.Receptor>
prm/pocket_docking_5.prm

>  <SCORE>
-0.276188

>  <SCORE.INTER>
-0.305968

>  <SCORE.INTER.CONST>
1

>  <SCORE.INTER.POLAR>
0

>  <SCORE.INTER.ROT>
2

>  <SCORE.INTER.SOLV>
30.3798

>  <SCORE.INTER.VDW>
-15.2639

>  <SCORE.INTER.norm>
-0.00695382

>  <SCORE.INTRA>
-0.0407099

>  <SCORE.INTRA.DIHEDRAL>
0.0813489

>  <SCORE.INTRA.DIHEDRAL.0>
2.32994

>  <SCORE.INTRA.POLAR>
0

>  <SCORE.INTRA.POLAR.0>
0

>  <SCORE.INTRA.REPUL>
0

>  <SCORE.INTRA.REPUL.0>
0

>  <SCORE.INTRA.SOLV>
0.0318005

>  <SCORE.INTRA.SOLV.lig_0>
-117.703

>  <SCORE.INTRA.VDW>
-0.0972846

>  <SCORE.INTRA.VDW.0>
-1.59997

>  <SCORE.INTRA.norm>
-0.000925225

>  <SCORE.RESTR>
0.0704901

>  <SCORE.RESTR.CAVITY>
0.0704901

>  <SCORE.RESTR.norm>
0.00160205

>  <SCORE.SYSTEM>
0

>  <SCORE.SYSTEM.CONST>
0

>  <SCORE.SYSTEM.DIHEDRAL>
0

>  <SCORE.SYSTEM.SOLV>
0

>  <SCORE.SYSTEM.norm>
0

>  <SCORE.heavy>
44

>  <SCORE.norm>
-0.006277

>  <RMSD>
6.404

$$$$
ligand
 OpenBabel11021811513D
libRbt.so/2013.1/901 2013/11/27
 44 50  0  0  0  0  0  0  0  0999 V2000
   -8.0652   31.8760  -12.6879 P   0  0  2  0  0  0  0  0  0  0  0  0
   -7.6611   34.6663  -17.2984 P   0  0  1  0  0  0  0  0  0  0  0  0
   -8.2031   30.3609  -12.5617 O   0  5  0  0  0  0  0  0  0  0  0  0
   -8.5557   35.8664  -17.1048 O   0  5  0  0  0  0  0  0  0  0  0  0
   -8.6943   32.4591  -11.4454 O   0  0  0  0  0  0  0  0  0  0  0  0
   -6.7969   34.9328  -18.5519 O   0  0  0  0  0  0  0  0  0  0  0  0
   -8.8181   31.2272  -15.0232 C   0  0  0  0  0  0  0  0  0  0  0  0
   -6.0662   33.2848  -15.8097 C   0  0  0  0  0  0  0  0  0  0  0  0
   -8.8144   32.2418  -14.0099 O   0  0  0  0  0  0  0  0  0  0  0  0
   -6.9007   34.4767  -15.8525 O   0  0  0  0  0  0  0  0  0  0  0  0
   -9.6195   31.6959  -16.2330 C   0  0  1  0  0  0  0  0  0  0  0  0
   -5.3105   33.3262  -14.4282 C   0  0  1  0  0  0  0  0  0  0  0  0
  -10.8714   31.4373  -16.0135 O   0  0  0  0  0  0  0  0  0  0  0  0
   -4.7864   34.4820  -14.3695 O   0  0  0  0  0  0  0  0  0  0  0  0
   -9.5203   33.1848  -16.4733 C   0  0  1  0  0  0  0  0  0  0  0  0
   -6.3089   33.3499  -13.2536 C   0  0  1  0  0  0  0  0  0  0  0  0
   -8.6099   33.3584  -17.4679 O   0  0  0  0  0  0  0  0  0  0  0  0
   -6.4273   32.1419  -12.6892 O   0  0  0  0  0  0  0  0  0  0  0  0
  -10.9550   33.5734  -16.9742 C   0  0  1  0  0  0  0  0  0  0  0  0
   -5.7855   34.3920  -12.2390 C   0  0  1  0  0  0  0  0  0  0  0  0
  -10.9545   33.7306  -18.4536 O   0  0  0  0  0  0  0  0  0  0  0  0
   -5.1205   33.7100  -11.0823 O   0  0  0  0  0  0  0  0  0  0  0  0
  -11.7473   32.6174  -16.6082 C   0  0  2  0  0  0  0  0  0  0  0  0
   -4.9148   35.0828  -12.8916 C   0  0  2  0  0  0  0  0  0  0  0  0
  -13.1778   34.7843  -11.9093 N   0  0  0  0  0  0  0  0  0  0  0  0
  -11.8990   34.5882  -12.3375 C   0  0  0  0  0  0  0  0  0  0  0  0
  -11.6381   34.0254  -13.5609 N   0  0  0  0  0  0  0  0  0  0  0  0
  -12.6858   33.6549  -14.3579 C   0  0  0  0  0  0  0  0  0  0  0  0
  -13.9489   33.8348  -13.9475 C   0  0  0  0  0  0  0  0  0  0  0  0
  -14.2053   34.4161  -12.7069 C   0  0  0  0  0  0  0  0  0  0  0  0
  -15.4810   34.6596  -12.1606 N   0  0  0  0  0  0  0  0  0  0  0  0
  -14.7684   33.3890  -14.9231 N   0  0  0  0  0  0  0  0  0  0  0  0
  -13.9916   32.9228  -15.9422 C   0  0  0  0  0  0  0  0  0  0  0  0
  -12.7081   33.1016  -15.6034 N   0  0  0  0  0  0  0  0  0  0  0  0
   -8.4370   38.6711  -14.2474 N   0  0  0  0  0  0  0  0  0  0  0  0
   -8.5656   37.3226  -14.3544 C   0  0  0  0  0  0  0  0  0  0  0  0
   -7.5385   36.5132  -13.9579 N   0  0  0  0  0  0  0  0  0  0  0  0
   -6.3961   37.0531  -13.4539 C   0  0  0  0  0  0  0  0  0  0  0  0
   -6.2632   38.3902  -13.3406 C   0  0  0  0  0  0  0  0  0  0  0  0
   -7.3128   39.2073  -13.7505 C   0  0  0  0  0  0  0  0  0  0  0  0
   -7.3806   40.6461  -13.7383 N   0  0  0  0  0  0  0  0  0  0  0  0
   -5.0375   38.6325  -12.8173 N   0  0  0  0  0  0  0  0  0  0  0  0
   -4.4195   37.4356  -12.6042 C   0  0  0  0  0  0  0  0  0  0  0  0
   -5.2689   36.4653  -12.9982 N   0  0  0  0  0  0  0  0  0  0  0  0
  1  3  1  1  0  0  0
  1  5  2  0  0  0  0
  1  9  1  0  0  0  0
  1 18  1  0  0  0  0
  2  4  1  1  0  0  0
  2  6  2  0  0  0  0
  2 10  1  0  0  0  0
  2 17  1  0  0  0  0
  7  9  1  0  0  0  0
  8 10  1  0  0  0  0
 11  7  1  1  0  0  0
 11 13  1  0  0  0  0
 11 15  1  0  0  0  0
 12  8  1  6  0  0  0
 12 14  1  0  0  0  0
 12 16  1  0  0  0  0
 13 23  1  0  0  0  0
 14 24  1  0  0  0  0
 15 17  1  6  0  0  0
 15 19  1  0  0  0  0
 16 18  1  1  0  0  0
 16 20  1  0  0  0  0
 19 21  1  6  0  0  0
 19 23  1  0  0  0  0
 20 22  1  1  0  0  0
 20 24  1  0  0  0  0
 23 34  1  1  0  0  0
 24 44  1  6  0  0  0
 25 26  2  0  0  0  0
 25 30  1  0  0  0  0
 26 27  1  0  0  0  0
 27 28  2  0  0  0  0
 28 29  1  0  0  0  0
 28 34  1  0  0  0  0
 29 30  2  0  0  0  0
 29 32  1  0  0  0  0
 30 31  1  0  0  0  0
 32 33  2  0  0  0  0
 33 34  1  0  0  0  0
 35 36  2  0  0  0  0
 35 40  1  0  0  0  0
 36 37  1  0  0  0  0
 37 38  2  0  0  0  0
 38 39  1  0  0  0  0
 38 44  1  0  0  0  0
 39 40  2  0  0  0  0
 39 42  1  0  0  0  0
 40 41  1  0  0  0  0
 42 43  2  0  0  0  0
 43 44  1  0  0  0  0
M  CHG  2   3  -1   4  -1
M  END
>  <CHROM.1>
60.12727007,66.61012503,-8.76502798,34.34283091,-14.43888170,-2.71197935
-0.05992930,0.23810142

>  <Name>
ligand

>  <RI>
0

>  <Rbt.Current_Directory>
/home/itssahil/PROJECTS/Mol_Feturizer/New_Systems/rnas/4QLM

>  <Rbt.Executable>
rbdock ($Id: //depot/dev/client3/rdock/2013.1/src/exe/rbdock.cxx#4 $)

>  <Rbt.Library>
libRbt.so (2013.1, Build901 2013/11/27)

>  <Rbt.Parameter_File>
/export/apps/rDock/src/rDock_2013.1_src/data/scripts/dock_solv.prm

>  <Rbt.Receptor>
prm/pocket_docking_7.prm

>  <SCORE>
-10.5611

>  <SCORE.INTER>
-8.65385

>  <SCORE.INTER.CONST>
1

>  <SCORE.INTER.POLAR>
0

>  <SCORE.INTER.ROT>
2

>  <SCORE.INTER.SOLV>
27.6706

>  <SCORE.INTER.VDW>
-19.9261

>  <SCORE.INTER.norm>
-0.196678

>  <SCORE.INTRA>
-1.90724

>  <SCORE.INTRA.DIHEDRAL>
0.0638324

>  <SCORE.INTRA.DIHEDRAL.0>
2.32994

>  <SCORE.INTRA.POLAR>
0

>  <SCORE.INTRA.POLAR.0>
0

>  <SCORE.INTRA.REPUL>
0

>  <SCORE.INTRA.REPUL.0>
0

>  <SCORE.INTRA.SOLV>
0.789191

>  <SCORE.INTRA.SOLV.lig_0>
-117.703

>  <SCORE.INTRA.VDW>
-2.33375

>  <SCORE.INTRA.VDW.0>
-1.59997

>  <SCORE.INTRA.norm>
-0.0433464

>  <SCORE.RESTR>
0

>  <SCORE.RESTR.CAVITY>
0

>  <SCORE.RESTR.norm>
0

>  <SCORE.SYSTEM>
0

>  <SCORE.SYSTEM.CONST>
0

>  <SCORE.SYSTEM.DIHEDRAL>
0

>  <SCORE.SYSTEM.SOLV>
0

>  <SCORE.SYSTEM.norm>
0

>  <SCORE.heavy>
44

>  <SCORE.norm>
-0.240025

>  <RMSD>
6.413

$$$$
ligand
 OpenBabel11021811513D
libRbt.so/2013.1/901 2013/11/27
 44 50  0  0  0  0  0  0  0  0999 V2000
   -6.1518   33.0519  -13.6011 P   0  0  2  0  0  0  0  0  0  0  0  0
   -6.0870   36.5334  -17.7340 P   0  0  1  0  0  0  0  0  0  0  0  0
   -6.8132   31.6760  -13.5933 O   0  5  0  0  0  0  0  0  0  0  0  0
   -6.3569   37.8809  -17.1099 O   0  5  0  0  0  0  0  0  0  0  0  0
   -6.1164   33.5081  -12.1623 O   0  0  0  0  0  0  0  0  0  0  0  0
   -5.5956   36.7841  -19.1778 O   0  0  0  0  0  0  0  0  0  0  0  0
   -7.7445   33.2307  -15.5690 C   0  0  0  0  0  0  0  0  0  0  0  0
   -4.7785   34.4102  -17.0646 C   0  0  0  0  0  0  0  0  0  0  0  0
   -7.0571   33.9309  -14.5233 O   0  0  0  0  0  0  0  0  0  0  0  0
   -5.0683   35.7844  -16.6823 O   0  0  0  0  0  0  0  0  0  0  0  0
   -8.6234   34.1956  -16.3577 C   0  0  1  0  0  0  0  0  0  0  0  0
   -3.6947   33.8896  -16.0467 C   0  0  1  0  0  0  0  0  0  0  0  0
   -9.7551   34.3127  -15.7348 O   0  0  0  0  0  0  0  0  0  0  0  0
   -2.7774   34.7684  -16.0581 O   0  0  0  0  0  0  0  0  0  0  0  0
   -8.0395   35.5858  -16.4604 C   0  0  1  0  0  0  0  0  0  0  0  0
   -4.2162   33.9668  -14.5979 C   0  0  1  0  0  0  0  0  0  0  0  0
   -7.4671   35.6773  -17.6901 O   0  0  0  0  0  0  0  0  0  0  0  0
   -4.6149   32.7670  -14.1581 O   0  0  0  0  0  0  0  0  0  0  0  0
   -9.2960   36.5205  -16.3736 C   0  0  1  0  0  0  0  0  0  0  0  0
   -3.0623   34.5239  -13.7334 C   0  0  1  0  0  0  0  0  0  0  0  0
   -9.6699   37.0013  -17.7309 O   0  0  0  0  0  0  0  0  0  0  0  0
   -2.3999   33.4193  -12.9677 O   0  0  0  0  0  0  0  0  0  0  0  0
  -10.2476   35.8151  -15.8515 C   0  0  2  0  0  0  0  0  0  0  0  0
   -2.2272   35.0255  -14.5772 C   0  0  2  0  0  0  0  0  0  0  0  0
   -9.4319   36.8324  -10.6437 N   0  0  0  0  0  0  0  0  0  0  0  0
   -8.5447   36.2294  -11.4841 C   0  0  0  0  0  0  0  0  0  0  0  0
   -8.8496   36.0154  -12.8042 N   0  0  0  0  0  0  0  0  0  0  0  0
  -10.0692   36.4150  -13.2767 C   0  0  0  0  0  0  0  0  0  0  0  0
  -10.9551   37.0028  -12.4606 C   0  0  0  0  0  0  0  0  0  0  0  0
  -10.6335   37.2251  -11.1227 C   0  0  0  0  0  0  0  0  0  0  0  0
  -11.4712   37.8303  -10.1651 N   0  0  0  0  0  0  0  0  0  0  0  0
  -12.0565   37.2922  -13.1853 N   0  0  0  0  0  0  0  0  0  0  0  0
  -11.8411   36.8671  -14.4628 C   0  0  0  0  0  0  0  0  0  0  0  0
  -10.6105   36.3419  -14.5255 N   0  0  0  0  0  0  0  0  0  0  0  0
   -4.3171   39.7935  -14.4406 N   0  0  0  0  0  0  0  0  0  0  0  0
   -4.9689   38.6252  -14.6782 C   0  0  0  0  0  0  0  0  0  0  0  0
   -4.2690   37.4516  -14.6869 N   0  0  0  0  0  0  0  0  0  0  0  0
   -2.9288   37.4514  -14.4537 C   0  0  0  0  0  0  0  0  0  0  0  0
   -2.2761   38.6064  -14.2126 C   0  0  0  0  0  0  0  0  0  0  0  0
   -2.9961   39.7976  -14.2095 C   0  0  0  0  0  0  0  0  0  0  0  0
   -2.5066   41.1355  -13.9964 N   0  0  0  0  0  0  0  0  0  0  0  0
   -0.9701   38.3015  -14.0217 N   0  0  0  0  0  0  0  0  0  0  0  0
   -0.8248   36.9508  -14.1414 C   0  0  0  0  0  0  0  0  0  0  0  0
   -2.0419   36.4341  -14.4055 N   0  0  0  0  0  0  0  0  0  0  0  0
  1  3  1  1  0  0  0
  1  5  2  0  0  0  0
  1  9  1  0  0  0  0
  1 18  1  0  0  0  0
  2  4  1  1  0  0  0
  2  6  2  0  0  0  0
  2 10  1  0  0  0  0
  2 17  1  0  0  0  0
  7  9  1  0  0  0  0
  8 10  1  0  0  0  0
 11  7  1  1  0  0  0
 11 13  1  0  0  0  0
 11 15  1  0  0  0  0
 12  8  1  6  0  0  0
 12 14  1  0  0  0  0
 12 16  1  0  0  0  0
 13 23  1  0  0  0  0
 14 24  1  0  0  0  0
 15 17  1  6  0  0  0
 15 19  1  0  0  0  0
 16 18  1  1  0  0  0
 16 20  1  0  0  0  0
 19 21  1  6  0  0  0
 19 23  1  0  0  0  0
 20 22  1  6  0  0  0
 20 24  1  0  0  0  0
 23 34  1  1  0  0  0
 24 44  1  1  0  0  0
 25 26  2  0  0  0  0
 25 30  1  0  0  0  0
 26 27  1  0  0  0  0
 27 28  2  0  0  0  0
 28 29  1  0  0  0  0
 28 34  1  0  0  0  0
 29 30  2  0  0  0  0
 29 32  1  0  0  0  0
 30 31  1  0  0  0  0
 32 33  2  0  0  0  0
 33 34  1  0  0  0  0
 35 36  2  0  0  0  0
 35 40  1  0  0  0  0
 36 37  1  0  0  0  0
 37 38  2  0  0  0  0
 38 39  1  0  0  0  0
 38 44  1  0  0  0  0
 39 40  2  0  0  0  0
 39 42  1  0  0  0  0
 40 41  1  0  0  0  0
 42 43  2  0  0  0  0
 43 44  1  0  0  0  0
M  CHG  2   3  -1   4  -1
M  END
>  <CHROM.1>
49.99297234,61.60424246,-6.34661807,35.91985537,-14.73041021,-3.13651267
0.16208593,0.24962207

>  <Name>
ligand

>  <RI>
0

>  <Rbt.Current_Directory>
/home/itssahil/PROJECTS/Mol_Feturizer/New_Systems/rnas/4QLM

>  <Rbt.Executable>
rbdock ($Id: //depot/dev/client3/rdock/2013.1/src/exe/rbdock.cxx#4 $)

>  <Rbt.Library>
libRbt.so (2013.1, Build901 2013/11/27)

>  <Rbt.Parameter_File>
/export/apps/rDock/src/rDock_2013.1_src/data/scripts/dock_solv.prm

>  <Rbt.Receptor>
prm/pocket_docking_6.prm

>  <SCORE>
-10.9852

>  <SCORE.INTER>
-9.24439

>  <SCORE.INTER.CONST>
1

>  <SCORE.INTER.POLAR>
0

>  <SCORE.INTER.ROT>
2

>  <SCORE.INTER.SOLV>
23.9427

>  <SCORE.INTER.VDW>
-19.0772

>  <SCORE.INTER.norm>
-0.2101

>  <SCORE.INTRA>
-1.77633

>  <SCORE.INTRA.DIHEDRAL>
0.11513

>  <SCORE.INTRA.DIHEDRAL.0>
2.32994

>  <SCORE.INTRA.POLAR>
0

>  <SCORE.INTRA.POLAR.0>
0

>  <SCORE.INTRA.REPUL>
0

>  <SCORE.INTRA.REPUL.0>
0

>  <SCORE.INTRA.SOLV>
1.19431

>  <SCORE.INTRA.SOLV.lig_0>
-117.703

>  <SCORE.INTRA.VDW>
-2.43105

>  <SCORE.INTRA.VDW.0>
-1.59997

>  <SCORE.INTRA.norm>
-0.0403711

>  <SCORE.RESTR>
0.0355201

>  <SCORE.RESTR.CAVITY>
0.0355201

>  <SCORE.RESTR.norm>
0.000807276

>  <SCORE.SYSTEM>
0

>  <SCORE.SYSTEM.CONST>
0

>  <SCORE.SYSTEM.DIHEDRAL>
0

>  <SCORE.SYSTEM.SOLV>
0

>  <SCORE.SYSTEM.norm>
0

>  <SCORE.heavy>
44

>  <SCORE.norm>
-0.249664

>  <RMSD>
6.422

$$$$
ligand
 OpenBabel11021811513D
libRbt.so/2013.1/901 2013/11/27
 44 50  0  0  0  0  0  0  0  0999 V2000
   -6.0450   32.9828  -13.5746 P   0  0  2  0  0  0  0  0  0  0  0  0
   -6.0596   36.4896  -17.6865 P   0  0  1  0  0  0  0  0  0  0  0  0
   -6.6840   31.5964  -13.5716 O   0  5  0  0  0  0  0  0  0  0  0  0
   -6.3476   37.8288  -17.0527 O   0  5  0  0  0  0  0  0  0  0  0  0
   -6.0087   33.4308  -12.1333 O   0  0  0  0  0  0  0  0  0  0  0  0
   -5.5805   36.7569  -19.1315 O   0  0  0  0  0  0  0  0  0  0  0  0
   -7.6514   33.1476  -15.5325 C   0  0  0  0  0  0  0  0  0  0  0  0
   -4.7133   34.3838  -17.0373 C   0  0  0  0  0  0  0  0  0  0  0  0
   -6.9695   33.8526  -14.4864 O   0  0  0  0  0  0  0  0  0  0  0  0
   -5.0230   35.7509  -16.6450 O   0  0  0  0  0  0  0  0  0  0  0  0
   -8.5502   34.1029  -16.3104 C   0  0  1  0  0  0  0  0  0  0  0  0
   -3.6155   33.8746  -16.0287 C   0  0  1  0  0  0  0  0  0  0  0  0
   -9.6801   34.1980  -15.6806 O   0  0  0  0  0  0  0  0  0  0  0  0
   -2.7126   34.7683  -16.0398 O   0  0  0  0  0  0  0  0  0  0  0  0
   -7.9893   35.5030  -16.4078 C   0  0  1  0  0  0  0  0  0  0  0  0
   -4.1300   33.9347  -14.5766 C   0  0  1  0  0  0  0  0  0  0  0  0
   -7.4254   35.6111  -17.6402 O   0  0  0  0  0  0  0  0  0  0  0  0
   -4.5068   32.7260  -14.1419 O   0  0  0  0  0  0  0  0  0  0  0  0
   -9.2603   36.4167  -16.3084 C   0  0  1  0  0  0  0  0  0  0  0  0
   -2.9804   34.5052  -13.7151 C   0  0  1  0  0  0  0  0  0  0  0  0
   -9.6495   36.8996  -17.6607 O   0  0  0  0  0  0  0  0  0  0  0  0
   -2.2959   33.4069  -12.9598 O   0  0  0  0  0  0  0  0  0  0  0  0
  -10.1974   35.6930  -15.7853 C   0  0  2  0  0  0  0  0  0  0  0  0
   -2.1583   35.0253  -14.5605 C   0  0  2  0  0  0  0  0  0  0  0  0
   -9.2609   36.9846  -10.6593 N   0  0  0  0  0  0  0  0  0  0  0  0
   -8.3422   36.4865  -11.5339 C   0  0  0  0  0  0  0  0  0  0  0  0
   -8.6829   36.1885  -12.8287 N   0  0  0  0  0  0  0  0  0  0  0  0
   -9.9705   36.3955  -13.2405 C   0  0  0  0  0  0  0  0  0  0  0  0
  -10.8870   36.8780  -12.3898 C   0  0  0  0  0  0  0  0  0  0  0  0
  -10.5301   37.1871  -11.0784 C   0  0  0  0  0  0  0  0  0  0  0  0
  -11.3939   37.6982  -10.0897 N   0  0  0  0  0  0  0  0  0  0  0  0
  -12.0555   36.9846  -13.0573 N   0  0  0  0  0  0  0  0  0  0  0  0
  -11.8493   36.5529  -14.3342 C   0  0  0  0  0  0  0  0  0  0  0  0
  -10.5612   36.2058  -14.4542 N   0  0  0  0  0  0  0  0  0  0  0  0
   -4.3319   39.7520  -14.3283 N   0  0  0  0  0  0  0  0  0  0  0  0
   -4.9679   38.5737  -14.5594 C   0  0  0  0  0  0  0  0  0  0  0  0
   -4.2468   37.4135  -14.5964 N   0  0  0  0  0  0  0  0  0  0  0  0
   -2.9012   37.4365  -14.3976 C   0  0  0  0  0  0  0  0  0  0  0  0
   -2.2640   38.6015  -14.1633 C   0  0  0  0  0  0  0  0  0  0  0  0
   -3.0057   39.7789  -14.1312 C   0  0  0  0  0  0  0  0  0  0  0  0
   -2.5357   41.1239  -13.9190 N   0  0  0  0  0  0  0  0  0  0  0  0
   -0.9482   38.3195  -14.0086 N   0  0  0  0  0  0  0  0  0  0  0  0
   -0.7809   36.9728  -14.1439 C   0  0  0  0  0  0  0  0  0  0  0  0
   -1.9947   36.4356  -14.3812 N   0  0  0  0  0  0  0  0  0  0  0  0
  1  3  1  1  0  0  0
  1  5  2  0  0  0  0
  1  9  1  0  0  0  0
  1 18  1  0  0  0  0
  2  4  1  1  0  0  0
  2  6  2  0  0  0  0
  2 10  1  0  0  0  0
  2 17  1  0  0  0  0
  7  9  1  0  0  0  0
  8 10  1  0  0  0  0
 11  7  1  1  0  0  0
 11 13  1  0  0  0  0
 11 15  1  0  0  0  0
 12  8  1  6  0  0  0
 12 14  1  0  0  0  0
 12 16  1  0  0  0  0
 13 23  1  0  0  0  0
 14 24  1  0  0  0  0
 15 17  1  6  0  0  0
 15 19  1  0  0  0  0
 16 18  1  1  0  0  0
 16 20  1  0  0  0  0
 19 21  1  6  0  0  0
 19 23  1  0  0  0  0
 20 22  1  6  0  0  0
 20 24  1  0  0  0  0
 23 34  1  1  0  0  0
 24 44  1  1  0  0  0
 25 26  2  0  0  0  0
 25 30  1  0  0  0  0
 26 27  1  0  0  0  0
 27 28  2  0  0  0  0
 28 29  1  0  0  0  0
 28 34  1  0  0  0  0
 29 30  2  0  0  0  0
 29 32  1  0  0  0  0
 30 31  1  0  0  0  0
 32 33  2  0  0  0  0
 33 34  1  0  0  0  0
 35 36  2  0  0  0  0
 35 40  1  0  0  0  0
 36 37  1  0  0  0  0
 37 38  2  0  0  0  0
 38 39  1  0  0  0  0
 38 44  1  0  0  0  0
 39 40  2  0  0  0  0
 39 42  1  0  0  0  0
 40 41  1  0  0  0  0
 42 43  2  0  0  0  0
 43 44  1  0  0  0  0
M  CHG  2   3  -1   4  -1
M  END
>  <CHROM.1>
58.05999339,62.77676423,-6.28503002,35.87302533,-14.68648978,3.13780413,0.16228176
0.35984992

>  <Name>
ligand

>  <RI>
0

>  <Rbt.Current_Directory>
/home/itssahil/PROJECTS/Mol_Feturizer/New_Systems/rnas/4QLM

>  <Rbt.Executable>
rbdock ($Id: //depot/dev/client3/rdock/2013.1/src/exe/rbdock.cxx#4 $)

>  <Rbt.Library>
libRbt.so (2013.1, Build901 2013/11/27)

>  <Rbt.Parameter_File>
/export/apps/rDock/src/rDock_2013.1_src/data/scripts/dock_solv.prm

>  <Rbt.Receptor>
prm/pocket_docking_6.prm

>  <SCORE>
-10.9996

>  <SCORE.INTER>
-9.16668

>  <SCORE.INTER.CONST>
1

>  <SCORE.INTER.POLAR>
0

>  <SCORE.INTER.ROT>
2

>  <SCORE.INTER.SOLV>
23.9812

>  <SCORE.INTER.VDW>
-19.0382

>  <SCORE.INTER.norm>
-0.208334

>  <SCORE.INTRA>
-1.85686

>  <SCORE.INTRA.DIHEDRAL>
0.0730287

>  <SCORE.INTRA.DIHEDRAL.0>
2.32994

>  <SCORE.INTRA.POLAR>
0

>  <SCORE.INTRA.POLAR.0>
0

>  <SCORE.INTRA.REPUL>
0

>  <SCORE.INTRA.REPUL.0>
0

>  <SCORE.INTRA.SOLV>
1.00619

>  <SCORE.INTRA.SOLV.lig_0>
-117.703

>  <SCORE.INTRA.VDW>
-2.39647

>  <SCORE.INTRA.VDW.0>
-1.59997

>  <SCORE.INTRA.norm>
-0.0422014

>  <SCORE.RESTR>
0.0239498

>  <SCORE.RESTR.CAVITY>
0.0239498

>  <SCORE.RESTR.norm>
0.000544313

>  <SCORE.SYSTEM>
0

>  <SCORE.SYSTEM.CONST>
0

>  <SCORE.SYSTEM.DIHEDRAL>
0

>  <SCORE.SYSTEM.SOLV>
0

>  <SCORE.SYSTEM.norm>
0

>  <SCORE.heavy>
44

>  <SCORE.norm>
-0.249991

>  <RMSD>
6.434

$$$$
ligand
 OpenBabel11021811513D
libRbt.so/2013.1/901 2013/11/27
 44 50  0  0  0  0  0  0  0  0999 V2000
   -8.0202   31.8744  -12.7000 P   0  0  2  0  0  0  0  0  0  0  0  0
   -7.6834   34.7071  -17.2901 P   0  0  1  0  0  0  0  0  0  0  0  0
   -8.1387   30.3568  -12.5854 O   0  5  0  0  0  0  0  0  0  0  0  0
   -8.5910   35.8946  -17.0801 O   0  5  0  0  0  0  0  0  0  0  0  0
   -8.6472   32.4396  -11.4483 O   0  0  0  0  0  0  0  0  0  0  0  0
   -6.8316   34.9943  -18.5474 O   0  0  0  0  0  0  0  0  0  0  0  0
   -8.7821   31.2357  -15.0351 C   0  0  0  0  0  0  0  0  0  0  0  0
   -6.0611   33.3330  -15.8243 C   0  0  0  0  0  0  0  0  0  0  0  0
   -8.7834   32.2419  -14.0135 O   0  0  0  0  0  0  0  0  0  0  0  0
   -6.9103   34.5149  -15.8512 O   0  0  0  0  0  0  0  0  0  0  0  0
   -9.5979   31.7045  -16.2352 C   0  0  1  0  0  0  0  0  0  0  0  0
   -5.2959   33.3723  -14.4479 C   0  0  1  0  0  0  0  0  0  0  0  0
  -10.8449   31.4288  -16.0089 O   0  0  0  0  0  0  0  0  0  0  0  0
   -4.7854   34.5339  -14.3834 O   0  0  0  0  0  0  0  0  0  0  0  0
   -9.5185   33.1964  -16.4639 C   0  0  1  0  0  0  0  0  0  0  0  0
   -6.2860   33.3742  -13.2660 C   0  0  1  0  0  0  0  0  0  0  0  0
   -8.6175   33.3891  -17.4636 O   0  0  0  0  0  0  0  0  0  0  0  0
   -6.3856   32.1602  -12.7109 O   0  0  0  0  0  0  0  0  0  0  0  0
  -10.9613   33.5716  -16.9513 C   0  0  1  0  0  0  0  0  0  0  0  0
   -5.7679   34.4142  -12.2466 C   0  0  1  0  0  0  0  0  0  0  0  0
  -10.9736   33.7408  -18.4293 O   0  0  0  0  0  0  0  0  0  0  0  0
   -5.0863   33.7310  -11.1004 O   0  0  0  0  0  0  0  0  0  0  0  0
  -11.7393   32.6030  -16.5875 C   0  0  2  0  0  0  0  0  0  0  0  0
   -4.9104   35.1209  -12.8997 C   0  0  2  0  0  0  0  0  0  0  0  0
  -13.1615   34.7399  -11.8724 N   0  0  0  0  0  0  0  0  0  0  0  0
  -11.8838   34.5702  -12.3149 C   0  0  0  0  0  0  0  0  0  0  0  0
  -11.6251   34.0130  -13.5413 N   0  0  0  0  0  0  0  0  0  0  0  0
  -12.6738   33.6209  -14.3266 C   0  0  0  0  0  0  0  0  0  0  0  0
  -13.9357   33.7746  -13.9020 C   0  0  0  0  0  0  0  0  0  0  0  0
  -14.1901   34.3505  -12.6584 C   0  0  0  0  0  0  0  0  0  0  0  0
  -15.4643   34.5676  -12.0978 N   0  0  0  0  0  0  0  0  0  0  0  0
  -14.7567   33.3120  -14.8685 N   0  0  0  0  0  0  0  0  0  0  0  0
  -13.9819   32.8621  -15.8963 C   0  0  0  0  0  0  0  0  0  0  0  0
  -12.6986   33.0673  -15.5719 N   0  0  0  0  0  0  0  0  0  0  0  0
   -8.5514   38.6713  -14.0212 N   0  0  0  0  0  0  0  0  0  0  0  0
   -8.6774   37.3210  -14.1056 C   0  0  0  0  0  0  0  0  0  0  0  0
   -7.6173   36.5227  -13.7797 N   0  0  0  0  0  0  0  0  0  0  0  0
   -6.4446   37.0754  -13.3678 C   0  0  0  0  0  0  0  0  0  0  0  0
   -6.3137   38.4143  -13.2772 C   0  0  0  0  0  0  0  0  0  0  0  0
   -7.3972   39.2201  -13.6149 C   0  0  0  0  0  0  0  0  0  0  0  0
   -7.4749   40.6585  -13.6110 N   0  0  0  0  0  0  0  0  0  0  0  0
   -5.0542   38.6702  -12.8494 N   0  0  0  0  0  0  0  0  0  0  0  0
   -4.4129   37.4797  -12.6721 C   0  0  0  0  0  0  0  0  0  0  0  0
   -5.2820   36.4998  -12.9923 N   0  0  0  0  0  0  0  0  0  0  0  0
  1  3  1  1  0  0  0
  1  5  2  0  0  0  0
  1  9  1  0  0  0  0
  1 18  1  0  0  0  0
  2  4  1  1  0  0  0
  2  6  2  0  0  0  0
  2 10  1  0  0  0  0
  2 17  1  0  0  0  0
  7  9  1  0  0  0  0
  8 10  1  0  0  0  0
 11  7  1  1  0  0  0
 11 13  1  0  0  0  0
 11 15  1  0  0  0  0
 12  8  1  6  0  0  0
 12 14  1  0  0  0  0
 12 16  1  0  0  0  0
 13 23  1  0  0  0  0
 14 24  1  0  0  0  0
 15 17  1  6  0  0  0
 15 19  1  0  0  0  0
 16 18  1  1  0  0  0
 16 20  1  0  0  0  0
 19 21  1  6  0  0  0
 19 23  1  0  0  0  0
 20 22  1  1  0  0  0
 20 24  1  0  0  0  0
 23 34  1  1  0  0  0
 24 44  1  6  0  0  0
 25 26  2  0  0  0  0
 25 30  1  0  0  0  0
 26 27  1  0  0  0  0
 27 28  2  0  0  0  0
 28 29  1  0  0  0  0
 28 34  1  0  0  0  0
 29 30  2  0  0  0  0
 29 32  1  0  0  0  0
 30 31  1  0  0  0  0
 32 33  2  0  0  0  0
 33 34  1  0  0  0  0
 35 36  2  0  0  0  0
 35 40  1  0  0  0  0
 36 37  1  0  0  0  0
 37 38  2  0  0  0  0
 38 39  1  0  0  0  0
 38 44  1  0  0  0  0
 39 40  2  0  0  0  0
 39 42  1  0  0  0  0
 40 41  1  0  0  0  0
 42 43  2  0  0  0  0
 43 44  1  0  0  0  0
M  CHG  2   3  -1   4  -1
M  END
>  <CHROM.1>
60.83805497,70.63276625,-8.76745808,34.34816438,-14.41240008,-2.69980921
-0.02692661,0.30791132

>  <Name>
ligand

>  <RI>
0

>  <Rbt.Current_Directory>
/home/itssahil/PROJECTS/Mol_Feturizer/New_Systems/rnas/4QLM

>  <Rbt.Executable>
rbdock ($Id: //depot/dev/client3/rdock/2013.1/src/exe/rbdock.cxx#4 $)

>  <Rbt.Library>
libRbt.so (2013.1, Build901 2013/11/27)

>  <Rbt.Parameter_File>
/export/apps/rDock/src/rDock_2013.1_src/data/scripts/dock_solv.prm

>  <Rbt.Receptor>
prm/pocket_docking_7.prm

>  <SCORE>
-10.5482

>  <SCORE.INTER>
-8.65179

>  <SCORE.INTER.CONST>
1

>  <SCORE.INTER.POLAR>
0

>  <SCORE.INTER.ROT>
2

>  <SCORE.INTER.SOLV>
27.7148

>  <SCORE.INTER.VDW>
-19.9395

>  <SCORE.INTER.norm>
-0.196632

>  <SCORE.INTRA>
-1.89642

>  <SCORE.INTRA.DIHEDRAL>
0.0620271

>  <SCORE.INTRA.DIHEDRAL.0>
2.32994

>  <SCORE.INTRA.POLAR>
0

>  <SCORE.INTRA.POLAR.0>
0

>  <SCORE.INTRA.REPUL>
0

>  <SCORE.INTRA.REPUL.0>
0

>  <SCORE.INTRA.SOLV>
0.585533

>  <SCORE.INTRA.SOLV.lig_0>
-117.703

>  <SCORE.INTRA.VDW>
-2.2202

>  <SCORE.INTRA.VDW.0>
-1.59997

>  <SCORE.INTRA.norm>
-0.0431004

>  <SCORE.RESTR>
0

>  <SCORE.RESTR.CAVITY>
0

>  <SCORE.RESTR.norm>
0

>  <SCORE.SYSTEM>
0

>  <SCORE.SYSTEM.CONST>
0

>  <SCORE.SYSTEM.DIHEDRAL>
0

>  <SCORE.SYSTEM.SOLV>
0

>  <SCORE.SYSTEM.norm>
0

>  <SCORE.heavy>
44

>  <SCORE.norm>
-0.239732

>  <RMSD>
6.437

$$$$
ligand
 OpenBabel11021811513D
libRbt.so/2013.1/901 2013/11/27
 44 50  0  0  0  0  0  0  0  0999 V2000
   -5.4406   33.2341  -13.7797 P   0  0  2  0  0  0  0  0  0  0  0  0
   -5.8144   36.8882  -17.7437 P   0  0  1  0  0  0  0  0  0  0  0  0
   -5.9436   31.7937  -13.8326 O   0  5  0  0  0  0  0  0  0  0  0  0
   -6.2261   38.1665  -17.0549 O   0  5  0  0  0  0  0  0  0  0  0  0
   -5.4396   33.6243  -12.3212 O   0  0  0  0  0  0  0  0  0  0  0  0
   -5.3711   37.2590  -19.1772 O   0  0  0  0  0  0  0  0  0  0  0  0
   -7.0663   33.3236  -15.7266 C   0  0  0  0  0  0  0  0  0  0  0  0
   -4.2687   34.8968  -17.1838 C   0  0  0  0  0  0  0  0  0  0  0  0
   -6.4494   34.0475  -14.6534 O   0  0  0  0  0  0  0  0  0  0  0  0
   -4.7060   36.2106  -16.7351 O   0  0  0  0  0  0  0  0  0  0  0  0
   -8.0569   34.2190  -16.4631 C   0  0  1  0  0  0  0  0  0  0  0  0
   -3.1216   34.4547  -16.1988 C   0  0  1  0  0  0  0  0  0  0  0  0
   -9.1872   34.1793  -15.8280 O   0  0  0  0  0  0  0  0  0  0  0  0
   -2.3086   35.4307  -16.1745 O   0  0  0  0  0  0  0  0  0  0  0  0
   -7.6335   35.6693  -16.5037 C   0  0  1  0  0  0  0  0  0  0  0  0
   -3.6314   34.4057  -14.7446 C   0  0  1  0  0  0  0  0  0  0  0  0
   -7.0894   35.8813  -17.7314 O   0  0  0  0  0  0  0  0  0  0  0  0
   -3.8881   33.1497  -14.3595 O   0  0  0  0  0  0  0  0  0  0  0  0
   -8.9857   36.4518  -16.3647 C   0  0  1  0  0  0  0  0  0  0  0  0
   -2.5371   35.0484  -13.8622 C   0  0  1  0  0  0  0  0  0  0  0  0
   -9.4269   36.9499  -17.6953 O   0  0  0  0  0  0  0  0  0  0  0  0
   -1.7462   33.9911  -13.1538 O   0  0  0  0  0  0  0  0  0  0  0  0
   -9.8461   35.6206  -15.8703 C   0  0  2  0  0  0  0  0  0  0  0  0
   -1.7734   35.6792  -14.6868 C   0  0  2  0  0  0  0  0  0  0  0  0
   -9.0371   36.6591  -10.6657 N   0  0  0  0  0  0  0  0  0  0  0  0
   -8.0856   36.2509  -11.5519 C   0  0  0  0  0  0  0  0  0  0  0  0
   -8.3953   36.0124  -12.8667 N   0  0  0  0  0  0  0  0  0  0  0  0
   -9.6849   36.1872  -13.2869 C   0  0  0  0  0  0  0  0  0  0  0  0
  -10.6330   36.5813  -12.4255 C   0  0  0  0  0  0  0  0  0  0  0  0
  -10.3080   36.8306  -11.0933 C   0  0  0  0  0  0  0  0  0  0  0  0
  -11.2067   37.2477  -10.0916 N   0  0  0  0  0  0  0  0  0  0  0  0
  -11.7958   36.6755  -13.1048 N   0  0  0  0  0  0  0  0  0  0  0  0
  -11.5536   36.3259  -14.4003 C   0  0  0  0  0  0  0  0  0  0  0  0
  -10.2501   36.0414  -14.5187 N   0  0  0  0  0  0  0  0  0  0  0  0
   -4.3524   40.1987  -14.4819 N   0  0  0  0  0  0  0  0  0  0  0  0
   -4.8658   38.9820  -14.8015 C   0  0  0  0  0  0  0  0  0  0  0  0
   -4.0480   37.8873  -14.8166 N   0  0  0  0  0  0  0  0  0  0  0  0
   -2.7291   38.0131  -14.5082 C   0  0  0  0  0  0  0  0  0  0  0  0
   -2.2137   39.2166  -14.1856 C   0  0  0  0  0  0  0  0  0  0  0  0
   -3.0529   40.3269  -14.1766 C   0  0  0  0  0  0  0  0  0  0  0  0
   -2.7172   41.6969  -13.8839 N   0  0  0  0  0  0  0  0  0  0  0  0
   -0.8948   39.0379  -13.9333 N   0  0  0  0  0  0  0  0  0  0  0  0
   -0.6036   37.7158  -14.0974 C   0  0  0  0  0  0  0  0  0  0  0  0
   -1.7449   37.0902  -14.4498 N   0  0  0  0  0  0  0  0  0  0  0  0
  1  3  1  6  0  0  0
  1  5  2  0  0  0  0
  1  9  1  0  0  0  0
  1 18  1  0  0  0  0
  2  4  1  1  0  0  0
  2  6  2  0  0  0  0
  2 10  1  0  0  0  0
  2 17  1  0  0  0  0
  7  9  1  0  0  0  0
  8 10  1  0  0  0  0
 11  7  1  1  0  0  0
 11 13  1  0  0  0  0
 11 15  1  0  0  0  0
 12  8  1  6  0  0  0
 12 14  1  0  0  0  0
 12 16  1  0  0  0  0
 13 23  1  0  0  0  0
 14 24  1  0  0  0  0
 15 17  1  6  0  0  0
 15 19  1  0  0  0  0
 16 18  1  1  0  0  0
 16 20  1  0  0  0  0
 19 21  1  6  0  0  0
 19 23  1  0  0  0  0
 20 22  1  6  0  0  0
 20 24  1  0  0  0  0
 23 34  1  1  0  0  0
 24 44  1  1  0  0  0
 25 26  2  0  0  0  0
 25 30  1  0  0  0  0
 26 27  1  0  0  0  0
 27 28  2  0  0  0  0
 28 29  1  0  0  0  0
 28 34  1  0  0  0  0
 29 30  2  0  0  0  0
 29 32  1  0  0  0  0
 30 31  1  0  0  0  0
 32 33  2  0  0  0  0
 33 34  1  0  0  0  0
 35 36  2  0  0  0  0
 35 40  1  0  0  0  0
 36 37  1  0  0  0  0
 37 38  2  0  0  0  0
 38 39  1  0  0  0  0
 38 44  1  0  0  0  0
 39 40  2  0  0  0  0
 39 42  1  0  0  0  0
 40 41  1  0  0  0  0
 42 43  2  0  0  0  0
 43 44  1  0  0  0  0
M  CHG  2   3  -1   4  -1
M  END
>  <CHROM.1>
54.72359454,57.91431592,-5.96240952,36.12516528,-14.78650078,-3.02278591
0.19543198,0.24093529

>  <Name>
ligand

>  <RI>
0

>  <Rbt.Current_Directory>
/home/itssahil/PROJECTS/Mol_Feturizer/New_Systems/rnas/4QLM

>  <Rbt.Executable>
rbdock ($Id: //depot/dev/client3/rdock/2013.1/src/exe/rbdock.cxx#4 $)

>  <Rbt.Library>
libRbt.so (2013.1, Build901 2013/11/27)

>  <Rbt.Parameter_File>
/export/apps/rDock/src/rDock_2013.1_src/data/scripts/dock_solv.prm

>  <Rbt.Receptor>
prm/pocket_docking_8.prm

>  <SCORE>
-11.516

>  <SCORE.INTER>
-9.9111

>  <SCORE.INTER.CONST>
1

>  <SCORE.INTER.POLAR>
0

>  <SCORE.INTER.ROT>
2

>  <SCORE.INTER.SOLV>
25.6256

>  <SCORE.INTER.VDW>
-20.0826

>  <SCORE.INTER.norm>
-0.225252

>  <SCORE.INTRA>
-1.60491

>  <SCORE.INTRA.DIHEDRAL>
0.0884339

>  <SCORE.INTRA.DIHEDRAL.0>
2.32994

>  <SCORE.INTRA.POLAR>
0

>  <SCORE.INTRA.POLAR.0>
0

>  <SCORE.INTRA.REPUL>
0

>  <SCORE.INTRA.REPUL.0>
0

>  <SCORE.INTRA.SOLV>
1.26997

>  <SCORE.INTRA.SOLV.lig_0>
-117.703

>  <SCORE.INTRA.VDW>
-2.28411

>  <SCORE.INTRA.VDW.0>
-1.59997

>  <SCORE.INTRA.norm>
-0.0364753

>  <SCORE.RESTR>
0

>  <SCORE.RESTR.CAVITY>
0

>  <SCORE.RESTR.norm>
0

>  <SCORE.SYSTEM>
0

>  <SCORE.SYSTEM.CONST>
0

>  <SCORE.SYSTEM.DIHEDRAL>
0

>  <SCORE.SYSTEM.SOLV>
0

>  <SCORE.SYSTEM.norm>
0

>  <SCORE.heavy>
44

>  <SCORE.norm>
-0.261728

>  <RMSD>
6.444

$$$$
ligand
 OpenBabel11021811513D
libRbt.so/2013.1/901 2013/11/27
 44 50  0  0  0  0  0  0  0  0999 V2000
   -7.7307   33.6834  -12.4789 P   0  0  2  0  0  0  0  0  0  0  0  0
   -4.3752   34.3800  -16.6575 P   0  0  1  0  0  0  0  0  0  0  0  0
   -8.4971   32.4066  -12.1430 O   0  5  0  0  0  0  0  0  0  0  0  0
   -4.7115   35.7474  -17.2009 O   0  5  0  0  0  0  0  0  0  0  0  0
   -8.5309   34.8200  -11.8896 O   0  0  0  0  0  0  0  0  0  0  0  0
   -3.0409   33.9426  -17.3035 O   0  0  0  0  0  0  0  0  0  0  0  0
   -7.6328   32.4249  -14.6807 C   0  0  0  0  0  0  0  0  0  0  0  0
   -4.2375   33.2991  -14.3164 C   0  0  0  0  0  0  0  0  0  0  0  0
   -7.6487   33.7075  -14.0395 O   0  0  0  0  0  0  0  0  0  0  0  0
   -4.4296   34.5569  -15.0233 O   0  0  0  0  0  0  0  0  0  0  0  0
   -7.5994   32.5955  -16.1958 C   0  0  1  0  0  0  0  0  0  0  0  0
   -4.1773   33.6603  -12.7842 C   0  0  1  0  0  0  0  0  0  0  0  0
   -8.8177   32.7537  -16.6117 O   0  0  0  0  0  0  0  0  0  0  0  0
   -3.3143   34.5882  -12.6942 O   0  0  0  0  0  0  0  0  0  0  0  0
   -6.8275   33.8162  -16.6413 C   0  0  1  0  0  0  0  0  0  0  0  0
   -5.4734   34.3617  -12.3314 C   0  0  1  0  0  0  0  0  0  0  0  0
   -5.6000   33.3796  -17.0298 O   0  0  0  0  0  0  0  0  0  0  0  0
   -6.2844   33.5171  -11.6826 O   0  0  0  0  0  0  0  0  0  0  0  0
   -7.6389   34.3331  -17.8801 C   0  0  1  0  0  0  0  0  0  0  0  0
   -5.0536   35.5411  -11.4247 C   0  0  1  0  0  0  0  0  0  0  0  0
   -6.9608   33.9271  -19.1406 O   0  0  0  0  0  0  0  0  0  0  0  0
   -5.2613   35.1935   -9.9820 O   0  0  0  0  0  0  0  0  0  0  0  0
   -8.8188   33.8072  -17.7964 C   0  0  2  0  0  0  0  0  0  0  0  0
   -3.7957   35.7042  -11.6528 C   0  0  2  0  0  0  0  0  0  0  0  0
  -10.7826   38.2177  -15.4486 N   0  0  0  0  0  0  0  0  0  0  0  0
   -9.5542   37.6746  -15.2180 C   0  0  0  0  0  0  0  0  0  0  0  0
   -9.1443   36.5414  -15.8732 N   0  0  0  0  0  0  0  0  0  0  0  0
   -9.9908   35.9506  -16.7702 C   0  0  0  0  0  0  0  0  0  0  0  0
  -11.2049   36.4689  -17.0021 C   0  0  0  0  0  0  0  0  0  0  0  0
  -11.6099   37.6261  -16.3392 C   0  0  0  0  0  0  0  0  0  0  0  0
  -12.8541   38.2692  -16.4925 N   0  0  0  0  0  0  0  0  0  0  0  0
  -11.8159   35.6949  -17.9241 N   0  0  0  0  0  0  0  0  0  0  0  0
  -10.9626   34.6839  -18.2541 C   0  0  0  0  0  0  0  0  0  0  0  0
   -9.8308   34.8493  -17.5572 N   0  0  0  0  0  0  0  0  0  0  0  0
   -4.9886   39.4813  -15.0337 N   0  0  0  0  0  0  0  0  0  0  0  0
   -5.6410   38.3010  -14.8679 C   0  0  0  0  0  0  0  0  0  0  0  0
   -5.1935   37.4078  -13.9355 N   0  0  0  0  0  0  0  0  0  0  0  0
   -4.1049   37.7000  -13.1738 C   0  0  0  0  0  0  0  0  0  0  0  0
   -3.4553   38.8713  -13.3298 C   0  0  0  0  0  0  0  0  0  0  0  0
   -3.9156   39.7735  -14.2844 C   0  0  0  0  0  0  0  0  0  0  0  0
   -3.3709   41.0614  -14.6307 N   0  0  0  0  0  0  0  0  0  0  0  0
   -2.4249   38.8831  -12.4505 N   0  0  0  0  0  0  0  0  0  0  0  0
   -2.4484   37.7139  -11.7489 C   0  0  0  0  0  0  0  0  0  0  0  0
   -3.4925   36.9907  -12.2014 N   0  0  0  0  0  0  0  0  0  0  0  0
  1  3  1  1  0  0  0
  1  5  2  0  0  0  0
  1  9  1  0  0  0  0
  1 18  1  0  0  0  0
  2  4  1  6  0  0  0
  2  6  2  0  0  0  0
  2 10  1  0  0  0  0
  2 17  1  0  0  0  0
  7  9  1  0  0  0  0
  8 10  1  0  0  0  0
 11  7  1  1  0  0  0
 11 13  1  0  0  0  0
 11 15  1  0  0  0  0
 12  8  1  6  0  0  0
 12 14  1  0  0  0  0
 12 16  1  0  0  0  0
 13 23  1  0  0  0  0
 14 24  1  0  0  0  0
 15 17  1  6  0  0  0
 15 19  1  0  0  0  0
 16 18  1  1  0  0  0
 16 20  1  0  0  0  0
 19 21  1  6  0  0  0
 19 23  1  0  0  0  0
 20 22  1  1  0  0  0
 20 24  1  0  0  0  0
 23 34  1  1  0  0  0
 24 44  1  6  0  0  0
 25 26  2  0  0  0  0
 25 30  1  0  0  0  0
 26 27  1  0  0  0  0
 27 28  2  0  0  0  0
 28 29  1  0  0  0  0
 28 34  1  0  0  0  0
 29 30  2  0  0  0  0
 29 32  1  0  0  0  0
 30 31  1  0  0  0  0
 32 33  2  0  0  0  0
 33 34  1  0  0  0  0
 35 36  2  0  0  0  0
 35 40  1  0  0  0  0
 36 37  1  0  0  0  0
 37 38  2  0  0  0  0
 38 39  1  0  0  0  0
 38 44  1  0  0  0  0
 39 40  2  0  0  0  0
 39 42  1  0  0  0  0
 40 41  1  0  0  0  0
 42 43  2  0  0  0  0
 43 44  1  0  0  0  0
M  CHG  2   3  -1   4  -1
M  END
>  <CHROM.1>
75.57606911,76.30816847,-6.59799464,35.46012554,-14.79222289,-0.14154514
0.59044222,3.07242951

>  <Name>
ligand

>  <RI>
0

>  <Rbt.Current_Directory>
/home/itssahil/PROJECTS/Mol_Feturizer/New_Systems/rnas/4QLM

>  <Rbt.Executable>
rbdock ($Id: //depot/dev/client3/rdock/2013.1/src/exe/rbdock.cxx#4 $)

>  <Rbt.Library>
libRbt.so (2013.1, Build901 2013/11/27)

>  <Rbt.Parameter_File>
/export/apps/rDock/src/rDock_2013.1_src/data/scripts/dock_solv.prm

>  <Rbt.Receptor>
prm/pocket_docking_5.prm

>  <SCORE>
-5.81459

>  <SCORE.INTER>
-4.59474

>  <SCORE.INTER.CONST>
1

>  <SCORE.INTER.POLAR>
0

>  <SCORE.INTER.ROT>
2

>  <SCORE.INTER.SOLV>
29.6298

>  <SCORE.INTER.VDW>
-17.8731

>  <SCORE.INTER.norm>
-0.104426

>  <SCORE.INTRA>
-1.67568

>  <SCORE.INTRA.DIHEDRAL>
-0.00397559

>  <SCORE.INTRA.DIHEDRAL.0>
2.32994

>  <SCORE.INTRA.POLAR>
0

>  <SCORE.INTRA.POLAR.0>
0

>  <SCORE.INTRA.REPUL>
0

>  <SCORE.INTRA.REPUL.0>
0

>  <SCORE.INTRA.SOLV>
0.306179

>  <SCORE.INTRA.SOLV.lig_0>
-117.703

>  <SCORE.INTRA.VDW>
-1.82678

>  <SCORE.INTRA.VDW.0>
-1.59997

>  <SCORE.INTRA.norm>
-0.0380836

>  <SCORE.RESTR>
0.455828

>  <SCORE.RESTR.CAVITY>
0.455828

>  <SCORE.RESTR.norm>
0.0103597

>  <SCORE.SYSTEM>
0

>  <SCORE.SYSTEM.CONST>
0

>  <SCORE.SYSTEM.DIHEDRAL>
0

>  <SCORE.SYSTEM.SOLV>
0

>  <SCORE.SYSTEM.norm>
0

>  <SCORE.heavy>
44

>  <SCORE.norm>
-0.13215

>  <RMSD>
6.454

$$$$
ligand
 OpenBabel11021811513D
libRbt.so/2013.1/901 2013/11/27
 44 50  0  0  0  0  0  0  0  0999 V2000
   -6.0732   32.8047  -13.7157 P   0  0  2  0  0  0  0  0  0  0  0  0
   -6.1733   36.5864  -17.5750 P   0  0  1  0  0  0  0  0  0  0  0  0
   -6.5713   31.3680  -13.8500 O   0  5  0  0  0  0  0  0  0  0  0  0
   -6.6315   37.8426  -16.8749 O   0  5  0  0  0  0  0  0  0  0  0  0
   -6.1725   33.1474  -12.2487 O   0  0  0  0  0  0  0  0  0  0  0  0
   -5.6324   37.0026  -18.9618 O   0  0  0  0  0  0  0  0  0  0  0  0
   -7.5610   32.9610  -15.7659 C   0  0  0  0  0  0  0  0  0  0  0  0
   -4.6697   34.5745  -16.9753 C   0  0  0  0  0  0  0  0  0  0  0  0
   -7.0194   33.6483  -14.6298 O   0  0  0  0  0  0  0  0  0  0  0  0
   -5.1369   35.8740  -16.5152 O   0  0  0  0  0  0  0  0  0  0  0  0
   -8.4986   33.8820  -16.5393 C   0  0  1  0  0  0  0  0  0  0  0  0
   -3.5932   34.0982  -15.9286 C   0  0  1  0  0  0  0  0  0  0  0  0
   -9.6699   33.8242  -15.9851 O   0  0  0  0  0  0  0  0  0  0  0  0
   -2.7838   35.0710  -15.8166 O   0  0  0  0  0  0  0  0  0  0  0  0
   -8.0734   35.3320  -16.5034 C   0  0  1  0  0  0  0  0  0  0  0  0
   -4.2019   34.0031  -14.5153 C   0  0  1  0  0  0  0  0  0  0  0  0
   -7.4461   35.5825  -17.6833 O   0  0  0  0  0  0  0  0  0  0  0  0
   -4.4844   32.7358  -14.1898 O   0  0  0  0  0  0  0  0  0  0  0  0
   -9.4320   36.1126  -16.4324 C   0  0  1  0  0  0  0  0  0  0  0  0
   -3.1709   34.6144  -13.5392 C   0  0  1  0  0  0  0  0  0  0  0  0
   -9.7806   36.6545  -17.7733 O   0  0  0  0  0  0  0  0  0  0  0  0
   -2.4306   33.5328  -12.8129 O   0  0  0  0  0  0  0  0  0  0  0  0
  -10.3244   35.2677  -16.0257 C   0  0  2  0  0  0  0  0  0  0  0  0
   -2.3522   35.2699  -14.2883 C   0  0  2  0  0  0  0  0  0  0  0  0
   -9.8186   37.0143  -10.9745 N   0  0  0  0  0  0  0  0  0  0  0  0
   -8.8049   36.8858  -11.8762 C   0  0  0  0  0  0  0  0  0  0  0  0
   -9.0395   36.4296  -13.1484 N   0  0  0  0  0  0  0  0  0  0  0  0
  -10.3160   36.0974  -13.5093 C   0  0  0  0  0  0  0  0  0  0  0  0
  -11.3222   36.2114  -12.6313 C   0  0  0  0  0  0  0  0  0  0  0  0
  -11.0767   36.6848  -11.3435 C   0  0  0  0  0  0  0  0  0  0  0  0
  -12.0416   36.8511  -10.3304 N   0  0  0  0  0  0  0  0  0  0  0  0
  -12.4575   35.8243  -13.2504 N   0  0  0  0  0  0  0  0  0  0  0  0
  -12.1367   35.4613  -14.5250 C   0  0  0  0  0  0  0  0  0  0  0  0
  -10.8205   35.6452  -14.6921 N   0  0  0  0  0  0  0  0  0  0  0  0
   -5.0380   39.6477  -13.4270 N   0  0  0  0  0  0  0  0  0  0  0  0
   -5.5497   38.4177  -13.6946 C   0  0  0  0  0  0  0  0  0  0  0  0
   -4.7032   37.3658  -13.9051 N   0  0  0  0  0  0  0  0  0  0  0  0
   -3.3565   37.5469  -13.8418 C   0  0  0  0  0  0  0  0  0  0  0  0
   -2.8416   38.7636  -13.5722 C   0  0  0  0  0  0  0  0  0  0  0  0
   -3.7110   39.8303  -13.3630 C   0  0  0  0  0  0  0  0  0  0  0  0
   -3.3852   41.2052  -13.0829 N   0  0  0  0  0  0  0  0  0  0  0  0
   -1.4924   38.6425  -13.5763 N   0  0  0  0  0  0  0  0  0  0  0  0
   -1.1809   37.3422  -13.8446 C   0  0  0  0  0  0  0  0  0  0  0  0
   -2.3402   36.6724  -14.0041 N   0  0  0  0  0  0  0  0  0  0  0  0
  1  3  1  6  0  0  0
  1  5  2  0  0  0  0
  1  9  1  0  0  0  0
  1 18  1  0  0  0  0
  2  4  1  1  0  0  0
  2  6  2  0  0  0  0
  2 10  1  0  0  0  0
  2 17  1  0  0  0  0
  7  9  1  0  0  0  0
  8 10  1  0  0  0  0
 11  7  1  1  0  0  0
 11 13  1  0  0  0  0
 11 15  1  0  0  0  0
 12  8  1  6  0  0  0
 12 14  1  0  0  0  0
 12 16  1  0  0  0  0
 13 23  1  0  0  0  0
 14 24  1  0  0  0  0
 15 17  1  6  0  0  0
 15 19  1  0  0  0  0
 16 18  1  1  0  0  0
 16 20  1  0  0  0  0
 19 21  1  6  0  0  0
 19 23  1  0  0  0  0
 20 22  1  6  0  0  0
 20 24  1  0  0  0  0
 23 34  1  1  0  0  0
 24 44  1  1  0  0  0
 25 26  2  0  0  0  0
 25 30  1  0  0  0  0
 26 27  1  0  0  0  0
 27 28  2  0  0  0  0
 28 29  1  0  0  0  0
 28 34  1  0  0  0  0
 29 30  2  0  0  0  0
 29 32  1  0  0  0  0
 30 31  1  0  0  0  0
 32 33  2  0  0  0  0
 33 34  1  0  0  0  0
 35 36  2  0  0  0  0
 35 40  1  0  0  0  0
 36 37  1  0  0  0  0
 37 38  2  0  0  0  0
 38 39  1  0  0  0  0
 38 44  1  0  0  0  0
 39 40  2  0  0  0  0
 39 42  1  0  0  0  0
 40 41  1  0  0  0  0
 42 43  2  0  0  0  0
 43 44  1  0  0  0  0
M  CHG  2   3  -1   4  -1
M  END
>  <CHROM.1>
77.60720384,72.85332088,-6.52622430,35.77688183,-14.62335480,-0.08091533
-0.12158345,-2.58577515

>  <Name>
ligand

>  <RI>
0

>  <Rbt.Current_Directory>
/home/itssahil/PROJECTS/Mol_Feturizer/New_Systems/rnas/4QLM

>  <Rbt.Executable>
rbdock ($Id: //depot/dev/client3/rdock/2013.1/src/exe/rbdock.cxx#4 $)

>  <Rbt.Library>
libRbt.so (2013.1, Build901 2013/11/27)

>  <Rbt.Parameter_File>
/export/apps/rDock/src/rDock_2013.1_src/data/scripts/dock_solv.prm

>  <Rbt.Receptor>
prm/pocket_docking_6.prm

>  <SCORE>
-8.96372

>  <SCORE.INTER>
-7.22662

>  <SCORE.INTER.CONST>
1

>  <SCORE.INTER.POLAR>
0

>  <SCORE.INTER.ROT>
2

>  <SCORE.INTER.SOLV>
23.1289

>  <SCORE.INTER.VDW>
-17.4607

>  <SCORE.INTER.norm>
-0.164241

>  <SCORE.INTRA>
-1.7407

>  <SCORE.INTRA.DIHEDRAL>
-0.0118219

>  <SCORE.INTRA.DIHEDRAL.0>
2.32994

>  <SCORE.INTRA.POLAR>
0

>  <SCORE.INTRA.POLAR.0>
0

>  <SCORE.INTRA.REPUL>
0

>  <SCORE.INTRA.REPUL.0>
0

>  <SCORE.INTRA.SOLV>
0.426449

>  <SCORE.INTRA.SOLV.lig_0>
-117.703

>  <SCORE.INTRA.VDW>
-1.94801

>  <SCORE.INTRA.VDW.0>
-1.59997

>  <SCORE.INTRA.norm>
-0.0395613

>  <SCORE.RESTR>
0.00359393

>  <SCORE.RESTR.CAVITY>
0.00359393

>  <SCORE.RESTR.norm>
8.16803e-05

>  <SCORE.SYSTEM>
0

>  <SCORE.SYSTEM.CONST>
0

>  <SCORE.SYSTEM.DIHEDRAL>
0

>  <SCORE.SYSTEM.SOLV>
0

>  <SCORE.SYSTEM.norm>
0

>  <SCORE.heavy>
44

>  <SCORE.norm>
-0.203721

>  <RMSD>
6.459

$$$$
ligand
 OpenBabel11021811513D
libRbt.so/2013.1/901 2013/11/27
 44 50  0  0  0  0  0  0  0  0999 V2000
   -5.4793   33.1887  -13.7307 P   0  0  2  0  0  0  0  0  0  0  0  0
   -5.8302   36.8459  -17.6939 P   0  0  1  0  0  0  0  0  0  0  0  0
   -5.9832   31.7488  -13.7872 O   0  5  0  0  0  0  0  0  0  0  0  0
   -6.2443   38.1241  -17.0063 O   0  5  0  0  0  0  0  0  0  0  0  0
   -5.4851   33.5779  -12.2720 O   0  0  0  0  0  0  0  0  0  0  0  0
   -5.3795   37.2174  -19.1250 O   0  0  0  0  0  0  0  0  0  0  0  0
   -7.0951   33.2809  -15.6856 C   0  0  0  0  0  0  0  0  0  0  0  0
   -4.2890   34.8528  -17.1278 C   0  0  0  0  0  0  0  0  0  0  0  0
   -6.4830   34.0036  -14.6089 O   0  0  0  0  0  0  0  0  0  0  0  0
   -4.7274   36.1667  -16.6804 O   0  0  0  0  0  0  0  0  0  0  0  0
   -8.0813   34.1777  -16.4264 C   0  0  1  0  0  0  0  0  0  0  0  0
   -3.1472   34.4091  -16.1374 C   0  0  1  0  0  0  0  0  0  0  0  0
   -9.2148   34.1385  -15.7971 O   0  0  0  0  0  0  0  0  0  0  0  0
   -2.3335   35.3843  -16.1084 O   0  0  0  0  0  0  0  0  0  0  0  0
   -7.6564   35.6277  -16.4639 C   0  0  1  0  0  0  0  0  0  0  0  0
   -3.6643   34.3595  -14.6858 C   0  0  1  0  0  0  0  0  0  0  0  0
   -7.1061   35.8401  -17.6887 O   0  0  0  0  0  0  0  0  0  0  0  0
   -3.9239   33.1034  -14.3029 O   0  0  0  0  0  0  0  0  0  0  0  0
   -9.0087   36.4113  -16.3311 C   0  0  1  0  0  0  0  0  0  0  0  0
   -2.5738   35.0006  -13.7975 C   0  0  1  0  0  0  0  0  0  0  0  0
   -9.4429   36.9107  -17.6636 O   0  0  0  0  0  0  0  0  0  0  0  0
   -1.7874   33.9421  -13.0860 O   0  0  0  0  0  0  0  0  0  0  0  0
   -9.8723   35.5805  -15.8416 C   0  0  2  0  0  0  0  0  0  0  0  0
   -1.8055   35.6313  -14.6178 C   0  0  2  0  0  0  0  0  0  0  0  0
   -9.0593   36.7481  -10.6650 N   0  0  0  0  0  0  0  0  0  0  0  0
   -8.0975   36.3785  -11.5569 C   0  0  0  0  0  0  0  0  0  0  0  0
   -8.4093   36.1015  -12.8636 N   0  0  0  0  0  0  0  0  0  0  0  0
   -9.7115   36.1978  -13.2698 C   0  0  0  0  0  0  0  0  0  0  0  0
  -10.6696   36.5531  -12.4026 C   0  0  0  0  0  0  0  0  0  0  0  0
  -10.3428   36.8421  -11.0788 C   0  0  0  0  0  0  0  0  0  0  0  0
  -11.2511   37.2254  -10.0723 N   0  0  0  0  0  0  0  0  0  0  0  0
  -11.8439   36.5717  -13.0681 N   0  0  0  0  0  0  0  0  0  0  0  0
  -11.5984   36.2146  -14.3609 C   0  0  0  0  0  0  0  0  0  0  0  0
  -10.2826   36.0006  -14.4917 N   0  0  0  0  0  0  0  0  0  0  0  0
   -4.4189   40.1166  -14.2031 N   0  0  0  0  0  0  0  0  0  0  0  0
   -4.9397   38.8939  -14.4859 C   0  0  0  0  0  0  0  0  0  0  0  0
   -4.1115   37.8100  -14.5667 N   0  0  0  0  0  0  0  0  0  0  0  0
   -2.7745   37.9523  -14.3599 C   0  0  0  0  0  0  0  0  0  0  0  0
   -2.2513   39.1618  -14.0743 C   0  0  0  0  0  0  0  0  0  0  0  0
   -3.1016   40.2611  -13.9978 C   0  0  0  0  0  0  0  0  0  0  0  0
   -2.7619   41.6347  -13.7279 N   0  0  0  0  0  0  0  0  0  0  0  0
   -0.9148   38.9998  -13.9243 N   0  0  0  0  0  0  0  0  0  0  0  0
   -0.6201   37.6818  -14.1140 C   0  0  0  0  0  0  0  0  0  0  0  0
   -1.7770   37.0422  -14.3797 N   0  0  0  0  0  0  0  0  0  0  0  0
  1  3  1  6  0  0  0
  1  5  2  0  0  0  0
  1  9  1  0  0  0  0
  1 18  1  0  0  0  0
  2  4  1  1  0  0  0
  2  6  2  0  0  0  0
  2 10  1  0  0  0  0
  2 17  1  0  0  0  0
  7  9  1  0  0  0  0
  8 10  1  0  0  0  0
 11  7  1  1  0  0  0
 11 13  1  0  0  0  0
 11 15  1  0  0  0  0
 12  8  1  6  0  0  0
 12 14  1  0  0  0  0
 12 16  1  0  0  0  0
 13 23  1  0  0  0  0
 14 24  1  0  0  0  0
 15 17  1  6  0  0  0
 15 19  1  0  0  0  0
 16 18  1  1  0  0  0
 16 20  1  0  0  0  0
 19 21  1  6  0  0  0
 19 23  1  0  0  0  0
 20 22  1  6  0  0  0
 20 24  1  0  0  0  0
 23 34  1  1  0  0  0
 24 44  1  1  0  0  0
 25 26  2  0  0  0  0
 25 30  1  0  0  0  0
 26 27  1  0  0  0  0
 27 28  2  0  0  0  0
 28 29  1  0  0  0  0
 28 34  1  0  0  0  0
 29 30  2  0  0  0  0
 29 32  1  0  0  0  0
 30 31  1  0  0  0  0
 32 33  2  0  0  0  0
 33 34  1  0  0  0  0
 35 36  2  0  0  0  0
 35 40  1  0  0  0  0
 36 37  1  0  0  0  0
 37 38  2  0  0  0  0
 38 39  1  0  0  0  0
 38 44  1  0  0  0  0
 39 40  2  0  0  0  0
 39 42  1  0  0  0  0
 40 41  1  0  0  0  0
 42 43  2  0  0  0  0
 43 44  1  0  0  0  0
M  CHG  2   3  -1   4  -1
M  END
>  <CHROM.1>
58.23445315,62.66166081,-5.99414244,36.08712307,-14.72334671,-3.05430295
0.19552047,0.38388831

>  <Name>
ligand

>  <RI>
0

>  <Rbt.Current_Directory>
/home/itssahil/PROJECTS/Mol_Feturizer/New_Systems/rnas/4QLM

>  <Rbt.Executable>
rbdock ($Id: //depot/dev/client3/rdock/2013.1/src/exe/rbdock.cxx#4 $)

>  <Rbt.Library>
libRbt.so (2013.1, Build901 2013/11/27)

>  <Rbt.Parameter_File>
/export/apps/rDock/src/rDock_2013.1_src/data/scripts/dock_solv.prm

>  <Rbt.Receptor>
prm/pocket_docking_7.prm

>  <SCORE>
-11.3515

>  <SCORE.INTER>
-9.49894

>  <SCORE.INTER.CONST>
1

>  <SCORE.INTER.POLAR>
0

>  <SCORE.INTER.ROT>
2

>  <SCORE.INTER.SOLV>
24.874

>  <SCORE.INTER.VDW>
-19.5573

>  <SCORE.INTER.norm>
-0.215885

>  <SCORE.INTRA>
-1.85259

>  <SCORE.INTRA.DIHEDRAL>
0.0720079

>  <SCORE.INTRA.DIHEDRAL.0>
2.32994

>  <SCORE.INTRA.POLAR>
0

>  <SCORE.INTRA.POLAR.0>
0

>  <SCORE.INTRA.REPUL>
0

>  <SCORE.INTRA.REPUL.0>
0

>  <SCORE.INTRA.SOLV>
1.00867

>  <SCORE.INTRA.SOLV.lig_0>
-117.703

>  <SCORE.INTRA.VDW>
-2.39292

>  <SCORE.INTRA.VDW.0>
-1.59997

>  <SCORE.INTRA.norm>
-0.0421042

>  <SCORE.RESTR>
0

>  <SCORE.RESTR.CAVITY>
0

>  <SCORE.RESTR.norm>
0

>  <SCORE.SYSTEM>
0

>  <SCORE.SYSTEM.CONST>
0

>  <SCORE.SYSTEM.DIHEDRAL>
0

>  <SCORE.SYSTEM.SOLV>
0

>  <SCORE.SYSTEM.norm>
0

>  <SCORE.heavy>
44

>  <SCORE.norm>
-0.257989

>  <RMSD>
6.466

$$$$
ligand
 OpenBabel11021811513D
libRbt.so/2013.1/901 2013/11/27
 44 50  0  0  0  0  0  0  0  0999 V2000
   -6.2310   32.6308  -13.7732 P   0  0  2  0  0  0  0  0  0  0  0  0
   -6.0066   36.5168  -17.5222 P   0  0  1  0  0  0  0  0  0  0  0  0
   -6.8164   31.2332  -13.9592 O   0  5  0  0  0  0  0  0  0  0  0  0
   -6.3992   37.7798  -16.7951 O   0  5  0  0  0  0  0  0  0  0  0  0
   -6.3403   32.9383  -12.2991 O   0  0  0  0  0  0  0  0  0  0  0  0
   -5.4103   36.9357  -18.8852 O   0  0  0  0  0  0  0  0  0  0  0  0
   -7.6609   32.9390  -15.8473 C   0  0  0  0  0  0  0  0  0  0  0  0
   -4.6473   34.3966  -16.9513 C   0  0  0  0  0  0  0  0  0  0  0  0
   -7.1016   33.5583  -14.6811 O   0  0  0  0  0  0  0  0  0  0  0  0
   -5.0409   35.7102  -16.4630 O   0  0  0  0  0  0  0  0  0  0  0  0
   -8.5210   33.9394  -16.6121 C   0  0  1  0  0  0  0  0  0  0  0  0
   -3.6262   33.8234  -15.8976 C   0  0  1  0  0  0  0  0  0  0  0  0
   -9.7054   33.9415  -16.0834 O   0  0  0  0  0  0  0  0  0  0  0  0
   -2.7593   34.7389  -15.7413 O   0  0  0  0  0  0  0  0  0  0  0  0
   -8.0054   35.3575  -16.5256 C   0  0  1  0  0  0  0  0  0  0  0  0
   -4.2704   33.7284  -14.5001 C   0  0  1  0  0  0  0  0  0  0  0  0
   -7.3379   35.5999  -17.6849 O   0  0  0  0  0  0  0  0  0  0  0  0
   -4.6399   32.4733  -14.2173 O   0  0  0  0  0  0  0  0  0  0  0  0
   -9.3129   36.2213  -16.4590 C   0  0  1  0  0  0  0  0  0  0  0  0
   -3.2241   34.2450  -13.4863 C   0  0  1  0  0  0  0  0  0  0  0  0
   -9.5971   36.8215  -17.7904 O   0  0  0  0  0  0  0  0  0  0  0  0
   -2.5701   33.0984  -12.7772 O   0  0  0  0  0  0  0  0  0  0  0  0
  -10.2658   35.4245  -16.0950 C   0  0  2  0  0  0  0  0  0  0  0  0
   -2.3494   34.8671  -14.1996 C   0  0  2  0  0  0  0  0  0  0  0  0
   -9.7960   37.2776  -11.0784 N   0  0  0  0  0  0  0  0  0  0  0  0
   -8.7876   37.1901  -11.9910 C   0  0  0  0  0  0  0  0  0  0  0  0
   -9.0121   36.7013  -13.2528 N   0  0  0  0  0  0  0  0  0  0  0  0
  -10.2728   36.2940  -13.5921 C   0  0  0  0  0  0  0  0  0  0  0  0
  -11.2731   36.3672  -12.7030 C   0  0  0  0  0  0  0  0  0  0  0  0
  -11.0384   36.8741  -11.4260 C   0  0  0  0  0  0  0  0  0  0  0  0
  -11.9988   37.0038  -10.4034 N   0  0  0  0  0  0  0  0  0  0  0  0
  -12.3928   35.9086  -13.3015 N   0  0  0  0  0  0  0  0  0  0  0  0
  -12.0679   35.5431  -14.5743 C   0  0  0  0  0  0  0  0  0  0  0  0
  -10.7658   35.7959  -14.7611 N   0  0  0  0  0  0  0  0  0  0  0  0
   -4.7198   39.4736  -13.6688 N   0  0  0  0  0  0  0  0  0  0  0  0
   -5.2916   38.3034  -14.0563 C   0  0  0  0  0  0  0  0  0  0  0  0
   -4.5240   37.1770  -14.1535 N   0  0  0  0  0  0  0  0  0  0  0  0
   -3.1969   37.2247  -13.8588 C   0  0  0  0  0  0  0  0  0  0  0  0
   -2.6237   38.3814  -13.4693 C   0  0  0  0  0  0  0  0  0  0  0  0
   -3.4120   39.5247  -13.3768 C   0  0  0  0  0  0  0  0  0  0  0  0
   -3.0112   40.8571  -13.0037 N   0  0  0  0  0  0  0  0  0  0  0  0
   -1.3109   38.1292  -13.2499 N   0  0  0  0  0  0  0  0  0  0  0  0
   -1.0816   36.8086  -13.5016 C   0  0  0  0  0  0  0  0  0  0  0  0
   -2.2544   36.2576  -13.8745 N   0  0  0  0  0  0  0  0  0  0  0  0
  1  3  1  6  0  0  0
  1  5  2  0  0  0  0
  1  9  1  0  0  0  0
  1 18  1  0  0  0  0
  2  4  1  1  0  0  0
  2  6  2  0  0  0  0
  2 10  1  0  0  0  0
  2 17  1  0  0  0  0
  7  9  1  0  0  0  0
  8 10  1  0  0  0  0
 11  7  1  1  0  0  0
 11 13  1  0  0  0  0
 11 15  1  0  0  0  0
 12  8  1  6  0  0  0
 12 14  1  0  0  0  0
 12 16  1  0  0  0  0
 13 23  1  0  0  0  0
 14 24  1  0  0  0  0
 15 17  1  6  0  0  0
 15 19  1  0  0  0  0
 16 18  1  1  0  0  0
 16 20  1  0  0  0  0
 19 21  1  6  0  0  0
 19 23  1  0  0  0  0
 20 22  1  6  0  0  0
 20 24  1  0  0  0  0
 23 34  1  1  0  0  0
 24 44  1  1  0  0  0
 25 26  2  0  0  0  0
 25 30  1  0  0  0  0
 26 27  1  0  0  0  0
 27 28  2  0  0  0  0
 28 29  1  0  0  0  0
 28 34  1  0  0  0  0
 29 30  2  0  0  0  0
 29 32  1  0  0  0  0
 30 31  1  0  0  0  0
 32 33  2  0  0  0  0
 33 34  1  0  0  0  0
 35 36  2  0  0  0  0
 35 40  1  0  0  0  0
 36 37  1  0  0  0  0
 37 38  2  0  0  0  0
 38 39  1  0  0  0  0
 38 44  1  0  0  0  0
 39 40  2  0  0  0  0
 39 42  1  0  0  0  0
 40 41  1  0  0  0  0
 42 43  2  0  0  0  0
 43 44  1  0  0  0  0
M  CHG  2   3  -1   4  -1
M  END
>  <CHROM.1>
85.10928275,64.07510747,-6.47251449,35.67615819,-14.63996195,-0.03928670
-0.06861173,-2.66490550

>  <Name>
ligand

>  <RI>
0

>  <Rbt.Current_Directory>
/home/itssahil/PROJECTS/Mol_Feturizer/New_Systems/rnas/4QLM

>  <Rbt.Executable>
rbdock ($Id: //depot/dev/client3/rdock/2013.1/src/exe/rbdock.cxx#4 $)

>  <Rbt.Library>
libRbt.so (2013.1, Build901 2013/11/27)

>  <Rbt.Parameter_File>
/export/apps/rDock/src/rDock_2013.1_src/data/scripts/dock_solv.prm

>  <Rbt.Receptor>
prm/pocket_docking_5.prm

>  <SCORE>
-8.01302

>  <SCORE.INTER>
-6.6181

>  <SCORE.INTER.CONST>
1

>  <SCORE.INTER.POLAR>
0

>  <SCORE.INTER.ROT>
2

>  <SCORE.INTER.SOLV>
22.5538

>  <SCORE.INTER.VDW>
-16.8633

>  <SCORE.INTER.norm>
-0.150411

>  <SCORE.INTRA>
-1.65206

>  <SCORE.INTRA.DIHEDRAL>
-0.0308984

>  <SCORE.INTRA.DIHEDRAL.0>
2.32994

>  <SCORE.INTRA.POLAR>
0

>  <SCORE.INTRA.POLAR.0>
0

>  <SCORE.INTRA.REPUL>
0

>  <SCORE.INTRA.REPUL.0>
0

>  <SCORE.INTRA.SOLV>
0.820149

>  <SCORE.INTRA.SOLV.lig_0>
-117.703

>  <SCORE.INTRA.VDW>
-2.04668

>  <SCORE.INTRA.VDW.0>
-1.59997

>  <SCORE.INTRA.norm>
-0.0375467

>  <SCORE.RESTR>
0.257133

>  <SCORE.RESTR.CAVITY>
0.257133

>  <SCORE.RESTR.norm>
0.00584393

>  <SCORE.SYSTEM>
0

>  <SCORE.SYSTEM.CONST>
0

>  <SCORE.SYSTEM.DIHEDRAL>
0

>  <SCORE.SYSTEM.SOLV>
0

>  <SCORE.SYSTEM.norm>
0

>  <SCORE.heavy>
44

>  <SCORE.norm>
-0.182114

>  <RMSD>
6.467

$$$$
ligand
 OpenBabel11021811513D
libRbt.so/2013.1/901 2013/11/27
 44 50  0  0  0  0  0  0  0  0999 V2000
   -6.4285   36.1459  -17.6276 P   0  0  2  0  0  0  0  0  0  0  0  0
   -6.3887   33.0027  -13.2317 P   0  0  1  0  0  0  0  0  0  0  0  0
   -5.7886   35.8184  -18.9744 O   0  5  0  0  0  0  0  0  0  0  0  0
   -6.1058   33.9430  -12.0854 O   0  5  0  0  0  0  0  0  0  0  0  0
   -6.4747   37.6525  -17.5409 O   0  0  0  0  0  0  0  0  0  0  0  0
   -6.8582   31.6619  -12.6229 O   0  0  0  0  0  0  0  0  0  0  0  0
   -4.8091   34.2966  -16.9964 C   0  0  0  0  0  0  0  0  0  0  0  0
   -7.7379   33.1152  -15.4306 C   0  0  0  0  0  0  0  0  0  0  0  0
   -5.4984   35.4774  -16.5643 O   0  0  0  0  0  0  0  0  0  0  0  0
   -7.4317   33.8281  -14.1990 O   0  0  0  0  0  0  0  0  0  0  0  0
   -3.9057   33.7784  -15.8825 C   0  0  1  0  0  0  0  0  0  0  0  0
   -8.8420   33.9637  -16.1672 C   0  0  1  0  0  0  0  0  0  0  0  0
   -2.7801   34.4201  -15.9434 O   0  0  0  0  0  0  0  0  0  0  0  0
   -9.7455   34.1627  -15.2965 O   0  0  0  0  0  0  0  0  0  0  0  0
   -4.4669   34.0182  -14.4997 C   0  0  1  0  0  0  0  0  0  0  0  0
   -8.3373   35.3907  -16.4601 C   0  0  1  0  0  0  0  0  0  0  0  0
   -5.0226   32.8447  -14.0967 O   0  0  0  0  0  0  0  0  0  0  0  0
   -7.9626   35.5232  -17.7383 O   0  0  0  0  0  0  0  0  0  0  0  0
   -3.1972   34.3438  -13.6383 C   0  0  1  0  0  0  0  0  0  0  0  0
   -9.4931   36.3568  -16.1134 C   0  0  1  0  0  0  0  0  0  0  0  0
   -2.7992   33.1508  -12.8435 O   0  0  0  0  0  0  0  0  0  0  0  0
  -10.1819   36.8199  -17.3609 O   0  0  0  0  0  0  0  0  0  0  0  0
   -2.2631   34.6829  -14.4678 C   0  0  2  0  0  0  0  0  0  0  0  0
  -10.3099   35.6565  -15.4038 C   0  0  2  0  0  0  0  0  0  0  0  0
   -2.7533   39.9547  -15.3565 N   0  0  0  0  0  0  0  0  0  0  0  0
   -3.5403   38.9813  -15.8955 C   0  0  0  0  0  0  0  0  0  0  0  0
   -3.3330   37.6573  -15.6030 N   0  0  0  0  0  0  0  0  0  0  0  0
   -2.3144   37.3163  -14.7566 C   0  0  0  0  0  0  0  0  0  0  0  0
   -1.5274   38.2618  -14.2244 C   0  0  0  0  0  0  0  0  0  0  0  0
   -1.7509   39.6056  -14.5193 C   0  0  0  0  0  0  0  0  0  0  0  0
   -0.9996   40.6914  -14.0279 N   0  0  0  0  0  0  0  0  0  0  0  0
   -0.6208   37.6488  -13.4341 N   0  0  0  0  0  0  0  0  0  0  0  0
   -0.8547   36.3067  -13.4914 C   0  0  0  0  0  0  0  0  0  0  0  0
   -1.9086   36.1009  -14.2919 N   0  0  0  0  0  0  0  0  0  0  0  0
   -8.2436   38.1202  -11.3073 N   0  0  0  0  0  0  0  0  0  0  0  0
   -7.6185   37.8156  -12.4746 C   0  0  0  0  0  0  0  0  0  0  0  0
   -8.3040   37.1550  -13.4549 N   0  0  0  0  0  0  0  0  0  0  0  0
   -9.6060   36.8090  -13.2662 C   0  0  0  0  0  0  0  0  0  0  0  0
  -10.2342   37.1120  -12.1122 C   0  0  0  0  0  0  0  0  0  0  0  0
   -9.5272   37.7815  -11.1176 C   0  0  0  0  0  0  0  0  0  0  0  0
   -9.9871   38.1844   -9.8132 N   0  0  0  0  0  0  0  0  0  0  0  0
  -11.5033   36.6480  -12.2079 N   0  0  0  0  0  0  0  0  0  0  0  0
  -11.6532   36.0626  -13.4304 C   0  0  0  0  0  0  0  0  0  0  0  0
  -10.4756   36.1700  -14.0783 N   0  0  0  0  0  0  0  0  0  0  0  0
  1  3  1  6  0  0  0
  1  5  2  0  0  0  0
  1  9  1  0  0  0  0
  1 18  1  0  0  0  0
  2  4  1  1  0  0  0
  2  6  2  0  0  0  0
  2 10  1  0  0  0  0
  2 17  1  0  0  0  0
  7  9  1  0  0  0  0
  8 10  1  0  0  0  0
 11  7  1  6  0  0  0
 11 13  1  0  0  0  0
 11 15  1  0  0  0  0
 12  8  1  1  0  0  0
 12 14  1  0  0  0  0
 12 16  1  0  0  0  0
 13 23  1  0  0  0  0
 14 24  1  0  0  0  0
 15 17  1  1  0  0  0
 15 19  1  0  0  0  0
 16 18  1  6  0  0  0
 16 20  1  0  0  0  0
 19 21  1  6  0  0  0
 19 23  1  0  0  0  0
 20 22  1  6  0  0  0
 20 24  1  0  0  0  0
 23 34  1  6  0  0  0
 24 44  1  1  0  0  0
 25 26  2  0  0  0  0
 25 30  1  0  0  0  0
 26 27  1  0  0  0  0
 27 28  2  0  0  0  0
 28 29  1  0  0  0  0
 28 34  1  0  0  0  0
 29 30  2  0  0  0  0
 29 32  1  0  0  0  0
 30 31  1  0  0  0  0
 32 33  2  0  0  0  0
 33 34  1  0  0  0  0
 35 36  2  0  0  0  0
 35 40  1  0  0  0  0
 36 37  1  0  0  0  0
 37 38  2  0  0  0  0
 38 39  1  0  0  0  0
 38 44  1  0  0  0  0
 39 40  2  0  0  0  0
 39 42  1  0  0  0  0
 40 41  1  0  0  0  0
 42 43  2  0  0  0  0
 43 44  1  0  0  0  0
M  CHG  2   3  -1   4  -1
M  END
>  <CHROM.1>
32.23898933,87.58807911,-6.15676852,35.84841233,-14.64790245,-0.05848655
-0.16224823,-2.58522229

>  <Name>
ligand

>  <RI>
0

>  <Rbt.Current_Directory>
/home/itssahil/PROJECTS/Mol_Feturizer/New_Systems/rnas/4QLM

>  <Rbt.Executable>
rbdock ($Id: //depot/dev/client3/rdock/2013.1/src/exe/rbdock.cxx#4 $)

>  <Rbt.Library>
libRbt.so (2013.1, Build901 2013/11/27)

>  <Rbt.Parameter_File>
/export/apps/rDock/src/rDock_2013.1_src/data/scripts/dock_solv.prm

>  <Rbt.Receptor>
prm/pocket_docking_6.prm

>  <SCORE>
-9.86984

>  <SCORE.INTER>
-8.68234

>  <SCORE.INTER.CONST>
1

>  <SCORE.INTER.POLAR>
0

>  <SCORE.INTER.ROT>
2

>  <SCORE.INTER.SOLV>
24.9666

>  <SCORE.INTER.VDW>
-19.0438

>  <SCORE.INTER.norm>
-0.197326

>  <SCORE.INTRA>
-1.27919

>  <SCORE.INTRA.DIHEDRAL>
0.183294

>  <SCORE.INTRA.DIHEDRAL.0>
2.32994

>  <SCORE.INTRA.POLAR>
0

>  <SCORE.INTRA.POLAR.0>
0

>  <SCORE.INTRA.REPUL>
0

>  <SCORE.INTRA.REPUL.0>
0

>  <SCORE.INTRA.SOLV>
0.380863

>  <SCORE.INTRA.SOLV.lig_0>
-117.703

>  <SCORE.INTRA.VDW>
-1.56126

>  <SCORE.INTRA.VDW.0>
-1.59997

>  <SCORE.INTRA.norm>
-0.0290724

>  <SCORE.RESTR>
0.0916841

>  <SCORE.RESTR.CAVITY>
0.0916841

>  <SCORE.RESTR.norm>
0.00208373

>  <SCORE.SYSTEM>
0

>  <SCORE.SYSTEM.CONST>
0

>  <SCORE.SYSTEM.DIHEDRAL>
0

>  <SCORE.SYSTEM.SOLV>
0

>  <SCORE.SYSTEM.norm>
0

>  <SCORE.heavy>
44

>  <SCORE.norm>
-0.224315

>  <RMSD>
6.481

$$$$
ligand
 OpenBabel11021811513D
libRbt.so/2013.1/901 2013/11/27
 44 50  0  0  0  0  0  0  0  0999 V2000
   -3.9852   35.3604  -13.0665 P   0  0  2  0  0  0  0  0  0  0  0  0
   -5.8480   37.2151  -17.7884 P   0  0  1  0  0  0  0  0  0  0  0  0
   -2.8355   34.3741  -12.8772 O   0  5  0  0  0  0  0  0  0  0  0  0
   -7.3507   37.1835  -17.6515 O   0  5  0  0  0  0  0  0  0  0  0  0
   -4.8718   35.2086  -11.8539 O   0  0  0  0  0  0  0  0  0  0  0  0
   -5.5170   38.0499  -19.0464 O   0  0  0  0  0  0  0  0  0  0  0  0
   -3.8029   34.3262  -15.3770 C   0  0  0  0  0  0  0  0  0  0  0  0
   -3.8566   37.7454  -16.2322 C   0  0  0  0  0  0  0  0  0  0  0  0
   -4.6662   34.9355  -14.4076 O   0  0  0  0  0  0  0  0  0  0  0  0
   -5.3088   37.7534  -16.3308 O   0  0  0  0  0  0  0  0  0  0  0  0
   -4.6022   33.9205  -16.6107 C   0  0  1  0  0  0  0  0  0  0  0  0
   -3.5059   38.4123  -14.8488 C   0  0  1  0  0  0  0  0  0  0  0  0
   -5.1244   32.7541  -16.3885 O   0  0  0  0  0  0  0  0  0  0  0  0
   -4.1464   39.5094  -14.8357 O   0  0  0  0  0  0  0  0  0  0  0  0
   -5.7486   34.8579  -16.9132 C   0  0  1  0  0  0  0  0  0  0  0  0
   -4.1479   37.6344  -13.6827 C   0  0  1  0  0  0  0  0  0  0  0  0
   -5.3250   35.6816  -17.9084 O   0  0  0  0  0  0  0  0  0  0  0  0
   -3.2539   36.8500  -13.0685 O   0  0  0  0  0  0  0  0  0  0  0  0
   -6.8762   33.9030  -17.4394 C   0  0  1  0  0  0  0  0  0  0  0  0
   -4.7327   38.6835  -12.7099 C   0  0  1  0  0  0  0  0  0  0  0  0
   -6.9473   33.9658  -18.9241 O   0  0  0  0  0  0  0  0  0  0  0  0
   -3.8366   38.8536  -11.5210 O   0  0  0  0  0  0  0  0  0  0  0  0
   -6.5699   32.7110  -17.0383 C   0  0  2  0  0  0  0  0  0  0  0  0
   -4.7667   39.7805  -13.3854 C   0  0  2  0  0  0  0  0  0  0  0  0
   -8.2705   31.3032  -12.1447 N   0  0  0  0  0  0  0  0  0  0  0  0
   -7.0311   31.7818  -12.4482 C   0  0  0  0  0  0  0  0  0  0  0  0
   -6.6941   32.1155  -13.7352 N   0  0  0  0  0  0  0  0  0  0  0  0
   -7.6236   31.9595  -14.7262 C   0  0  0  0  0  0  0  0  0  0  0  0
   -8.8443   31.4832  -14.4444 C   0  0  0  0  0  0  0  0  0  0  0  0
   -9.1816   31.1554  -13.1324 C   0  0  0  0  0  0  0  0  0  0  0  0
  -10.4245   30.6479  -12.7050 N   0  0  0  0  0  0  0  0  0  0  0  0
   -9.5472   31.4390  -15.5960 N   0  0  0  0  0  0  0  0  0  0  0  0
   -8.7388   31.8892  -16.5976 C   0  0  0  0  0  0  0  0  0  0  0  0
   -7.5588   32.2268  -16.0612 N   0  0  0  0  0  0  0  0  0  0  0  0
   -9.7252   38.8973  -14.7095 N   0  0  0  0  0  0  0  0  0  0  0  0
   -8.7064   37.9984  -14.7226 C   0  0  0  0  0  0  0  0  0  0  0  0
   -7.4525   38.3940  -14.3502 N   0  0  0  0  0  0  0  0  0  0  0  0
   -7.2260   39.6784  -13.9632 C   0  0  0  0  0  0  0  0  0  0  0  0
   -8.2332   40.5747  -13.9434 C   0  0  0  0  0  0  0  0  0  0  0  0
   -9.5063   40.1641  -14.3280 C   0  0  0  0  0  0  0  0  0  0  0  0
  -10.7126   40.9481  -14.4009 N   0  0  0  0  0  0  0  0  0  0  0  0
   -7.7169   41.7549  -13.5244 N   0  0  0  0  0  0  0  0  0  0  0  0
   -6.3867   41.5772  -13.2814 C   0  0  0  0  0  0  0  0  0  0  0  0
   -6.0938   40.2894  -13.5528 N   0  0  0  0  0  0  0  0  0  0  0  0
  1  3  1  1  0  0  0
  1  5  2  0  0  0  0
  1  9  1  0  0  0  0
  1 18  1  0  0  0  0
  2  4  1  1  0  0  0
  2  6  2  0  0  0  0
  2 10  1  0  0  0  0
  2 17  1  0  0  0  0
  7  9  1  0  0  0  0
  8 10  1  0  0  0  0
 11  7  1  1  0  0  0
 11 13  1  0  0  0  0
 11 15  1  0  0  0  0
 12  8  1  6  0  0  0
 12 14  1  0  0  0  0
 12 16  1  0  0  0  0
 13 23  1  0  0  0  0
 14 24  1  0  0  0  0
 15 17  1  6  0  0  0
 15 19  1  0  0  0  0
 16 18  1  1  0  0  0
 16 20  1  0  0  0  0
 19 21  1  6  0  0  0
 19 23  1  0  0  0  0
 20 22  1  1  0  0  0
 20 24  1  0  0  0  0
 23 34  1  1  0  0  0
 24 44  1  6  0  0  0
 25 26  2  0  0  0  0
 25 30  1  0  0  0  0
 26 27  1  0  0  0  0
 27 28  2  0  0  0  0
 28 29  1  0  0  0  0
 28 34  1  0  0  0  0
 29 30  2  0  0  0  0
 29 32  1  0  0  0  0
 30 31  1  0  0  0  0
 32 33  2  0  0  0  0
 33 34  1  0  0  0  0
 35 36  2  0  0  0  0
 35 40  1  0  0  0  0
 36 37  1  0  0  0  0
 37 38  2  0  0  0  0
 38 39  1  0  0  0  0
 38 44  1  0  0  0  0
 39 40  2  0  0  0  0
 39 42  1  0  0  0  0
 40 41  1  0  0  0  0
 42 43  2  0  0  0  0
 43 44  1  0  0  0  0
M  CHG  2   3  -1   4  -1
M  END
>  <CHROM.1>
10.19282286,71.22848694,-6.26618519,36.06939873,-14.89186454,-1.75435606
-0.40633285,0.01512968

>  <Name>
ligand

>  <RI>
0

>  <Rbt.Current_Directory>
/home/itssahil/PROJECTS/Mol_Feturizer/New_Systems/rnas/4QLM

>  <Rbt.Executable>
rbdock ($Id: //depot/dev/client3/rdock/2013.1/src/exe/rbdock.cxx#4 $)

>  <Rbt.Library>
libRbt.so (2013.1, Build901 2013/11/27)

>  <Rbt.Parameter_File>
/export/apps/rDock/src/rDock_2013.1_src/data/scripts/dock_solv.prm

>  <Rbt.Receptor>
prm/pocket_docking_8.prm

>  <SCORE>
-15.0466

>  <SCORE.INTER>
-13.7688

>  <SCORE.INTER.CONST>
1

>  <SCORE.INTER.POLAR>
0

>  <SCORE.INTER.ROT>
2

>  <SCORE.INTER.SOLV>
27.4239

>  <SCORE.INTER.VDW>
-23.2539

>  <SCORE.INTER.norm>
-0.312928

>  <SCORE.INTRA>
-1.27773

>  <SCORE.INTRA.DIHEDRAL>
0.136896

>  <SCORE.INTRA.DIHEDRAL.0>
2.32994

>  <SCORE.INTRA.POLAR>
0

>  <SCORE.INTRA.POLAR.0>
0

>  <SCORE.INTRA.REPUL>
0

>  <SCORE.INTRA.REPUL.0>
0

>  <SCORE.INTRA.SOLV>
0.549019

>  <SCORE.INTRA.SOLV.lig_0>
-117.703

>  <SCORE.INTRA.VDW>
-1.62069

>  <SCORE.INTRA.VDW.0>
-1.59997

>  <SCORE.INTRA.norm>
-0.0290394

>  <SCORE.RESTR>
0

>  <SCORE.RESTR.CAVITY>
0

>  <SCORE.RESTR.norm>
0

>  <SCORE.SYSTEM>
0

>  <SCORE.SYSTEM.CONST>
0

>  <SCORE.SYSTEM.DIHEDRAL>
0

>  <SCORE.SYSTEM.SOLV>
0

>  <SCORE.SYSTEM.norm>
0

>  <SCORE.heavy>
44

>  <SCORE.norm>
-0.341968

>  <RMSD>
6.495

$$$$
ligand
 OpenBabel11021811513D
libRbt.so/2013.1/901 2013/11/27
 44 50  0  0  0  0  0  0  0  0999 V2000
   -6.0985   32.7970  -13.7705 P   0  0  2  0  0  0  0  0  0  0  0  0
   -5.7424   36.6556  -17.5375 P   0  0  1  0  0  0  0  0  0  0  0  0
   -6.6845   31.4008  -13.9645 O   0  5  0  0  0  0  0  0  0  0  0  0
   -6.1510   37.9254  -16.8314 O   0  5  0  0  0  0  0  0  0  0  0  0
   -6.2511   33.1153  -12.3025 O   0  0  0  0  0  0  0  0  0  0  0  0
   -5.1031   37.0623  -18.8846 O   0  0  0  0  0  0  0  0  0  0  0  0
   -7.4633   33.0970  -15.8891 C   0  0  0  0  0  0  0  0  0  0  0  0
   -4.4109   34.5335  -16.9110 C   0  0  0  0  0  0  0  0  0  0  0  0
   -6.9369   33.7221  -14.7107 O   0  0  0  0  0  0  0  0  0  0  0  0
   -4.8130   35.8522  -16.4440 O   0  0  0  0  0  0  0  0  0  0  0  0
   -8.2952   34.0958  -16.6865 C   0  0  1  0  0  0  0  0  0  0  0  0
   -3.4250   33.9631  -15.8229 C   0  0  1  0  0  0  0  0  0  0  0  0
   -9.4951   34.1069  -16.1940 O   0  0  0  0  0  0  0  0  0  0  0  0
   -2.5590   34.8758  -15.6466 O   0  0  0  0  0  0  0  0  0  0  0  0
   -7.7759   35.5122  -16.5942 C   0  0  1  0  0  0  0  0  0  0  0  0
   -4.1117   33.8808  -14.4449 C   0  0  1  0  0  0  0  0  0  0  0  0
   -7.0724   35.7435  -17.7343 O   0  0  0  0  0  0  0  0  0  0  0  0
   -4.4954   32.6294  -14.1649 O   0  0  0  0  0  0  0  0  0  0  0  0
   -9.0808   36.3823  -16.5733 C   0  0  1  0  0  0  0  0  0  0  0  0
   -3.0943   34.3998  -13.4034 C   0  0  1  0  0  0  0  0  0  0  0  0
   -9.3217   36.9744  -17.9167 O   0  0  0  0  0  0  0  0  0  0  0  0
   -2.4674   33.2554  -12.6668 O   0  0  0  0  0  0  0  0  0  0  0  0
  -10.0480   35.5922  -16.2329 C   0  0  2  0  0  0  0  0  0  0  0  0
   -2.1954   35.0131  -14.0940 C   0  0  2  0  0  0  0  0  0  0  0  0
  -10.6559   38.8279  -11.9923 N   0  0  0  0  0  0  0  0  0  0  0  0
   -9.9109   39.1012  -13.1002 C   0  0  0  0  0  0  0  0  0  0  0  0
   -9.8207   38.2047  -14.1344 N   0  0  0  0  0  0  0  0  0  0  0  0
  -10.4913   37.0164  -14.0429 C   0  0  0  0  0  0  0  0  0  0  0  0
  -11.2222   36.7303  -12.9565 C   0  0  0  0  0  0  0  0  0  0  0  0
  -11.3162   37.6509  -11.9142 C   0  0  0  0  0  0  0  0  0  0  0  0
  -12.0480   37.4732  -10.7234 N   0  0  0  0  0  0  0  0  0  0  0  0
  -11.7702   35.5098  -13.1362 N   0  0  0  0  0  0  0  0  0  0  0  0
  -11.3606   35.0412  -14.3494 C   0  0  0  0  0  0  0  0  0  0  0  0
  -10.5865   35.9752  -14.9174 N   0  0  0  0  0  0  0  0  0  0  0  0
   -2.9336   39.9576  -15.5524 N   0  0  0  0  0  0  0  0  0  0  0  0
   -3.1902   38.8446  -16.2884 C   0  0  0  0  0  0  0  0  0  0  0  0
   -2.9323   37.6114  -15.7591 N   0  0  0  0  0  0  0  0  0  0  0  0
   -2.4271   37.4977  -14.5012 C   0  0  0  0  0  0  0  0  0  0  0  0
   -2.1744   38.5976  -13.7634 C   0  0  0  0  0  0  0  0  0  0  0  0
   -2.4363   39.8498  -14.3117 C   0  0  0  0  0  0  0  0  0  0  0  0
   -2.2273   41.1454  -13.7177 N   0  0  0  0  0  0  0  0  0  0  0  0
   -1.6815   38.1818  -12.5721 N   0  0  0  0  0  0  0  0  0  0  0  0
   -1.6380   36.8188  -12.5799 C   0  0  0  0  0  0  0  0  0  0  0  0
   -2.1039   36.4054  -13.7758 N   0  0  0  0  0  0  0  0  0  0  0  0
  1  3  1  6  0  0  0
  1  5  2  0  0  0  0
  1  9  1  0  0  0  0
  1 18  1  0  0  0  0
  2  4  1  1  0  0  0
  2  6  2  0  0  0  0
  2 10  1  0  0  0  0
  2 17  1  0  0  0  0
  7  9  1  0  0  0  0
  8 10  1  0  0  0  0
 11  7  1  1  0  0  0
 11 13  1  0  0  0  0
 11 15  1  0  0  0  0
 12  8  1  6  0  0  0
 12 14  1  0  0  0  0
 12 16  1  0  0  0  0
 13 23  1  0  0  0  0
 14 24  1  0  0  0  0
 15 17  1  6  0  0  0
 15 19  1  0  0  0  0
 16 18  1  1  0  0  0
 16 20  1  0  0  0  0
 19 21  1  6  0  0  0
 19 23  1  0  0  0  0
 20 22  1  6  0  0  0
 20 24  1  0  0  0  0
 23 34  1  1  0  0  0
 24 44  1  1  0  0  0
 25 26  2  0  0  0  0
 25 30  1  0  0  0  0
 26 27  1  0  0  0  0
 27 28  2  0  0  0  0
 28 29  1  0  0  0  0
 28 34  1  0  0  0  0
 29 30  2  0  0  0  0
 29 32  1  0  0  0  0
 30 31  1  0  0  0  0
 32 33  2  0  0  0  0
 33 34  1  0  0  0  0
 35 36  2  0  0  0  0
 35 40  1  0  0  0  0
 36 37  1  0  0  0  0
 37 38  2  0  0  0  0
 38 39  1  0  0  0  0
 38 44  1  0  0  0  0
 39 40  2  0  0  0  0
 39 42  1  0  0  0  0
 40 41  1  0  0  0  0
 42 43  2  0  0  0  0
 43 44  1  0  0  0  0
M  CHG  2   3  -1   4  -1
M  END
>  <CHROM.1>
131.70183870,9.18205653,-6.23520365,35.95568905,-14.86185057,-3.08239772
0.06623553,0.02971712

>  <Name>
ligand

>  <RI>
0

>  <Rbt.Current_Directory>
/home/itssahil/PROJECTS/Mol_Feturizer/New_Systems/rnas/4QLM

>  <Rbt.Executable>
rbdock ($Id: //depot/dev/client3/rdock/2013.1/src/exe/rbdock.cxx#4 $)

>  <Rbt.Library>
libRbt.so (2013.1, Build901 2013/11/27)

>  <Rbt.Parameter_File>
/export/apps/rDock/src/rDock_2013.1_src/data/scripts/dock_solv.prm

>  <Rbt.Receptor>
prm/pocket_docking_7.prm

>  <SCORE>
-10.2308

>  <SCORE.INTER>
-9.84951

>  <SCORE.INTER.CONST>
1

>  <SCORE.INTER.POLAR>
0

>  <SCORE.INTER.ROT>
2

>  <SCORE.INTER.SOLV>
22.3001

>  <SCORE.INTER.VDW>
-18.933

>  <SCORE.INTER.norm>
-0.223853

>  <SCORE.INTRA>
-0.381262

>  <SCORE.INTRA.DIHEDRAL>
0.132541

>  <SCORE.INTRA.DIHEDRAL.0>
2.32994

>  <SCORE.INTRA.POLAR>
0

>  <SCORE.INTRA.POLAR.0>
0

>  <SCORE.INTRA.REPUL>
0

>  <SCORE.INTRA.REPUL.0>
0

>  <SCORE.INTRA.SOLV>
1.18306

>  <SCORE.INTRA.SOLV.lig_0>
-117.703

>  <SCORE.INTRA.VDW>
-1.03906

>  <SCORE.INTRA.VDW.0>
-1.59997

>  <SCORE.INTRA.norm>
-0.00866504

>  <SCORE.RESTR>
0

>  <SCORE.RESTR.CAVITY>
0

>  <SCORE.RESTR.norm>
0

>  <SCORE.SYSTEM>
0

>  <SCORE.SYSTEM.CONST>
0

>  <SCORE.SYSTEM.DIHEDRAL>
0

>  <SCORE.SYSTEM.SOLV>
0

>  <SCORE.SYSTEM.norm>
0

>  <SCORE.heavy>
44

>  <SCORE.norm>
-0.232518

>  <RMSD>
6.513

$$$$
ligand
 OpenBabel11021811513D
libRbt.so/2013.1/901 2013/11/27
 44 50  0  0  0  0  0  0  0  0999 V2000
   -3.0529   35.5850  -13.3735 P   0  0  2  0  0  0  0  0  0  0  0  0
   -5.6114   37.3904  -17.7780 P   0  0  1  0  0  0  0  0  0  0  0  0
   -1.8780   34.6106  -13.3508 O   0  5  0  0  0  0  0  0  0  0  0  0
   -7.0771   37.3460  -17.4204 O   0  5  0  0  0  0  0  0  0  0  0  0
   -3.7490   35.4334  -12.0423 O   0  0  0  0  0  0  0  0  0  0  0  0
   -5.4784   38.2196  -19.0756 O   0  0  0  0  0  0  0  0  0  0  0  0
   -3.2037   34.5368  -15.6799 C   0  0  0  0  0  0  0  0  0  0  0  0
   -3.4174   37.9495  -16.5362 C   0  0  0  0  0  0  0  0  0  0  0  0
   -3.9203   35.1448  -14.5968 O   0  0  0  0  0  0  0  0  0  0  0  0
   -4.8683   37.9435  -16.4191 O   0  0  0  0  0  0  0  0  0  0  0  0
   -4.1724   34.1154  -16.7797 C   0  0  1  0  0  0  0  0  0  0  0  0
   -2.8729   38.6289  -15.2234 C   0  0  1  0  0  0  0  0  0  0  0  0
   -4.6442   32.9459  -16.4765 O   0  0  0  0  0  0  0  0  0  0  0  0
   -3.5154   39.7202  -15.1217 O   0  0  0  0  0  0  0  0  0  0  0  0
   -5.3602   35.0402  -16.9145 C   0  0  1  0  0  0  0  0  0  0  0  0
   -3.3277   37.8532  -13.9711 C   0  0  1  0  0  0  0  0  0  0  0  0
   -5.0966   35.8609  -17.9658 O   0  0  0  0  0  0  0  0  0  0  0  0
   -2.3449   37.0811  -13.4916 O   0  0  0  0  0  0  0  0  0  0  0  0
   -6.5435   34.0715  -17.2630 C   0  0  1  0  0  0  0  0  0  0  0  0
   -3.7729   38.9035  -12.9281 C   0  0  1  0  0  0  0  0  0  0  0  0
   -6.8339   34.1235  -18.7212 O   0  0  0  0  0  0  0  0  0  0  0  0
   -2.7127   39.0899  -11.8857 O   0  0  0  0  0  0  0  0  0  0  0  0
   -6.1694   32.8851  -16.9052 C   0  0  2  0  0  0  0  0  0  0  0  0
   -3.9173   39.9955  -13.5972 C   0  0  2  0  0  0  0  0  0  0  0  0
  -10.2464   30.1642  -14.7152 N   0  0  0  0  0  0  0  0  0  0  0  0
   -9.9425   30.2082  -16.0429 C   0  0  0  0  0  0  0  0  0  0  0  0
   -8.8742   30.9350  -16.5033 N   0  0  0  0  0  0  0  0  0  0  0  0
   -8.1069   31.6270  -15.6075 C   0  0  0  0  0  0  0  0  0  0  0  0
   -8.3975   31.5992  -14.2994 C   0  0  0  0  0  0  0  0  0  0  0  0
   -9.4792   30.8505  -13.8388 C   0  0  0  0  0  0  0  0  0  0  0  0
   -9.8893   30.7380  -12.4956 N   0  0  0  0  0  0  0  0  0  0  0  0
   -7.4841   32.3571  -13.6564 N   0  0  0  0  0  0  0  0  0  0  0  0
   -6.6267   32.8612  -14.5892 C   0  0  0  0  0  0  0  0  0  0  0  0
   -6.9982   32.3986  -15.7901 N   0  0  0  0  0  0  0  0  0  0  0  0
   -8.9891   39.1216  -14.3929 N   0  0  0  0  0  0  0  0  0  0  0  0
   -7.9705   38.2447  -14.5925 C   0  0  0  0  0  0  0  0  0  0  0  0
   -6.6852   38.6348  -14.3412 N   0  0  0  0  0  0  0  0  0  0  0  0
   -6.4266   39.8913  -13.8886 C   0  0  0  0  0  0  0  0  0  0  0  0
   -7.4328   40.7653  -13.6839 C   0  0  0  0  0  0  0  0  0  0  0  0
   -8.7385   40.3609  -13.9461 C   0  0  0  0  0  0  0  0  0  0  0  0
   -9.9523   41.1261  -13.8183 N   0  0  0  0  0  0  0  0  0  0  0  0
   -6.8816   41.9209  -13.2414 N   0  0  0  0  0  0  0  0  0  0  0  0
   -5.5305   41.7502  -13.1700 C   0  0  0  0  0  0  0  0  0  0  0  0
   -5.2596   40.4911  -13.5693 N   0  0  0  0  0  0  0  0  0  0  0  0
  1  3  1  1  0  0  0
  1  5  2  0  0  0  0
  1  9  1  0  0  0  0
  1 18  1  0  0  0  0
  2  4  1  1  0  0  0
  2  6  2  0  0  0  0
  2 10  1  0  0  0  0
  2 17  1  0  0  0  0
  7  9  1  0  0  0  0
  8 10  1  0  0  0  0
 11  7  1  1  0  0  0
 11 13  1  0  0  0  0
 11 15  1  0  0  0  0
 12  8  1  6  0  0  0
 12 14  1  0  0  0  0
 12 16  1  0  0  0  0
 13 23  1  0  0  0  0
 14 24  1  0  0  0  0
 15 17  1  6  0  0  0
 15 19  1  0  0  0  0
 16 18  1  1  0  0  0
 16 20  1  0  0  0  0
 19 21  1  6  0  0  0
 19 23  1  0  0  0  0
 20 22  1  1  0  0  0
 20 24  1  0  0  0  0
 23 34  1  1  0  0  0
 24 44  1  6  0  0  0
 25 26  2  0  0  0  0
 25 30  1  0  0  0  0
 26 27  1  0  0  0  0
 27 28  2  0  0  0  0
 28 29  1  0  0  0  0
 28 34  1  0  0  0  0
 29 30  2  0  0  0  0
 29 32  1  0  0  0  0
 30 31  1  0  0  0  0
 32 33  2  0  0  0  0
 33 34  1  0  0  0  0
 35 36  2  0  0  0  0
 35 40  1  0  0  0  0
 36 37  1  0  0  0  0
 37 38  2  0  0  0  0
 38 39  1  0  0  0  0
 38 44  1  0  0  0  0
 39 40  2  0  0  0  0
 39 42  1  0  0  0  0
 40 41  1  0  0  0  0
 42 43  2  0  0  0  0
 43 44  1  0  0  0  0
M  CHG  2   3  -1   4  -1
M  END
>  <CHROM.1>
-144.42633415,66.31437899,-5.79963082,36.18428436,-15.05815348,-1.22536605
0.03489474,-2.99126474

>  <Name>
ligand

>  <RI>
0

>  <Rbt.Current_Directory>
/home/itssahil/PROJECTS/Mol_Feturizer/New_Systems/rnas/4QLM

>  <Rbt.Executable>
rbdock ($Id: //depot/dev/client3/rdock/2013.1/src/exe/rbdock.cxx#4 $)

>  <Rbt.Library>
libRbt.so (2013.1, Build901 2013/11/27)

>  <Rbt.Parameter_File>
/export/apps/rDock/src/rDock_2013.1_src/data/scripts/dock_solv.prm

>  <Rbt.Receptor>
prm/pocket_docking_6.prm

>  <SCORE>
-15.2814

>  <SCORE.INTER>
-14.392

>  <SCORE.INTER.CONST>
1

>  <SCORE.INTER.POLAR>
0

>  <SCORE.INTER.ROT>
2

>  <SCORE.INTER.SOLV>
24.5932

>  <SCORE.INTER.VDW>
-22.7257

>  <SCORE.INTER.norm>
-0.327091

>  <SCORE.INTRA>
-0.915572

>  <SCORE.INTRA.DIHEDRAL>
-0.023723

>  <SCORE.INTRA.DIHEDRAL.0>
2.32994

>  <SCORE.INTRA.POLAR>
0

>  <SCORE.INTRA.POLAR.0>
0

>  <SCORE.INTRA.REPUL>
0

>  <SCORE.INTRA.REPUL.0>
0

>  <SCORE.INTRA.SOLV>
0.710344

>  <SCORE.INTRA.SOLV.lig_0>
-117.703

>  <SCORE.INTRA.VDW>
-1.25888

>  <SCORE.INTRA.VDW.0>
-1.59997

>  <SCORE.INTRA.norm>
-0.0208085

>  <SCORE.RESTR>
0.0261443

>  <SCORE.RESTR.CAVITY>
0.0261443

>  <SCORE.RESTR.norm>
0.000594189

>  <SCORE.SYSTEM>
0

>  <SCORE.SYSTEM.CONST>
0

>  <SCORE.SYSTEM.DIHEDRAL>
0

>  <SCORE.SYSTEM.SOLV>
0

>  <SCORE.SYSTEM.norm>
0

>  <SCORE.heavy>
44

>  <SCORE.norm>
-0.347305

>  <RMSD>
6.524

$$$$
ligand
 OpenBabel11021811513D
libRbt.so/2013.1/901 2013/11/27
 44 50  0  0  0  0  0  0  0  0999 V2000
  -11.3585   34.7064  -16.5388 P   0  0  2  0  0  0  0  0  0  0  0  0
   -8.8007   32.1818  -12.5027 P   0  0  1  0  0  0  0  0  0  0  0  0
  -11.7682   34.0865  -17.8723 O   0  5  0  0  0  0  0  0  0  0  0  0
   -7.7602   33.1664  -12.0273 O   0  5  0  0  0  0  0  0  0  0  0  0
  -11.1956   36.1851  -16.7964 O   0  0  0  0  0  0  0  0  0  0  0  0
   -8.8933   31.0609  -11.4425 O   0  0  0  0  0  0  0  0  0  0  0  0
   -9.8963   32.6335  -16.6183 C   0  0  0  0  0  0  0  0  0  0  0  0
  -11.2289   32.3261  -13.3695 C   0  0  0  0  0  0  0  0  0  0  0  0
  -10.0312   33.9807  -16.1459 O   0  0  0  0  0  0  0  0  0  0  0  0
  -10.1374   33.0957  -12.7906 O   0  0  0  0  0  0  0  0  0  0  0  0
   -8.5425   32.0654  -16.2059 C   0  0  1  0  0  0  0  0  0  0  0  0
  -12.4616   33.3036  -13.4508 C   0  0  1  0  0  0  0  0  0  0  0  0
   -7.6651   32.4299  -17.0888 O   0  0  0  0  0  0  0  0  0  0  0  0
  -12.5703   33.8004  -12.2866 O   0  0  0  0  0  0  0  0  0  0  0  0
   -8.0582   32.5872  -14.8727 C   0  0  1  0  0  0  0  0  0  0  0  0
  -12.1312   34.5379  -14.3135 C   0  0  1  0  0  0  0  0  0  0  0  0
   -8.3326   31.6228  -13.9546 O   0  0  0  0  0  0  0  0  0  0  0  0
  -12.6551   34.4301  -15.5406 O   0  0  0  0  0  0  0  0  0  0  0  0
   -6.5084   32.7244  -15.0718 C   0  0  1  0  0  0  0  0  0  0  0  0
  -12.6960   35.7702  -13.5709 C   0  0  1  0  0  0  0  0  0  0  0  0
   -5.8079   31.5768  -14.4349 O   0  0  0  0  0  0  0  0  0  0  0  0
  -13.9776   36.2216  -14.2026 O   0  0  0  0  0  0  0  0  0  0  0  0
   -6.2991   32.7465  -16.3491 C   0  0  2  0  0  0  0  0  0  0  0  0
  -12.9273   35.3583  -12.3718 C   0  0  2  0  0  0  0  0  0  0  0  0
   -2.4609   36.2410  -17.7194 N   0  0  0  0  0  0  0  0  0  0  0  0
   -2.2678   34.9259  -17.4190 C   0  0  0  0  0  0  0  0  0  0  0  0
   -3.3194   34.1128  -17.0807 N   0  0  0  0  0  0  0  0  0  0  0  0
   -4.5808   34.6399  -17.0441 C   0  0  0  0  0  0  0  0  0  0  0  0
   -4.7856   35.9333  -17.3300 C   0  0  0  0  0  0  0  0  0  0  0  0
   -3.7126   36.7503  -17.6820 C   0  0  0  0  0  0  0  0  0  0  0  0
   -3.7926   38.1196  -18.0040 N   0  0  0  0  0  0  0  0  0  0  0  0
   -6.1089   36.1765  -17.2214 N   0  0  0  0  0  0  0  0  0  0  0  0
   -6.7199   35.0136  -16.8560 C   0  0  0  0  0  0  0  0  0  0  0  0
   -5.7825   34.0613  -16.7631 N   0  0  0  0  0  0  0  0  0  0  0  0
   -8.2441   36.8529  -10.6531 N   0  0  0  0  0  0  0  0  0  0  0  0
   -8.5063   36.1105  -11.7606 C   0  0  0  0  0  0  0  0  0  0  0  0
   -9.7991   35.7956  -12.0713 N   0  0  0  0  0  0  0  0  0  0  0  0
  -10.8185   36.2270  -11.2805 C   0  0  0  0  0  0  0  0  0  0  0  0
  -10.5661   36.9679  -10.1825 C   0  0  0  0  0  0  0  0  0  0  0  0
   -9.2461   37.2807   -9.8713 C   0  0  0  0  0  0  0  0  0  0  0  0
   -8.7486   38.0350   -8.7494 N   0  0  0  0  0  0  0  0  0  0  0  0
  -11.7567   37.2457   -9.5990 N   0  0  0  0  0  0  0  0  0  0  0  0
  -12.7432   36.6755  -10.3482 C   0  0  0  0  0  0  0  0  0  0  0  0
  -12.1531   36.0506  -11.3872 N   0  0  0  0  0  0  0  0  0  0  0  0
  1  3  1  6  0  0  0
  1  5  2  0  0  0  0
  1  9  1  0  0  0  0
  1 18  1  0  0  0  0
  2  4  1  1  0  0  0
  2  6  2  0  0  0  0
  2 10  1  0  0  0  0
  2 17  1  0  0  0  0
  7  9  1  0  0  0  0
  8 10  1  0  0  0  0
 11  7  1  6  0  0  0
 11 13  1  0  0  0  0
 11 15  1  0  0  0  0
 12  8  1  1  0  0  0
 12 14  1  0  0  0  0
 12 16  1  0  0  0  0
 13 23  1  0  0  0  0
 14 24  1  0  0  0  0
 15 17  1  1  0  0  0
 15 19  1  0  0  0  0
 16 18  1  6  0  0  0
 16 20  1  0  0  0  0
 19 21  1  6  0  0  0
 19 23  1  0  0  0  0
 20 22  1  6  0  0  0
 20 24  1  0  0  0  0
 23 34  1  6  0  0  0
 24 44  1  1  0  0  0
 25 26  2  0  0  0  0
 25 30  1  0  0  0  0
 26 27  1  0  0  0  0
 27 28  2  0  0  0  0
 28 29  1  0  0  0  0
 28 34  1  0  0  0  0
 29 30  2  0  0  0  0
 29 32  1  0  0  0  0
 30 31  1  0  0  0  0
 32 33  2  0  0  0  0
 33 34  1  0  0  0  0
 35 36  2  0  0  0  0
 35 40  1  0  0  0  0
 36 37  1  0  0  0  0
 37 38  2  0  0  0  0
 38 39  1  0  0  0  0
 38 44  1  0  0  0  0
 39 40  2  0  0  0  0
 39 42  1  0  0  0  0
 40 41  1  0  0  0  0
 42 43  2  0  0  0  0
 43 44  1  0  0  0  0
M  CHG  2   3  -1   4  -1
M  END
>  <CHROM.1>
-141.42414955,65.19051643,-8.95679524,34.53833305,-14.32026327,2.53630396
0.23278028,1.12347773

>  <Name>
ligand

>  <RI>
0

>  <Rbt.Current_Directory>
/home/itssahil/PROJECTS/Mol_Feturizer/New_Systems/rnas/4QLM

>  <Rbt.Executable>
rbdock ($Id: //depot/dev/client3/rdock/2013.1/src/exe/rbdock.cxx#4 $)

>  <Rbt.Library>
libRbt.so (2013.1, Build901 2013/11/27)

>  <Rbt.Parameter_File>
/export/apps/rDock/src/rDock_2013.1_src/data/scripts/dock_solv.prm

>  <Rbt.Receptor>
prm/pocket_docking_8.prm

>  <SCORE>
-12.73

>  <SCORE.INTER>
-11.8541

>  <SCORE.INTER.CONST>
1

>  <SCORE.INTER.POLAR>
0

>  <SCORE.INTER.ROT>
2

>  <SCORE.INTER.SOLV>
26.5455

>  <SCORE.INTER.VDW>
-21.6846

>  <SCORE.INTER.norm>
-0.269411

>  <SCORE.INTRA>
-0.875905

>  <SCORE.INTRA.DIHEDRAL>
-0.0170728

>  <SCORE.INTRA.DIHEDRAL.0>
2.32994

>  <SCORE.INTRA.POLAR>
0

>  <SCORE.INTRA.POLAR.0>
0

>  <SCORE.INTRA.REPUL>
0

>  <SCORE.INTRA.REPUL.0>
0

>  <SCORE.INTRA.SOLV>
0.765074

>  <SCORE.INTRA.SOLV.lig_0>
-117.703

>  <SCORE.INTRA.VDW>
-1.24991

>  <SCORE.INTRA.VDW.0>
-1.59997

>  <SCORE.INTRA.norm>
-0.0199069

>  <SCORE.RESTR>
0

>  <SCORE.RESTR.CAVITY>
0

>  <SCORE.RESTR.norm>
0

>  <SCORE.SYSTEM>
0

>  <SCORE.SYSTEM.CONST>
0

>  <SCORE.SYSTEM.DIHEDRAL>
0

>  <SCORE.SYSTEM.SOLV>
0

>  <SCORE.SYSTEM.norm>
0

>  <SCORE.heavy>
44

>  <SCORE.norm>
-0.289318

>  <RMSD>
6.526

$$$$
ligand
 OpenBabel11021811513D
libRbt.so/2013.1/901 2013/11/27
 44 50  0  0  0  0  0  0  0  0999 V2000
   -7.4206   35.1685  -17.4240 P   0  0  2  0  0  0  0  0  0  0  0  0
   -7.9178   32.1672  -12.9574 P   0  0  1  0  0  0  0  0  0  0  0  0
   -6.2267   35.1760  -18.3753 O   0  5  0  0  0  0  0  0  0  0  0  0
   -8.5006   33.1018  -11.9254 O   0  5  0  0  0  0  0  0  0  0  0  0
   -8.0757   36.5217  -17.5629 O   0  0  0  0  0  0  0  0  0  0  0  0
   -8.0322   30.7316  -12.3963 O   0  0  0  0  0  0  0  0  0  0  0  0
   -5.6083   34.1192  -15.9903 C   0  0  0  0  0  0  0  0  0  0  0  0
   -8.2117   31.7947  -15.4957 C   0  0  0  0  0  0  0  0  0  0  0  0
   -6.8100   34.9013  -16.0104 O   0  0  0  0  0  0  0  0  0  0  0  0
   -8.7211   32.5283  -14.3464 O   0  0  0  0  0  0  0  0  0  0  0  0
   -5.0981   33.9766  -14.5603 C   0  0  1  0  0  0  0  0  0  0  0  0
   -9.1664   32.1441  -16.6990 C   0  0  1  0  0  0  0  0  0  0  0  0
   -4.3849   35.0228  -14.2793 O   0  0  0  0  0  0  0  0  0  0  0  0
  -10.3411   31.9282  -16.2661 O   0  0  0  0  0  0  0  0  0  0  0  0
   -6.2069   33.9199  -13.5347 C   0  0  1  0  0  0  0  0  0  0  0  0
   -9.1814   33.6620  -16.9688 C   0  0  1  0  0  0  0  0  0  0  0  0
   -6.3760   32.6089  -13.2169 O   0  0  0  0  0  0  0  0  0  0  0  0
   -8.4132   33.9789  -18.0182 O   0  0  0  0  0  0  0  0  0  0  0  0
   -5.6176   34.7052  -12.3115 C   0  0  1  0  0  0  0  0  0  0  0  0
  -10.6545   34.0610  -17.2135 C   0  0  1  0  0  0  0  0  0  0  0  0
   -5.1407   33.7516  -11.2738 O   0  0  0  0  0  0  0  0  0  0  0  0
  -10.9117   34.2454  -18.6782 O   0  0  0  0  0  0  0  0  0  0  0  0
   -4.6417   35.4233  -12.7670 C   0  0  2  0  0  0  0  0  0  0  0  0
  -11.3456   33.0652  -16.7758 C   0  0  2  0  0  0  0  0  0  0  0  0
   -6.6203   40.0944  -14.5241 N   0  0  0  0  0  0  0  0  0  0  0  0
   -6.6535   38.9122  -15.2013 C   0  0  0  0  0  0  0  0  0  0  0  0
   -6.1191   37.7697  -14.6622 N   0  0  0  0  0  0  0  0  0  0  0  0
   -5.5422   37.8272  -13.4237 C   0  0  0  0  0  0  0  0  0  0  0  0
   -5.4955   38.9841  -12.7486 C   0  0  0  0  0  0  0  0  0  0  0  0
   -6.0493   40.1384  -13.2995 C   0  0  0  0  0  0  0  0  0  0  0  0
   -6.0661   41.4115  -12.6961 N   0  0  0  0  0  0  0  0  0  0  0  0
   -4.8824   38.7503  -11.5689 N   0  0  0  0  0  0  0  0  0  0  0  0
   -4.5433   37.4303  -11.5275 C   0  0  0  0  0  0  0  0  0  0  0  0
   -4.9643   36.8558  -12.6619 N   0  0  0  0  0  0  0  0  0  0  0  0
  -14.3429   36.6530  -14.4815 N   0  0  0  0  0  0  0  0  0  0  0  0
  -13.6305   36.8001  -15.6291 C   0  0  0  0  0  0  0  0  0  0  0  0
  -12.8829   35.7566  -16.0977 N   0  0  0  0  0  0  0  0  0  0  0  0
  -12.8560   34.5757  -15.4231 C   0  0  0  0  0  0  0  0  0  0  0  0
  -13.5640   34.4210  -14.2860 C   0  0  0  0  0  0  0  0  0  0  0  0
  -14.3196   35.4903  -13.8137 C   0  0  0  0  0  0  0  0  0  0  0  0
  -15.1287   35.5543  -12.6237 N   0  0  0  0  0  0  0  0  0  0  0  0
  -13.3452   33.1604  -13.8409 N   0  0  0  0  0  0  0  0  0  0  0  0
  -12.5024   32.5390  -14.7146 C   0  0  0  0  0  0  0  0  0  0  0  0
  -12.2081   33.4213  -15.6908 N   0  0  0  0  0  0  0  0  0  0  0  0
  1  3  1  6  0  0  0
  1  5  2  0  0  0  0
  1  9  1  0  0  0  0
  1 18  1  0  0  0  0
  2  4  1  1  0  0  0
  2  6  2  0  0  0  0
  2 10  1  0  0  0  0
  2 17  1  0  0  0  0
  7  9  1  0  0  0  0
  8 10  1  0  0  0  0
 11  7  1  6  0  0  0
 11 13  1  0  0  0  0
 11 15  1  0  0  0  0
 12  8  1  1  0  0  0
 12 14  1  0  0  0  0
 12 16  1  0  0  0  0
 13 23  1  0  0  0  0
 14 24  1  0  0  0  0
 15 17  1  1  0  0  0
 15 19  1  0  0  0  0
 16 18  1  6  0  0  0
 16 20  1  0  0  0  0
 19 21  1  1  0  0  0
 19 23  1  0  0  0  0
 20 22  1  6  0  0  0
 20 24  1  0  0  0  0
 23 34  1  6  0  0  0
 24 44  1  1  0  0  0
 25 26  2  0  0  0  0
 25 30  1  0  0  0  0
 26 27  1  0  0  0  0
 27 28  2  0  0  0  0
 28 29  1  0  0  0  0
 28 34  1  0  0  0  0
 29 30  2  0  0  0  0
 29 32  1  0  0  0  0
 30 31  1  0  0  0  0
 32 33  2  0  0  0  0
 33 34  1  0  0  0  0
 35 36  2  0  0  0  0
 35 40  1  0  0  0  0
 36 37  1  0  0  0  0
 37 38  2  0  0  0  0
 38 39  1  0  0  0  0
 38 44  1  0  0  0  0
 39 40  2  0  0  0  0
 39 42  1  0  0  0  0
 40 41  1  0  0  0  0
 42 43  2  0  0  0  0
 43 44  1  0  0  0  0
M  CHG  2   3  -1   4  -1
M  END
>  <CHROM.1>
29.00473528,152.86580914,-8.41880062,34.95683677,-14.69913904,-0.43165729
0.24575188,-3.03367369

>  <Name>
ligand

>  <RI>
0

>  <Rbt.Current_Directory>
/home/itssahil/PROJECTS/Mol_Feturizer/New_Systems/rnas/4QLM

>  <Rbt.Executable>
rbdock ($Id: //depot/dev/client3/rdock/2013.1/src/exe/rbdock.cxx#4 $)

>  <Rbt.Library>
libRbt.so (2013.1, Build901 2013/11/27)

>  <Rbt.Parameter_File>
/export/apps/rDock/src/rDock_2013.1_src/data/scripts/dock_solv.prm

>  <Rbt.Receptor>
prm/pocket_docking_8.prm

>  <SCORE>
-7.58187

>  <SCORE.INTER>
-7.2561

>  <SCORE.INTER.CONST>
1

>  <SCORE.INTER.POLAR>
0

>  <SCORE.INTER.ROT>
2

>  <SCORE.INTER.SOLV>
21.8608

>  <SCORE.INTER.VDW>
-17.0577

>  <SCORE.INTER.norm>
-0.164911

>  <SCORE.INTRA>
-0.325771

>  <SCORE.INTRA.DIHEDRAL>
0.163886

>  <SCORE.INTRA.DIHEDRAL.0>
2.32994

>  <SCORE.INTRA.POLAR>
0

>  <SCORE.INTRA.POLAR.0>
0

>  <SCORE.INTRA.REPUL>
0

>  <SCORE.INTRA.REPUL.0>
0

>  <SCORE.INTRA.SOLV>
0.41618

>  <SCORE.INTRA.SOLV.lig_0>
-117.703

>  <SCORE.INTRA.VDW>
-0.615804

>  <SCORE.INTRA.VDW.0>
-1.59997

>  <SCORE.INTRA.norm>
-0.00740389

>  <SCORE.RESTR>
0

>  <SCORE.RESTR.CAVITY>
0

>  <SCORE.RESTR.norm>
0

>  <SCORE.SYSTEM>
0

>  <SCORE.SYSTEM.CONST>
0

>  <SCORE.SYSTEM.DIHEDRAL>
0

>  <SCORE.SYSTEM.SOLV>
0

>  <SCORE.SYSTEM.norm>
0

>  <SCORE.heavy>
44

>  <SCORE.norm>
-0.172315

>  <RMSD>
6.542

$$$$
ligand
 OpenBabel11021811513D
libRbt.so/2013.1/901 2013/11/27
 44 50  0  0  0  0  0  0  0  0999 V2000
   -5.8136   33.0934  -13.7038 P   0  0  2  0  0  0  0  0  0  0  0  0
   -5.9523   36.6272  -17.7901 P   0  0  1  0  0  0  0  0  0  0  0  0
   -6.3812   31.6763  -13.7194 O   0  5  0  0  0  0  0  0  0  0  0  0
   -6.3165   37.9450  -17.1507 O   0  5  0  0  0  0  0  0  0  0  0  0
   -5.8194   33.5313  -12.2589 O   0  0  0  0  0  0  0  0  0  0  0  0
   -5.4683   36.9299  -19.2265 O   0  0  0  0  0  0  0  0  0  0  0  0
   -7.4003   33.1918  -15.6822 C   0  0  0  0  0  0  0  0  0  0  0  0
   -4.5092   34.5875  -17.1378 C   0  0  0  0  0  0  0  0  0  0  0  0
   -6.7691   33.9222  -14.6218 O   0  0  0  0  0  0  0  0  0  0  0  0
   -4.8933   35.9340  -16.7399 O   0  0  0  0  0  0  0  0  0  0  0  0
   -8.3362   34.1063  -16.4654 C   0  0  1  0  0  0  0  0  0  0  0  0
   -3.4004   34.1269  -16.1180 C   0  0  1  0  0  0  0  0  0  0  0  0
   -9.4777   34.1389  -15.8503 O   0  0  0  0  0  0  0  0  0  0  0  0
   -2.5441   35.0653  -16.1103 O   0  0  0  0  0  0  0  0  0  0  0  0
   -7.8461   35.5338  -16.5451 C   0  0  1  0  0  0  0  0  0  0  0  0
   -3.9365   34.1493  -14.6726 C   0  0  1  0  0  0  0  0  0  0  0  0
   -7.2721   35.6801  -17.7688 O   0  0  0  0  0  0  0  0  0  0  0  0
   -4.2570   32.9196  -14.2519 O   0  0  0  0  0  0  0  0  0  0  0  0
   -9.1631   36.3809  -16.4564 C   0  0  1  0  0  0  0  0  0  0  0  0
   -2.8290   34.7706  -13.7914 C   0  0  1  0  0  0  0  0  0  0  0  0
   -9.5585   36.8540  -17.8104 O   0  0  0  0  0  0  0  0  0  0  0  0
   -2.0995   33.7026  -13.0348 O   0  0  0  0  0  0  0  0  0  0  0  0
  -10.0691   35.6064  -15.9513 C   0  0  2  0  0  0  0  0  0  0  0  0
   -2.0233   35.3385  -14.6218 C   0  0  2  0  0  0  0  0  0  0  0  0
   -9.2778   37.9550  -11.1891 N   0  0  0  0  0  0  0  0  0  0  0  0
   -8.3425   37.8122  -12.1699 C   0  0  0  0  0  0  0  0  0  0  0  0
   -8.6465   37.1953  -13.3567 N   0  0  0  0  0  0  0  0  0  0  0  0
   -9.9124   36.7155  -13.5501 C   0  0  0  0  0  0  0  0  0  0  0  0
  -10.8410   36.8421  -12.5919 C   0  0  0  0  0  0  0  0  0  0  0  0
  -10.5265   37.4787  -11.3925 C   0  0  0  0  0  0  0  0  0  0  0  0
  -11.4070   37.6759  -10.3105 N   0  0  0  0  0  0  0  0  0  0  0  0
  -11.9851   36.2906  -13.0492 N   0  0  0  0  0  0  0  0  0  0  0  0
  -11.7477   35.8134  -14.3042 C   0  0  0  0  0  0  0  0  0  0  0  0
  -10.4761   36.0896  -14.6217 N   0  0  0  0  0  0  0  0  0  0  0  0
   -4.4361   39.9479  -14.3956 N   0  0  0  0  0  0  0  0  0  0  0  0
   -5.0079   38.7409  -14.6457 C   0  0  0  0  0  0  0  0  0  0  0  0
   -4.2286   37.6188  -14.6779 N   0  0  0  0  0  0  0  0  0  0  0  0
   -2.8896   37.7080  -14.4556 C   0  0  0  0  0  0  0  0  0  0  0  0
   -2.3161   38.9017  -14.2023 C   0  0  0  0  0  0  0  0  0  0  0  0
   -3.1166   40.0400  -14.1752 C   0  0  0  0  0  0  0  0  0  0  0  0
   -2.7187   41.4054  -13.9457 N   0  0  0  0  0  0  0  0  0  0  0  0
   -0.9904   38.6851  -14.0266 N   0  0  0  0  0  0  0  0  0  0  0  0
   -0.7532   37.3496  -14.1680 C   0  0  0  0  0  0  0  0  0  0  0  0
   -1.9341   36.7539  -14.4301 N   0  0  0  0  0  0  0  0  0  0  0  0
  1  3  1  1  0  0  0
  1  5  2  0  0  0  0
  1  9  1  0  0  0  0
  1 18  1  0  0  0  0
  2  4  1  1  0  0  0
  2  6  2  0  0  0  0
  2 10  1  0  0  0  0
  2 17  1  0  0  0  0
  7  9  1  0  0  0  0
  8 10  1  0  0  0  0
 11  7  1  1  0  0  0
 11 13  1  0  0  0  0
 11 15  1  0  0  0  0
 12  8  1  6  0  0  0
 12 14  1  0  0  0  0
 12 16  1  0  0  0  0
 13 23  1  0  0  0  0
 14 24  1  0  0  0  0
 15 17  1  6  0  0  0
 15 19  1  0  0  0  0
 16 18  1  1  0  0  0
 16 20  1  0  0  0  0
 19 21  1  6  0  0  0
 19 23  1  0  0  0  0
 20 22  1  6  0  0  0
 20 24  1  0  0  0  0
 23 34  1  1  0  0  0
 24 44  1  1  0  0  0
 25 26  2  0  0  0  0
 25 30  1  0  0  0  0
 26 27  1  0  0  0  0
 27 28  2  0  0  0  0
 28 29  1  0  0  0  0
 28 34  1  0  0  0  0
 29 30  2  0  0  0  0
 29 32  1  0  0  0  0
 30 31  1  0  0  0  0
 32 33  2  0  0  0  0
 33 34  1  0  0  0  0
 35 36  2  0  0  0  0
 35 40  1  0  0  0  0
 36 37  1  0  0  0  0
 37 38  2  0  0  0  0
 38 39  1  0  0  0  0
 38 44  1  0  0  0  0
 39 40  2  0  0  0  0
 39 42  1  0  0  0  0
 40 41  1  0  0  0  0
 42 43  2  0  0  0  0
 43 44  1  0  0  0  0
M  CHG  2   3  -1   4  -1
M  END
>  <CHROM.1>
86.31017904,62.55649255,-6.18408604,36.04764310,-14.82413760,-0.02573593
-0.14506562,-2.77165379

>  <Name>
ligand

>  <RI>
0

>  <Rbt.Current_Directory>
/home/itssahil/PROJECTS/Mol_Feturizer/New_Systems/rnas/4QLM

>  <Rbt.Executable>
rbdock ($Id: //depot/dev/client3/rdock/2013.1/src/exe/rbdock.cxx#4 $)

>  <Rbt.Library>
libRbt.so (2013.1, Build901 2013/11/27)

>  <Rbt.Parameter_File>
/export/apps/rDock/src/rDock_2013.1_src/data/scripts/dock_solv.prm

>  <Rbt.Receptor>
prm/pocket_docking_7.prm

>  <SCORE>
-9.82477

>  <SCORE.INTER>
-8.25473

>  <SCORE.INTER.CONST>
1

>  <SCORE.INTER.POLAR>
0

>  <SCORE.INTER.ROT>
2

>  <SCORE.INTER.SOLV>
24.7219

>  <SCORE.INTER.VDW>
-18.6771

>  <SCORE.INTER.norm>
-0.187608

>  <SCORE.INTRA>
-1.57004

>  <SCORE.INTRA.DIHEDRAL>
-0.0326511

>  <SCORE.INTRA.DIHEDRAL.0>
2.32994

>  <SCORE.INTRA.POLAR>
0

>  <SCORE.INTRA.POLAR.0>
0

>  <SCORE.INTRA.REPUL>
0

>  <SCORE.INTRA.REPUL.0>
0

>  <SCORE.INTRA.SOLV>
0.890286

>  <SCORE.INTRA.SOLV.lig_0>
-117.703

>  <SCORE.INTRA.VDW>
-1.99886

>  <SCORE.INTRA.VDW.0>
-1.59997

>  <SCORE.INTRA.norm>
-0.0356827

>  <SCORE.RESTR>
0

>  <SCORE.RESTR.CAVITY>
0

>  <SCORE.RESTR.norm>
0

>  <SCORE.SYSTEM>
0

>  <SCORE.SYSTEM.CONST>
0

>  <SCORE.SYSTEM.DIHEDRAL>
0

>  <SCORE.SYSTEM.SOLV>
0

>  <SCORE.SYSTEM.norm>
0

>  <SCORE.heavy>
44

>  <SCORE.norm>
-0.22329

>  <RMSD>
6.544

$$$$
ligand
 OpenBabel11021811513D
libRbt.so/2013.1/901 2013/11/27
 44 50  0  0  0  0  0  0  0  0999 V2000
   -8.0018   31.8170  -12.6994 P   0  0  2  0  0  0  0  0  0  0  0  0
   -8.0086   34.8772  -17.1537 P   0  0  1  0  0  0  0  0  0  0  0  0
   -7.9792   30.2912  -12.6554 O   0  5  0  0  0  0  0  0  0  0  0  0
   -9.0169   35.9652  -16.8749 O   0  5  0  0  0  0  0  0  0  0  0  0
   -8.6549   32.2637  -11.4135 O   0  0  0  0  0  0  0  0  0  0  0  0
   -7.2096   35.2993  -18.4076 O   0  0  0  0  0  0  0  0  0  0  0  0
   -8.7445   31.2191  -15.0514 C   0  0  0  0  0  0  0  0  0  0  0  0
   -6.2413   33.5922  -15.7776 C   0  0  0  0  0  0  0  0  0  0  0  0
   -8.8191   32.1728  -13.9831 O   0  0  0  0  0  0  0  0  0  0  0  0
   -7.1951   34.6909  -15.7365 O   0  0  0  0  0  0  0  0  0  0  0  0
   -9.6214   31.6657  -16.2164 C   0  0  1  0  0  0  0  0  0  0  0  0
   -5.4579   33.6383  -14.4116 C   0  0  1  0  0  0  0  0  0  0  0  0
  -10.8337   31.2662  -15.9861 O   0  0  0  0  0  0  0  0  0  0  0  0
   -5.0545   34.8377  -14.2990 O   0  0  0  0  0  0  0  0  0  0  0  0
   -9.6828   33.1675  -16.3749 C   0  0  1  0  0  0  0  0  0  0  0  0
   -6.4224   33.4945  -13.2174 C   0  0  1  0  0  0  0  0  0  0  0  0
   -8.8215   33.4883  -17.3767 O   0  0  0  0  0  0  0  0  0  0  0  0
   -6.4006   32.2522  -12.7193 O   0  0  0  0  0  0  0  0  0  0  0  0
  -11.1625   33.4303  -16.8238 C   0  0  1  0  0  0  0  0  0  0  0  0
   -5.9829   34.5297  -12.1570 C   0  0  1  0  0  0  0  0  0  0  0  0
  -11.2170   33.6657  -18.2918 O   0  0  0  0  0  0  0  0  0  0  0  0
   -5.2211   33.8600  -11.0541 O   0  0  0  0  0  0  0  0  0  0  0  0
  -11.8420   32.3785  -16.4958 C   0  0  2  0  0  0  0  0  0  0  0  0
   -5.2056   35.3417  -12.7875 C   0  0  2  0  0  0  0  0  0  0  0  0
  -13.4163   34.4681  -11.8078 N   0  0  0  0  0  0  0  0  0  0  0  0
  -12.1546   34.5254  -12.3198 C   0  0  0  0  0  0  0  0  0  0  0  0
  -11.8537   33.9588  -13.5321 N   0  0  0  0  0  0  0  0  0  0  0  0
  -12.8427   33.3246  -14.2321 C   0  0  0  0  0  0  0  0  0  0  0  0
  -14.0867   33.2538  -13.7382 C   0  0  0  0  0  0  0  0  0  0  0  0
  -14.3862   33.8405  -12.5099 C   0  0  0  0  0  0  0  0  0  0  0  0
  -15.6478   33.8372  -11.8827 N   0  0  0  0  0  0  0  0  0  0  0  0
  -14.8481   32.5844  -14.6295 N   0  0  0  0  0  0  0  0  0  0  0  0
  -14.0531   32.2351  -15.6807 C   0  0  0  0  0  0  0  0  0  0  0  0
  -12.8211   32.7052  -15.4460 N   0  0  0  0  0  0  0  0  0  0  0  0
   -9.1344   38.6029  -13.8116 N   0  0  0  0  0  0  0  0  0  0  0  0
   -9.1300   37.2547  -13.9809 C   0  0  0  0  0  0  0  0  0  0  0  0
   -8.0083   36.5392  -13.6693 N   0  0  0  0  0  0  0  0  0  0  0  0
   -6.9045   37.1711  -13.1870 C   0  0  0  0  0  0  0  0  0  0  0  0
   -6.9032   38.5081  -13.0121 C   0  0  0  0  0  0  0  0  0  0  0  0
   -8.0485   39.2297  -13.3358 C   0  0  0  0  0  0  0  0  0  0  0  0
   -8.2618   40.6516  -13.2482 N   0  0  0  0  0  0  0  0  0  0  0  0
   -5.6853   38.8523  -12.5291 N   0  0  0  0  0  0  0  0  0  0  0  0
   -4.9394   37.7175  -12.4028 C   0  0  0  0  0  0  0  0  0  0  0  0
   -5.7031   36.6833  -12.8093 N   0  0  0  0  0  0  0  0  0  0  0  0
  1  3  1  1  0  0  0
  1  5  2  0  0  0  0
  1  9  1  0  0  0  0
  1 18  1  0  0  0  0
  2  4  1  1  0  0  0
  2  6  2  0  0  0  0
  2 10  1  0  0  0  0
  2 17  1  0  0  0  0
  7  9  1  0  0  0  0
  8 10  1  0  0  0  0
 11  7  1  1  0  0  0
 11 13  1  0  0  0  0
 11 15  1  0  0  0  0
 12  8  1  6  0  0  0
 12 14  1  0  0  0  0
 12 16  1  0  0  0  0
 13 23  1  0  0  0  0
 14 24  1  0  0  0  0
 15 17  1  6  0  0  0
 15 19  1  0  0  0  0
 16 18  1  1  0  0  0
 16 20  1  0  0  0  0
 19 21  1  6  0  0  0
 19 23  1  0  0  0  0
 20 22  1  1  0  0  0
 20 24  1  0  0  0  0
 23 34  1  1  0  0  0
 24 44  1  6  0  0  0
 25 26  2  0  0  0  0
 25 30  1  0  0  0  0
 26 27  1  0  0  0  0
 27 28  2  0  0  0  0
 28 29  1  0  0  0  0
 28 34  1  0  0  0  0
 29 30  2  0  0  0  0
 29 32  1  0  0  0  0
 30 31  1  0  0  0  0
 32 33  2  0  0  0  0
 33 34  1  0  0  0  0
 35 36  2  0  0  0  0
 35 40  1  0  0  0  0
 36 37  1  0  0  0  0
 37 38  2  0  0  0  0
 38 39  1  0  0  0  0
 38 44  1  0  0  0  0
 39 40  2  0  0  0  0
 39 42  1  0  0  0  0
 40 41  1  0  0  0  0
 42 43  2  0  0  0  0
 43 44  1  0  0  0  0
M  CHG  2   3  -1   4  -1
M  END
>  <CHROM.1>
69.51062227,67.88204139,-9.00249152,34.31006221,-14.30026533,-2.62277705
-0.00798757,0.32054913

>  <Name>
ligand

>  <RI>
0

>  <Rbt.Current_Directory>
/home/itssahil/PROJECTS/Mol_Feturizer/New_Systems/rnas/4QLM

>  <Rbt.Executable>
rbdock ($Id: //depot/dev/client3/rdock/2013.1/src/exe/rbdock.cxx#4 $)

>  <Rbt.Library>
libRbt.so (2013.1, Build901 2013/11/27)

>  <Rbt.Parameter_File>
/export/apps/rDock/src/rDock_2013.1_src/data/scripts/dock_solv.prm

>  <Rbt.Receptor>
prm/pocket_docking_7.prm

>  <SCORE>
-10.4136

>  <SCORE.INTER>
-8.55431

>  <SCORE.INTER.CONST>
1

>  <SCORE.INTER.POLAR>
0

>  <SCORE.INTER.ROT>
2

>  <SCORE.INTER.SOLV>
28.6321

>  <SCORE.INTER.VDW>
-20.1802

>  <SCORE.INTER.norm>
-0.194416

>  <SCORE.INTRA>
-1.85929

>  <SCORE.INTRA.DIHEDRAL>
0.0165146

>  <SCORE.INTRA.DIHEDRAL.0>
2.32994

>  <SCORE.INTRA.POLAR>
0

>  <SCORE.INTRA.POLAR.0>
0

>  <SCORE.INTRA.REPUL>
0

>  <SCORE.INTRA.REPUL.0>
0

>  <SCORE.INTRA.SOLV>
0.62551

>  <SCORE.INTRA.SOLV.lig_0>
-117.703

>  <SCORE.INTRA.VDW>
-2.1803

>  <SCORE.INTRA.VDW.0>
-1.59997

>  <SCORE.INTRA.norm>
-0.0422565

>  <SCORE.RESTR>
0

>  <SCORE.RESTR.CAVITY>
0

>  <SCORE.RESTR.norm>
0

>  <SCORE.SYSTEM>
0

>  <SCORE.SYSTEM.CONST>
0

>  <SCORE.SYSTEM.DIHEDRAL>
0

>  <SCORE.SYSTEM.SOLV>
0

>  <SCORE.SYSTEM.norm>
0

>  <SCORE.heavy>
44

>  <SCORE.norm>
-0.236673

>  <RMSD>
6.546

$$$$
ligand
 OpenBabel11021811513D
libRbt.so/2013.1/901 2013/11/27
 44 50  0  0  0  0  0  0  0  0999 V2000
   -2.9643   35.6502  -13.4216 P   0  0  2  0  0  0  0  0  0  0  0  0
   -5.6003   37.4226  -17.7938 P   0  0  1  0  0  0  0  0  0  0  0  0
   -1.7816   34.6850  -13.4132 O   0  5  0  0  0  0  0  0  0  0  0  0
   -7.0602   37.3679  -17.4148 O   0  5  0  0  0  0  0  0  0  0  0  0
   -3.6398   35.4972  -12.0801 O   0  0  0  0  0  0  0  0  0  0  0  0
   -5.4925   38.2489  -19.0956 O   0  0  0  0  0  0  0  0  0  0  0  0
   -3.1403   34.5940  -15.7226 C   0  0  0  0  0  0  0  0  0  0  0  0
   -3.3929   38.0023  -16.5856 C   0  0  0  0  0  0  0  0  0  0  0  0
   -3.8458   35.1997  -14.6310 O   0  0  0  0  0  0  0  0  0  0  0  0
   -4.8418   37.9855  -16.4474 O   0  0  0  0  0  0  0  0  0  0  0  0
   -4.1215   34.1618  -16.8070 C   0  0  1  0  0  0  0  0  0  0  0  0
   -2.8347   38.6899  -15.2828 C   0  0  1  0  0  0  0  0  0  0  0  0
   -4.5799   32.9896  -16.4936 O   0  0  0  0  0  0  0  0  0  0  0  0
   -3.4841   39.7764  -15.1750 O   0  0  0  0  0  0  0  0  0  0  0  0
   -5.3183   35.0770  -16.9272 C   0  0  1  0  0  0  0  0  0  0  0  0
   -3.2653   37.9144  -14.0218 C   0  0  1  0  0  0  0  0  0  0  0  0
   -5.0764   35.8966  -17.9846 O   0  0  0  0  0  0  0  0  0  0  0  0
   -2.2697   37.1514  -13.5543 O   0  0  0  0  0  0  0  0  0  0  0  0
   -6.4990   34.0982  -17.2557 C   0  0  1  0  0  0  0  0  0  0  0  0
   -3.7035   38.9644  -12.9755 C   0  0  1  0  0  0  0  0  0  0  0  0
   -6.8109   34.1435  -18.7097 O   0  0  0  0  0  0  0  0  0  0  0  0
   -2.6298   39.1621  -11.9492 O   0  0  0  0  0  0  0  0  0  0  0  0
   -6.1105   32.9157  -16.9000 C   0  0  2  0  0  0  0  0  0  0  0  0
   -3.8660   40.0533  -13.6456 C   0  0  2  0  0  0  0  0  0  0  0  0
  -10.1612   30.2076  -14.6463 N   0  0  0  0  0  0  0  0  0  0  0  0
   -9.8852   30.2604  -15.9798 C   0  0  0  0  0  0  0  0  0  0  0  0
   -8.8213   30.9829  -16.4568 N   0  0  0  0  0  0  0  0  0  0  0  0
   -8.0298   31.6615  -15.5717 C   0  0  0  0  0  0  0  0  0  0  0  0
   -8.2929   31.6250  -14.2580 C   0  0  0  0  0  0  0  0  0  0  0  0
   -9.3704   30.8807  -13.7808 C   0  0  0  0  0  0  0  0  0  0  0  0
   -9.7528   30.7601  -12.4301 N   0  0  0  0  0  0  0  0  0  0  0  0
   -7.3602   32.3705  -13.6284 N   0  0  0  0  0  0  0  0  0  0  0  0
   -6.5189   32.8759  -14.5750 C   0  0  0  0  0  0  0  0  0  0  0  0
   -6.9193   32.4262  -15.7715 N   0  0  0  0  0  0  0  0  0  0  0  0
   -8.9445   39.1276  -14.3329 N   0  0  0  0  0  0  0  0  0  0  0  0
   -7.9227   38.2559  -14.5389 C   0  0  0  0  0  0  0  0  0  0  0  0
   -6.6361   38.6598  -14.3175 N   0  0  0  0  0  0  0  0  0  0  0  0
   -6.3794   39.9248  -13.8882 C   0  0  0  0  0  0  0  0  0  0  0  0
   -7.3887   40.7938  -13.6773 C   0  0  0  0  0  0  0  0  0  0  0  0
   -8.6957   40.3753  -13.9091 C   0  0  0  0  0  0  0  0  0  0  0  0
   -9.9131   41.1327  -13.7696 N   0  0  0  0  0  0  0  0  0  0  0  0
   -6.8389   41.9601  -13.2621 N   0  0  0  0  0  0  0  0  0  0  0  0
   -5.4853   41.8011  -13.2137 C   0  0  0  0  0  0  0  0  0  0  0  0
   -5.2115   40.5385  -13.5997 N   0  0  0  0  0  0  0  0  0  0  0  0
  1  3  1  1  0  0  0
  1  5  2  0  0  0  0
  1  9  1  0  0  0  0
  1 18  1  0  0  0  0
  2  4  1  1  0  0  0
  2  6  2  0  0  0  0
  2 10  1  0  0  0  0
  2 17  1  0  0  0  0
  7  9  1  0  0  0  0
  8 10  1  0  0  0  0
 11  7  1  1  0  0  0
 11 13  1  0  0  0  0
 11 15  1  0  0  0  0
 12  8  1  6  0  0  0
 12 14  1  0  0  0  0
 12 16  1  0  0  0  0
 13 23  1  0  0  0  0
 14 24  1  0  0  0  0
 15 17  1  6  0  0  0
 15 19  1  0  0  0  0
 16 18  1  1  0  0  0
 16 20  1  0  0  0  0
 19 21  1  6  0  0  0
 19 23  1  0  0  0  0
 20 22  1  1  0  0  0
 20 24  1  0  0  0  0
 23 34  1  1  0  0  0
 24 44  1  6  0  0  0
 25 26  2  0  0  0  0
 25 30  1  0  0  0  0
 26 27  1  0  0  0  0
 27 28  2  0  0  0  0
 28 29  1  0  0  0  0
 28 34  1  0  0  0  0
 29 30  2  0  0  0  0
 29 32  1  0  0  0  0
 30 31  1  0  0  0  0
 32 33  2  0  0  0  0
 33 34  1  0  0  0  0
 35 36  2  0  0  0  0
 35 40  1  0  0  0  0
 36 37  1  0  0  0  0
 37 38  2  0  0  0  0
 38 39  1  0  0  0  0
 38 44  1  0  0  0  0
 39 40  2  0  0  0  0
 39 42  1  0  0  0  0
 40 41  1  0  0  0  0
 42 43  2  0  0  0  0
 43 44  1  0  0  0  0
M  CHG  2   3  -1   4  -1
M  END
>  <CHROM.1>
-145.58557634,67.02548085,-5.74164206,36.22503118,-15.06570154,-1.22870547
0.01376443,-2.99102333

>  <Name>
ligand

>  <RI>
0

>  <Rbt.Current_Directory>
/home/itssahil/PROJECTS/Mol_Feturizer/New_Systems/rnas/4QLM

>  <Rbt.Executable>
rbdock ($Id: //depot/dev/client3/rdock/2013.1/src/exe/rbdock.cxx#4 $)

>  <Rbt.Library>
libRbt.so (2013.1, Build901 2013/11/27)

>  <Rbt.Parameter_File>
/export/apps/rDock/src/rDock_2013.1_src/data/scripts/dock_solv.prm

>  <Rbt.Receptor>
prm/pocket_docking_6.prm

>  <SCORE>
-15.3076

>  <SCORE.INTER>
-14.4141

>  <SCORE.INTER.CONST>
1

>  <SCORE.INTER.POLAR>
0

>  <SCORE.INTER.ROT>
2

>  <SCORE.INTER.SOLV>
24.6419

>  <SCORE.INTER.VDW>
-22.7567

>  <SCORE.INTER.norm>
-0.327594

>  <SCORE.INTRA>
-0.926076

>  <SCORE.INTRA.DIHEDRAL>
-0.0255123

>  <SCORE.INTRA.DIHEDRAL.0>
2.32994

>  <SCORE.INTRA.POLAR>
0

>  <SCORE.INTRA.POLAR.0>
0

>  <SCORE.INTRA.REPUL>
0

>  <SCORE.INTRA.REPUL.0>
0

>  <SCORE.INTRA.SOLV>
0.674739

>  <SCORE.INTRA.SOLV.lig_0>
-117.703

>  <SCORE.INTRA.VDW>
-1.25069

>  <SCORE.INTRA.VDW.0>
-1.59997

>  <SCORE.INTRA.norm>
-0.0210472

>  <SCORE.RESTR>
0.0326654

>  <SCORE.RESTR.CAVITY>
0.0326654

>  <SCORE.RESTR.norm>
0.000742396

>  <SCORE.SYSTEM>
0

>  <SCORE.SYSTEM.CONST>
0

>  <SCORE.SYSTEM.DIHEDRAL>
0

>  <SCORE.SYSTEM.SOLV>
0

>  <SCORE.SYSTEM.norm>
0

>  <SCORE.heavy>
44

>  <SCORE.norm>
-0.347899

>  <RMSD>
6.551

$$$$
ligand
 OpenBabel11021811513D
libRbt.so/2013.1/901 2013/11/27
 44 50  0  0  0  0  0  0  0  0999 V2000
   -8.4651   31.9303  -12.5710 P   0  0  2  0  0  0  0  0  0  0  0  0
  -10.9618   34.3467  -16.7103 P   0  0  1  0  0  0  0  0  0  0  0  0
   -9.0125   30.7711  -11.7421 O   0  5  0  0  0  0  0  0  0  0  0  0
  -10.7182   35.8216  -16.5022 O   0  5  0  0  0  0  0  0  0  0  0  0
   -7.4937   32.6629  -11.6769 O   0  0  0  0  0  0  0  0  0  0  0  0
  -11.5098   34.1677  -18.1443 O   0  0  0  0  0  0  0  0  0  0  0  0
  -10.9442   32.0370  -13.1037 C   0  0  0  0  0  0  0  0  0  0  0  0
   -9.6049   32.1774  -16.3612 C   0  0  0  0  0  0  0  0  0  0  0  0
   -9.7205   32.7722  -12.9682 O   0  0  0  0  0  0  0  0  0  0  0  0
   -9.5317   33.6307  -16.3267 O   0  0  0  0  0  0  0  0  0  0  0  0
  -12.0904   32.9831  -13.4453 C   0  0  1  0  0  0  0  0  0  0  0  0
   -8.1392   31.6569  -16.1120 C   0  0  1  0  0  0  0  0  0  0  0  0
  -12.5480   33.4801  -12.3380 O   0  0  0  0  0  0  0  0  0  0  0  0
   -7.4159   32.2855  -16.9462 O   0  0  0  0  0  0  0  0  0  0  0  0
  -11.6627   34.1530  -14.3012 C   0  0  1  0  0  0  0  0  0  0  0  0
   -7.5995   32.1556  -14.7566 C   0  0  1  0  0  0  0  0  0  0  0  0
  -12.0164   33.8501  -15.5785 O   0  0  0  0  0  0  0  0  0  0  0  0
   -7.6616   31.1972  -13.8242 O   0  0  0  0  0  0  0  0  0  0  0  0
  -12.5332   35.3413  -13.7624 C   0  0  1  0  0  0  0  0  0  0  0  0
   -6.1417   32.6119  -14.9931 C   0  0  1  0  0  0  0  0  0  0  0  0
  -13.6778   35.5930  -14.6789 O   0  0  0  0  0  0  0  0  0  0  0  0
   -5.1804   31.5764  -14.4942 O   0  0  0  0  0  0  0  0  0  0  0  0
  -12.9469   34.9944  -12.5859 C   0  0  2  0  0  0  0  0  0  0  0  0
   -6.0316   32.7225  -16.2724 C   0  0  2  0  0  0  0  0  0  0  0  0
   -8.8834   37.3288   -9.9669 N   0  0  0  0  0  0  0  0  0  0  0  0
   -8.7648   36.5075  -11.0478 C   0  0  0  0  0  0  0  0  0  0  0  0
   -9.8697   35.9601  -11.6485 N   0  0  0  0  0  0  0  0  0  0  0  0
  -11.1088   36.2467  -11.1458 C   0  0  0  0  0  0  0  0  0  0  0  0
  -11.2410   37.0470  -10.0789 C   0  0  0  0  0  0  0  0  0  0  0  0
  -10.1136   37.6068   -9.4802 C   0  0  0  0  0  0  0  0  0  0  0  0
  -10.1158   38.4601   -8.3591 N   0  0  0  0  0  0  0  0  0  0  0  0
  -12.5583   37.1586   -9.8061 N   0  0  0  0  0  0  0  0  0  0  0  0
  -13.2399   36.4078  -10.7177 C   0  0  0  0  0  0  0  0  0  0  0  0
  -12.3499   35.8590  -11.5548 N   0  0  0  0  0  0  0  0  0  0  0  0
   -2.5003   36.1505  -17.9752 N   0  0  0  0  0  0  0  0  0  0  0  0
   -2.2852   34.8445  -17.6678 C   0  0  0  0  0  0  0  0  0  0  0  0
   -3.3242   34.0758  -17.2239 N   0  0  0  0  0  0  0  0  0  0  0  0
   -4.5676   34.6124  -17.0958 C   0  0  0  0  0  0  0  0  0  0  0  0
   -4.7894   35.9063  -17.4034 C   0  0  0  0  0  0  0  0  0  0  0  0
   -3.7248   36.6831  -17.8509 C   0  0  0  0  0  0  0  0  0  0  0  0
   -3.7280   38.0771  -18.2141 N   0  0  0  0  0  0  0  0  0  0  0  0
   -6.1015   36.1570  -17.1782 N   0  0  0  0  0  0  0  0  0  0  0  0
   -6.6864   35.0073  -16.7355 C   0  0  0  0  0  0  0  0  0  0  0  0
   -5.7304   34.0575  -16.6909 N   0  0  0  0  0  0  0  0  0  0  0  0
  1  3  1  1  0  0  0
  1  5  2  0  0  0  0
  1  9  1  0  0  0  0
  1 18  1  0  0  0  0
  2  4  1  1  0  0  0
  2  6  2  0  0  0  0
  2 10  1  0  0  0  0
  2 17  1  0  0  0  0
  7  9  1  0  0  0  0
  8 10  1  0  0  0  0
 11  7  1  1  0  0  0
 11 13  1  0  0  0  0
 11 15  1  0  0  0  0
 12  8  1  6  0  0  0
 12 14  1  0  0  0  0
 12 16  1  0  0  0  0
 13 23  1  0  0  0  0
 14 24  1  0  0  0  0
 15 17  1  6  0  0  0
 15 19  1  0  0  0  0
 16 18  1  1  0  0  0
 16 20  1  0  0  0  0
 19 21  1  6  0  0  0
 19 23  1  0  0  0  0
 20 22  1  6  0  0  0
 20 24  1  0  0  0  0
 23 34  1  1  0  0  0
 24 44  1  1  0  0  0
 25 26  2  0  0  0  0
 25 30  1  0  0  0  0
 26 27  1  0  0  0  0
 27 28  2  0  0  0  0
 28 29  1  0  0  0  0
 28 34  1  0  0  0  0
 29 30  2  0  0  0  0
 29 32  1  0  0  0  0
 30 31  1  0  0  0  0
 32 33  2  0  0  0  0
 33 34  1  0  0  0  0
 35 36  2  0  0  0  0
 35 40  1  0  0  0  0
 36 37  1  0  0  0  0
 37 38  2  0  0  0  0
 38 39  1  0  0  0  0
 38 44  1  0  0  0  0
 39 40  2  0  0  0  0
 39 42  1  0  0  0  0
 40 41  1  0  0  0  0
 42 43  2  0  0  0  0
 43 44  1  0  0  0  0
M  CHG  2   3  -1   4  -1
M  END
>  <CHROM.1>
64.82942868,-136.96272643,-8.86537860,34.36702026,-14.31273296,2.56265771
0.39792761,0.85695893

>  <Name>
ligand

>  <RI>
0

>  <Rbt.Current_Directory>
/home/itssahil/PROJECTS/Mol_Feturizer/New_Systems/rnas/4QLM

>  <Rbt.Executable>
rbdock ($Id: //depot/dev/client3/rdock/2013.1/src/exe/rbdock.cxx#4 $)

>  <Rbt.Library>
libRbt.so (2013.1, Build901 2013/11/27)

>  <Rbt.Parameter_File>
/export/apps/rDock/src/rDock_2013.1_src/data/scripts/dock_solv.prm

>  <Rbt.Receptor>
prm/pocket_docking_7.prm

>  <SCORE>
-16.0146

>  <SCORE.INTER>
-15.0926

>  <SCORE.INTER.CONST>
1

>  <SCORE.INTER.POLAR>
0

>  <SCORE.INTER.ROT>
2

>  <SCORE.INTER.SOLV>
28.4454

>  <SCORE.INTER.VDW>
-24.4768

>  <SCORE.INTER.norm>
-0.343013

>  <SCORE.INTRA>
-0.964796

>  <SCORE.INTRA.DIHEDRAL>
0.043635

>  <SCORE.INTRA.DIHEDRAL.0>
2.32994

>  <SCORE.INTRA.POLAR>
0

>  <SCORE.INTRA.POLAR.0>
0

>  <SCORE.INTRA.REPUL>
0

>  <SCORE.INTRA.REPUL.0>
0

>  <SCORE.INTRA.SOLV>
0.00859487

>  <SCORE.INTRA.SOLV.lig_0>
-117.703

>  <SCORE.INTRA.VDW>
-0.990911

>  <SCORE.INTRA.VDW.0>
-1.59997

>  <SCORE.INTRA.norm>
-0.0219272

>  <SCORE.RESTR>
0.0428083

>  <SCORE.RESTR.CAVITY>
0.0428083

>  <SCORE.RESTR.norm>
0.000972917

>  <SCORE.SYSTEM>
0

>  <SCORE.SYSTEM.CONST>
0

>  <SCORE.SYSTEM.DIHEDRAL>
0

>  <SCORE.SYSTEM.SOLV>
0

>  <SCORE.SYSTEM.norm>
0

>  <SCORE.heavy>
44

>  <SCORE.norm>
-0.363967

>  <RMSD>
6.554

$$$$
ligand
 OpenBabel11021811513D
libRbt.so/2013.1/901 2013/11/27
 44 50  0  0  0  0  0  0  0  0999 V2000
   -5.0736   33.4149  -13.7790 P   0  0  2  0  0  0  0  0  0  0  0  0
   -5.9081   36.7222  -17.9708 P   0  0  1  0  0  0  0  0  0  0  0  0
   -5.4579   31.9393  -13.7062 O   0  5  0  0  0  0  0  0  0  0  0  0
   -6.3955   38.0116  -17.3562 O   0  5  0  0  0  0  0  0  0  0  0  0
   -5.0456   33.9117  -12.3536 O   0  0  0  0  0  0  0  0  0  0  0  0
   -5.5555   37.0191  -19.4462 O   0  0  0  0  0  0  0  0  0  0  0  0
   -6.7788   33.2299  -15.6497 C   0  0  0  0  0  0  0  0  0  0  0  0
   -4.1820   34.9069  -17.3435 C   0  0  0  0  0  0  0  0  0  0  0  0
   -6.1807   34.0784  -14.6605 O   0  0  0  0  0  0  0  0  0  0  0  0
   -4.7075   36.2117  -16.9694 O   0  0  0  0  0  0  0  0  0  0  0  0
   -7.8690   33.9865  -16.4010 C   0  0  1  0  0  0  0  0  0  0  0  0
   -2.9633   34.6319  -16.3840 C   0  0  1  0  0  0  0  0  0  0  0  0
   -8.9654   33.9048  -15.7130 O   0  0  0  0  0  0  0  0  0  0  0  0
   -2.2332   35.6683  -16.4669 O   0  0  0  0  0  0  0  0  0  0  0  0
   -7.5686   35.4588  -16.5642 C   0  0  1  0  0  0  0  0  0  0  0  0
   -3.4079   34.6511  -14.9078 C   0  0  1  0  0  0  0  0  0  0  0  0
   -7.0941   35.6211  -17.8278 O   0  0  0  0  0  0  0  0  0  0  0  0
   -3.5443   33.4109  -14.4229 O   0  0  0  0  0  0  0  0  0  0  0  0
   -8.9740   36.1398  -16.4184 C   0  0  1  0  0  0  0  0  0  0  0  0
   -2.3354   35.4426  -14.1251 C   0  0  1  0  0  0  0  0  0  0  0  0
   -9.5084   36.5007  -17.7591 O   0  0  0  0  0  0  0  0  0  0  0  0
   -1.4319   34.5070  -13.3810 O   0  0  0  0  0  0  0  0  0  0  0  0
   -9.7422   35.2822  -15.8268 C   0  0  2  0  0  0  0  0  0  0  0  0
   -1.6604   36.0686  -15.0270 C   0  0  2  0  0  0  0  0  0  0  0  0
   -8.8437   36.5974  -10.7000 N   0  0  0  0  0  0  0  0  0  0  0  0
   -7.9054   36.1520  -11.5823 C   0  0  0  0  0  0  0  0  0  0  0  0
   -8.2379   35.8426  -12.8766 N   0  0  0  0  0  0  0  0  0  0  0  0
   -9.5370   35.9839  -13.2800 C   0  0  0  0  0  0  0  0  0  0  0  0
  -10.4723   36.4139  -12.4217 C   0  0  0  0  0  0  0  0  0  0  0  0
  -10.1242   36.7352  -11.1108 C   0  0  0  0  0  0  0  0  0  0  0  0
  -11.0076   37.1959  -10.1146 N   0  0  0  0  0  0  0  0  0  0  0  0
  -11.6487   36.4623  -13.0819 N   0  0  0  0  0  0  0  0  0  0  0  0
  -11.4280   36.0479  -14.3620 C   0  0  0  0  0  0  0  0  0  0  0  0
  -10.1243   35.7692  -14.4911 N   0  0  0  0  0  0  0  0  0  0  0  0
   -0.3989   40.3497  -12.3434 N   0  0  0  0  0  0  0  0  0  0  0  0
   -0.0639   39.0688  -12.0378 C   0  0  0  0  0  0  0  0  0  0  0  0
   -0.4826   38.0504  -12.8470 N   0  0  0  0  0  0  0  0  0  0  0  0
   -1.2256   38.3168  -13.9549 C   0  0  0  0  0  0  0  0  0  0  0  0
   -1.5580   39.5858  -14.2669 C   0  0  0  0  0  0  0  0  0  0  0  0
   -1.1306   40.6167  -13.4351 C   0  0  0  0  0  0  0  0  0  0  0  0
   -1.3822   42.0292  -13.5634 N   0  0  0  0  0  0  0  0  0  0  0  0
   -2.2918   39.5442  -15.4048 N   0  0  0  0  0  0  0  0  0  0  0  0
   -2.4039   38.2419  -15.7937 C   0  0  0  0  0  0  0  0  0  0  0  0
   -1.7388   37.4912  -14.8924 N   0  0  0  0  0  0  0  0  0  0  0  0
  1  3  1  1  0  0  0
  1  5  2  0  0  0  0
  1  9  1  0  0  0  0
  1 18  1  0  0  0  0
  2  4  1  1  0  0  0
  2  6  2  0  0  0  0
  2 10  1  0  0  0  0
  2 17  1  0  0  0  0
  7  9  1  0  0  0  0
  8 10  1  0  0  0  0
 11  7  1  1  0  0  0
 11 13  1  0  0  0  0
 11 15  1  0  0  0  0
 12  8  1  6  0  0  0
 12 14  1  0  0  0  0
 12 16  1  0  0  0  0
 13 23  1  0  0  0  0
 14 24  1  0  0  0  0
 15 17  1  6  0  0  0
 15 19  1  0  0  0  0
 16 18  1  1  0  0  0
 16 20  1  0  0  0  0
 19 21  1  6  0  0  0
 19 23  1  0  0  0  0
 20 22  1  6  0  0  0
 20 24  1  0  0  0  0
 23 34  1  1  0  0  0
 24 44  1  1  0  0  0
 25 26  2  0  0  0  0
 25 30  1  0  0  0  0
 26 27  1  0  0  0  0
 27 28  2  0  0  0  0
 28 29  1  0  0  0  0
 28 34  1  0  0  0  0
 29 30  2  0  0  0  0
 29 32  1  0  0  0  0
 30 31  1  0  0  0  0
 32 33  2  0  0  0  0
 33 34  1  0  0  0  0
 35 36  2  0  0  0  0
 35 40  1  0  0  0  0
 36 37  1  0  0  0  0
 37 38  2  0  0  0  0
 38 39  1  0  0  0  0
 38 44  1  0  0  0  0
 39 40  2  0  0  0  0
 39 42  1  0  0  0  0
 40 41  1  0  0  0  0
 42 43  2  0  0  0  0
 43 44  1  0  0  0  0
M  CHG  2   3  -1   4  -1
M  END
>  <CHROM.1>
50.22587863,-169.99450183,-5.55256846,36.15946352,-14.75527221,-3.01544612
0.27771285,1.11633862

>  <Name>
ligand

>  <RI>
0

>  <Rbt.Current_Directory>
/home/itssahil/PROJECTS/Mol_Feturizer/New_Systems/rnas/4QLM

>  <Rbt.Executable>
rbdock ($Id: //depot/dev/client3/rdock/2013.1/src/exe/rbdock.cxx#4 $)

>  <Rbt.Library>
libRbt.so (2013.1, Build901 2013/11/27)

>  <Rbt.Parameter_File>
/export/apps/rDock/src/rDock_2013.1_src/data/scripts/dock_solv.prm

>  <Rbt.Receptor>
prm/pocket_docking_7.prm

>  <SCORE>
-10.8554

>  <SCORE.INTER>
-10.0921

>  <SCORE.INTER.CONST>
1

>  <SCORE.INTER.POLAR>
0

>  <SCORE.INTER.ROT>
2

>  <SCORE.INTER.SOLV>
25.3734

>  <SCORE.INTER.VDW>
-20.1192

>  <SCORE.INTER.norm>
-0.229367

>  <SCORE.INTRA>
-0.764299

>  <SCORE.INTRA.DIHEDRAL>
0.118507

>  <SCORE.INTRA.DIHEDRAL.0>
2.32994

>  <SCORE.INTRA.POLAR>
0

>  <SCORE.INTRA.POLAR.0>
0

>  <SCORE.INTRA.REPUL>
0

>  <SCORE.INTRA.REPUL.0>
0

>  <SCORE.INTRA.SOLV>
0.298065

>  <SCORE.INTRA.SOLV.lig_0>
-117.703

>  <SCORE.INTRA.VDW>
-0.972585

>  <SCORE.INTRA.VDW.0>
-1.59997

>  <SCORE.INTRA.norm>
-0.0173704

>  <SCORE.RESTR>
0.00107847

>  <SCORE.RESTR.CAVITY>
0.00107847

>  <SCORE.RESTR.norm>
2.45106e-05

>  <SCORE.SYSTEM>
0

>  <SCORE.SYSTEM.CONST>
0

>  <SCORE.SYSTEM.DIHEDRAL>
0

>  <SCORE.SYSTEM.SOLV>
0

>  <SCORE.SYSTEM.norm>
0

>  <SCORE.heavy>
44

>  <SCORE.norm>
-0.246713

>  <RMSD>
6.558

$$$$
ligand
 OpenBabel11021811513D
libRbt.so/2013.1/901 2013/11/27
 44 50  0  0  0  0  0  0  0  0999 V2000
   -8.4655   31.9473  -12.5651 P   0  0  2  0  0  0  0  0  0  0  0  0
  -10.9648   34.3457  -16.7131 P   0  0  1  0  0  0  0  0  0  0  0  0
   -9.0127   30.7922  -11.7304 O   0  5  0  0  0  0  0  0  0  0  0  0
  -10.7204   35.8215  -16.5121 O   0  5  0  0  0  0  0  0  0  0  0  0
   -7.4929   32.6835  -11.6753 O   0  0  0  0  0  0  0  0  0  0  0  0
  -11.5143   34.1604  -18.1459 O   0  0  0  0  0  0  0  0  0  0  0  0
  -10.9450   32.0527  -13.0960 C   0  0  0  0  0  0  0  0  0  0  0  0
   -9.6087   32.1775  -16.3554 C   0  0  0  0  0  0  0  0  0  0  0  0
   -9.7209   32.7880  -12.9650 O   0  0  0  0  0  0  0  0  0  0  0  0
   -9.5347   33.6309  -16.3276 O   0  0  0  0  0  0  0  0  0  0  0  0
  -12.0911   32.9977  -13.4409 C   0  0  1  0  0  0  0  0  0  0  0  0
   -8.1429   31.6574  -16.1051 C   0  0  1  0  0  0  0  0  0  0  0  0
  -12.5474   33.5001  -12.3355 O   0  0  0  0  0  0  0  0  0  0  0  0
   -7.4202   32.2818  -16.9429 O   0  0  0  0  0  0  0  0  0  0  0  0
  -11.6637   34.1635  -14.3026 C   0  0  1  0  0  0  0  0  0  0  0  0
   -7.6018   32.1621  -14.7525 C   0  0  1  0  0  0  0  0  0  0  0  0
  -12.0186   33.8549  -15.5782 O   0  0  0  0  0  0  0  0  0  0  0  0
   -7.6635   31.2080  -13.8156 O   0  0  0  0  0  0  0  0  0  0  0  0
  -12.5331   35.3547  -13.7684 C   0  0  1  0  0  0  0  0  0  0  0  0
   -6.1440   32.6166  -14.9924 C   0  0  1  0  0  0  0  0  0  0  0  0
  -13.6784   35.6027  -14.6851 O   0  0  0  0  0  0  0  0  0  0  0  0
   -5.1827   31.5829  -14.4896 O   0  0  0  0  0  0  0  0  0  0  0  0
  -12.9459   35.0134  -12.5900 C   0  0  2  0  0  0  0  0  0  0  0  0
   -6.0350   32.7213  -16.2723 C   0  0  2  0  0  0  0  0  0  0  0  0
   -8.8782   37.3447   -9.9747 N   0  0  0  0  0  0  0  0  0  0  0  0
   -8.7605   36.5145  -11.0489 C   0  0  0  0  0  0  0  0  0  0  0  0
   -9.8665   35.9687  -11.6493 N   0  0  0  0  0  0  0  0  0  0  0  0
  -11.1056   36.2662  -11.1531 C   0  0  0  0  0  0  0  0  0  0  0  0
  -11.2370   37.0754  -10.0928 C   0  0  0  0  0  0  0  0  0  0  0  0
  -10.1085   37.6333   -9.4945 C   0  0  0  0  0  0  0  0  0  0  0  0
  -10.1096   38.4952   -8.3799 N   0  0  0  0  0  0  0  0  0  0  0  0
  -12.5546   37.1966   -9.8255 N   0  0  0  0  0  0  0  0  0  0  0  0
  -13.2373   36.4427  -10.7337 C   0  0  0  0  0  0  0  0  0  0  0  0
  -12.3475   35.8824  -11.5634 N   0  0  0  0  0  0  0  0  0  0  0  0
   -2.4982   36.1464  -17.9694 N   0  0  0  0  0  0  0  0  0  0  0  0
   -2.2825   34.8430  -17.6515 C   0  0  0  0  0  0  0  0  0  0  0  0
   -3.3231   34.0747  -17.2110 N   0  0  0  0  0  0  0  0  0  0  0  0
   -4.5689   34.6091  -17.0964 C   0  0  0  0  0  0  0  0  0  0  0  0
   -4.7912   35.9005  -17.4144 C   0  0  0  0  0  0  0  0  0  0  0  0
   -3.7248   36.6769  -17.8585 C   0  0  0  0  0  0  0  0  0  0  0  0
   -3.7284   38.0684  -18.2310 N   0  0  0  0  0  0  0  0  0  0  0  0
   -6.1057   36.1495  -17.2015 N   0  0  0  0  0  0  0  0  0  0  0  0
   -6.6914   35.0014  -16.7559 C   0  0  0  0  0  0  0  0  0  0  0  0
   -5.7335   34.0542  -16.6972 N   0  0  0  0  0  0  0  0  0  0  0  0
  1  3  1  1  0  0  0
  1  5  2  0  0  0  0
  1  9  1  0  0  0  0
  1 18  1  0  0  0  0
  2  4  1  1  0  0  0
  2  6  2  0  0  0  0
  2 10  1  0  0  0  0
  2 17  1  0  0  0  0
  7  9  1  0  0  0  0
  8 10  1  0  0  0  0
 11  7  1  1  0  0  0
 11 13  1  0  0  0  0
 11 15  1  0  0  0  0
 12  8  1  6  0  0  0
 12 14  1  0  0  0  0
 12 16  1  0  0  0  0
 13 23  1  0  0  0  0
 14 24  1  0  0  0  0
 15 17  1  6  0  0  0
 15 19  1  0  0  0  0
 16 18  1  1  0  0  0
 16 20  1  0  0  0  0
 19 21  1  6  0  0  0
 19 23  1  0  0  0  0
 20 22  1  6  0  0  0
 20 24  1  0  0  0  0
 23 34  1  1  0  0  0
 24 44  1  1  0  0  0
 25 26  2  0  0  0  0
 25 30  1  0  0  0  0
 26 27  1  0  0  0  0
 27 28  2  0  0  0  0
 28 29  1  0  0  0  0
 28 34  1  0  0  0  0
 29 30  2  0  0  0  0
 29 32  1  0  0  0  0
 30 31  1  0  0  0  0
 32 33  2  0  0  0  0
 33 34  1  0  0  0  0
 35 36  2  0  0  0  0
 35 40  1  0  0  0  0
 36 37  1  0  0  0  0
 37 38  2  0  0  0  0
 38 39  1  0  0  0  0
 38 44  1  0  0  0  0
 39 40  2  0  0  0  0
 39 42  1  0  0  0  0
 40 41  1  0  0  0  0
 42 43  2  0  0  0  0
 43 44  1  0  0  0  0
M  CHG  2   3  -1   4  -1
M  END
>  <CHROM.1>
64.40229978,-137.51534963,-8.86576830,34.37576508,-14.31502776,2.56068787
0.39476357,0.85743825

>  <Name>
ligand

>  <RI>
0

>  <Rbt.Current_Directory>
/home/itssahil/PROJECTS/Mol_Feturizer/New_Systems/rnas/4QLM

>  <Rbt.Executable>
rbdock ($Id: //depot/dev/client3/rdock/2013.1/src/exe/rbdock.cxx#4 $)

>  <Rbt.Library>
libRbt.so (2013.1, Build901 2013/11/27)

>  <Rbt.Parameter_File>
/export/apps/rDock/src/rDock_2013.1_src/data/scripts/dock_solv.prm

>  <Rbt.Receptor>
prm/pocket_docking_8.prm

>  <SCORE>
-16.1438

>  <SCORE.INTER>
-15.1763

>  <SCORE.INTER.CONST>
1

>  <SCORE.INTER.POLAR>
0

>  <SCORE.INTER.ROT>
2

>  <SCORE.INTER.SOLV>
28.2165

>  <SCORE.INTER.VDW>
-24.4564

>  <SCORE.INTER.norm>
-0.344917

>  <SCORE.INTRA>
-0.967499

>  <SCORE.INTRA.DIHEDRAL>
0.0460424

>  <SCORE.INTRA.DIHEDRAL.0>
2.32994

>  <SCORE.INTRA.POLAR>
0

>  <SCORE.INTRA.POLAR.0>
0

>  <SCORE.INTRA.REPUL>
0

>  <SCORE.INTRA.REPUL.0>
0

>  <SCORE.INTRA.SOLV>
0.0169538

>  <SCORE.INTRA.SOLV.lig_0>
-117.703

>  <SCORE.INTRA.VDW>
-0.998997

>  <SCORE.INTRA.VDW.0>
-1.59997

>  <SCORE.INTRA.norm>
-0.0219886

>  <SCORE.RESTR>
0

>  <SCORE.RESTR.CAVITY>
0

>  <SCORE.RESTR.norm>
0

>  <SCORE.SYSTEM>
0

>  <SCORE.SYSTEM.CONST>
0

>  <SCORE.SYSTEM.DIHEDRAL>
0

>  <SCORE.SYSTEM.SOLV>
0

>  <SCORE.SYSTEM.norm>
0

>  <SCORE.heavy>
44

>  <SCORE.norm>
-0.366905

>  <RMSD>
6.558

$$$$
ligand
 OpenBabel11021811513D
libRbt.so/2013.1/901 2013/11/27
 44 50  0  0  0  0  0  0  0  0999 V2000
   -7.7351   33.5120  -12.4508 P   0  0  2  0  0  0  0  0  0  0  0  0
   -4.4857   34.7062  -16.6006 P   0  0  1  0  0  0  0  0  0  0  0  0
   -8.3494   32.1467  -12.1523 O   0  5  0  0  0  0  0  0  0  0  0  0
   -4.9775   36.0405  -17.1064 O   0  5  0  0  0  0  0  0  0  0  0  0
   -8.6602   34.5321  -11.8319 O   0  0  0  0  0  0  0  0  0  0  0  0
   -3.1106   34.4433  -17.2554 O   0  0  0  0  0  0  0  0  0  0  0  0
   -7.4952   32.3351  -14.6865 C   0  0  0  0  0  0  0  0  0  0  0  0
   -4.2225   33.5833  -14.2901 C   0  0  0  0  0  0  0  0  0  0  0  0
   -7.6579   33.5889  -14.0099 O   0  0  0  0  0  0  0  0  0  0  0  0
   -4.5586   34.8299  -14.9622 O   0  0  0  0  0  0  0  0  0  0  0  0
   -7.4829   32.5507  -16.1962 C   0  0  1  0  0  0  0  0  0  0  0  0
   -4.2029   33.9061  -12.7484 C   0  0  1  0  0  0  0  0  0  0  0  0
   -8.7117   32.5793  -16.6104 O   0  0  0  0  0  0  0  0  0  0  0  0
   -3.4522   34.9242  -12.6305 O   0  0  0  0  0  0  0  0  0  0  0  0
   -6.8569   33.8639  -16.6058 C   0  0  1  0  0  0  0  0  0  0  0  0
   -5.5707   34.4409  -12.2791 C   0  0  1  0  0  0  0  0  0  0  0  0
   -5.5877   33.5824  -17.0034 O   0  0  0  0  0  0  0  0  0  0  0  0
   -6.2786   33.4909  -11.6560 O   0  0  0  0  0  0  0  0  0  0  0  0
   -7.7235   34.3186  -17.8316 C   0  0  1  0  0  0  0  0  0  0  0  0
   -5.2885   35.6350  -11.3390 C   0  0  1  0  0  0  0  0  0  0  0  0
   -7.0044   34.0286  -19.1013 O   0  0  0  0  0  0  0  0  0  0  0  0
   -5.4535   35.2257   -9.9070 O   0  0  0  0  0  0  0  0  0  0  0  0
   -8.8350   33.6584  -17.7653 C   0  0  2  0  0  0  0  0  0  0  0  0
   -4.0579   35.9479  -11.5596 C   0  0  2  0  0  0  0  0  0  0  0  0
  -13.4206   36.1843  -18.9542 N   0  0  0  0  0  0  0  0  0  0  0  0
  -12.7808   35.2820  -19.7503 C   0  0  0  0  0  0  0  0  0  0  0  0
  -11.6097   34.6888  -19.3526 N   0  0  0  0  0  0  0  0  0  0  0  0
  -11.0801   35.0163  -18.1350 C   0  0  0  0  0  0  0  0  0  0  0  0
  -11.6940   35.9073  -17.3441 C   0  0  0  0  0  0  0  0  0  0  0  0
  -12.8887   36.4983  -17.7517 C   0  0  0  0  0  0  0  0  0  0  0  0
  -13.6303   37.4450  -17.0177 N   0  0  0  0  0  0  0  0  0  0  0  0
  -10.9620   36.0333  -16.2169 N   0  0  0  0  0  0  0  0  0  0  0  0
   -9.8801   35.2107  -16.3259 C   0  0  0  0  0  0  0  0  0  0  0  0
   -9.9599   34.5701  -17.4995 N   0  0  0  0  0  0  0  0  0  0  0  0
   -6.0931   39.9489  -14.1996 N   0  0  0  0  0  0  0  0  0  0  0  0
   -6.6847   38.7508  -13.9529 C   0  0  0  0  0  0  0  0  0  0  0  0
   -6.0083   37.7971  -13.2458 N   0  0  0  0  0  0  0  0  0  0  0  0
   -4.7524   38.0467  -12.7864 C   0  0  0  0  0  0  0  0  0  0  0  0
   -4.1608   39.2350  -13.0234 C   0  0  0  0  0  0  0  0  0  0  0  0
   -4.8555   40.1993  -13.7479 C   0  0  0  0  0  0  0  0  0  0  0  0
   -4.4156   41.5165  -14.1306 N   0  0  0  0  0  0  0  0  0  0  0  0
   -2.9312   39.1955  -12.4565 N   0  0  0  0  0  0  0  0  0  0  0  0
   -2.7725   37.9772  -11.8645 C   0  0  0  0  0  0  0  0  0  0  0  0
   -3.9051   37.2755  -12.0714 N   0  0  0  0  0  0  0  0  0  0  0  0
  1  3  1  1  0  0  0
  1  5  2  0  0  0  0
  1  9  1  0  0  0  0
  1 18  1  0  0  0  0
  2  4  1  6  0  0  0
  2  6  2  0  0  0  0
  2 10  1  0  0  0  0
  2 17  1  0  0  0  0
  7  9  1  0  0  0  0
  8 10  1  0  0  0  0
 11  7  1  1  0  0  0
 11 13  1  0  0  0  0
 11 15  1  0  0  0  0
 12  8  1  6  0  0  0
 12 14  1  0  0  0  0
 12 16  1  0  0  0  0
 13 23  1  0  0  0  0
 14 24  1  0  0  0  0
 15 17  1  6  0  0  0
 15 19  1  0  0  0  0
 16 18  1  1  0  0  0
 16 20  1  0  0  0  0
 19 21  1  6  0  0  0
 19 23  1  0  0  0  0
 20 22  1  1  0  0  0
 20 24  1  0  0  0  0
 23 34  1  1  0  0  0
 24 44  1  6  0  0  0
 25 26  2  0  0  0  0
 25 30  1  0  0  0  0
 26 27  1  0  0  0  0
 27 28  2  0  0  0  0
 28 29  1  0  0  0  0
 28 34  1  0  0  0  0
 29 30  2  0  0  0  0
 29 32  1  0  0  0  0
 30 31  1  0  0  0  0
 32 33  2  0  0  0  0
 33 34  1  0  0  0  0
 35 36  2  0  0  0  0
 35 40  1  0  0  0  0
 36 37  1  0  0  0  0
 37 38  2  0  0  0  0
 38 39  1  0  0  0  0
 38 44  1  0  0  0  0
 39 40  2  0  0  0  0
 39 42  1  0  0  0  0
 40 41  1  0  0  0  0
 42 43  2  0  0  0  0
 43 44  1  0  0  0  0
M  CHG  2   3  -1   4  -1
M  END
>  <CHROM.1>
-125.89940499,93.49607477,-6.98723787,35.39499686,-14.91388355,-0.15825905
0.67594207,3.07927816

>  <Name>
ligand

>  <RI>
0

>  <Rbt.Current_Directory>
/home/itssahil/PROJECTS/Mol_Feturizer/New_Systems/rnas/4QLM

>  <Rbt.Executable>
rbdock ($Id: //depot/dev/client3/rdock/2013.1/src/exe/rbdock.cxx#4 $)

>  <Rbt.Library>
libRbt.so (2013.1, Build901 2013/11/27)

>  <Rbt.Parameter_File>
/export/apps/rDock/src/rDock_2013.1_src/data/scripts/dock_solv.prm

>  <Rbt.Receptor>
prm/pocket_docking_6.prm

>  <SCORE>
-6.74553

>  <SCORE.INTER>
-7.03739

>  <SCORE.INTER.CONST>
1

>  <SCORE.INTER.POLAR>
0

>  <SCORE.INTER.ROT>
2

>  <SCORE.INTER.SOLV>
25.0886

>  <SCORE.INTER.VDW>
-17.9878

>  <SCORE.INTER.norm>
-0.159941

>  <SCORE.INTRA>
0.247474

>  <SCORE.INTRA.DIHEDRAL>
0.0577636

>  <SCORE.INTRA.DIHEDRAL.0>
2.32994

>  <SCORE.INTRA.POLAR>
0

>  <SCORE.INTRA.POLAR.0>
0

>  <SCORE.INTRA.REPUL>
0

>  <SCORE.INTRA.REPUL.0>
0

>  <SCORE.INTRA.SOLV>
0.0195987

>  <SCORE.INTRA.SOLV.lig_0>
-117.703

>  <SCORE.INTRA.VDW>
0.208793

>  <SCORE.INTRA.VDW.0>
-1.59997

>  <SCORE.INTRA.norm>
0.00562441

>  <SCORE.RESTR>
0.0443853

>  <SCORE.RESTR.CAVITY>
0.0443853

>  <SCORE.RESTR.norm>
0.00100876

>  <SCORE.SYSTEM>
0

>  <SCORE.SYSTEM.CONST>
0

>  <SCORE.SYSTEM.DIHEDRAL>
0

>  <SCORE.SYSTEM.SOLV>
0

>  <SCORE.SYSTEM.norm>
0

>  <SCORE.heavy>
44

>  <SCORE.norm>
-0.153307

>  <RMSD>
6.560

$$$$
ligand
 OpenBabel11021811513D
libRbt.so/2013.1/901 2013/11/27
 44 50  0  0  0  0  0  0  0  0999 V2000
   -8.4491   31.9616  -12.5435 P   0  0  2  0  0  0  0  0  0  0  0  0
  -10.9900   34.3180  -16.6904 P   0  0  1  0  0  0  0  0  0  0  0  0
   -8.9845   30.8097  -11.6967 O   0  5  0  0  0  0  0  0  0  0  0  0
  -10.7516   35.7963  -16.5015 O   0  5  0  0  0  0  0  0  0  0  0  0
   -7.4739   32.7089  -11.6659 O   0  0  0  0  0  0  0  0  0  0  0  0
  -11.5487   34.1197  -18.1178 O   0  0  0  0  0  0  0  0  0  0  0  0
  -10.9329   32.0508  -13.0573 C   0  0  0  0  0  0  0  0  0  0  0  0
   -9.6204   32.1591  -16.3270 C   0  0  0  0  0  0  0  0  0  0  0  0
   -9.7115   32.7931  -12.9403 O   0  0  0  0  0  0  0  0  0  0  0  0
   -9.5536   33.6130  -16.3100 O   0  0  0  0  0  0  0  0  0  0  0  0
  -12.0861   32.9876  -13.4007 C   0  0  1  0  0  0  0  0  0  0  0  0
   -8.1503   31.6482  -16.0836 C   0  0  1  0  0  0  0  0  0  0  0  0
  -12.5371   33.4955  -12.2957 O   0  0  0  0  0  0  0  0  0  0  0  0
   -7.4367   32.2702  -16.9309 O   0  0  0  0  0  0  0  0  0  0  0  0
  -11.6707   34.1494  -14.2737 C   0  0  1  0  0  0  0  0  0  0  0  0
   -7.6021   32.1651  -14.7385 C   0  0  1  0  0  0  0  0  0  0  0  0
  -12.0332   33.8299  -15.5445 O   0  0  0  0  0  0  0  0  0  0  0  0
   -7.6523   31.2174  -13.7945 O   0  0  0  0  0  0  0  0  0  0  0  0
  -12.5423   35.3400  -13.7417 C   0  0  1  0  0  0  0  0  0  0  0  0
   -6.1484   32.6252  -14.9920 C   0  0  1  0  0  0  0  0  0  0  0  0
  -13.6953   35.5757  -14.6518 O   0  0  0  0  0  0  0  0  0  0  0  0
   -5.1783   31.6000  -14.4888 O   0  0  0  0  0  0  0  0  0  0  0  0
  -12.9450   35.0049  -12.5579 C   0  0  2  0  0  0  0  0  0  0  0  0
   -6.0490   32.7214  -16.2734 C   0  0  2  0  0  0  0  0  0  0  0  0
   -8.8695   37.3532   -9.9700 N   0  0  0  0  0  0  0  0  0  0  0  0
   -8.7545   36.5095  -11.0341 C   0  0  0  0  0  0  0  0  0  0  0  0
   -9.8624   35.9605  -11.6281 N   0  0  0  0  0  0  0  0  0  0  0  0
  -11.1006   36.2685  -11.1359 C   0  0  0  0  0  0  0  0  0  0  0  0
  -11.2292   37.0910  -10.0855 C   0  0  0  0  0  0  0  0  0  0  0  0
  -10.0988   37.6520   -9.4937 C   0  0  0  0  0  0  0  0  0  0  0  0
  -10.0971   38.5274   -8.3897 N   0  0  0  0  0  0  0  0  0  0  0  0
  -12.5464   37.2201   -9.8200 N   0  0  0  0  0  0  0  0  0  0  0  0
  -13.2316   36.4578  -10.7192 C   0  0  0  0  0  0  0  0  0  0  0  0
  -12.3437   35.8842  -11.5418 N   0  0  0  0  0  0  0  0  0  0  0  0
   -2.5620   36.1290  -18.1034 N   0  0  0  0  0  0  0  0  0  0  0  0
   -2.3408   34.8247  -17.7934 C   0  0  0  0  0  0  0  0  0  0  0  0
   -3.3679   34.0615  -17.3138 N   0  0  0  0  0  0  0  0  0  0  0  0
   -4.6058   34.6020  -17.1527 C   0  0  0  0  0  0  0  0  0  0  0  0
   -4.8338   35.8943  -17.4626 C   0  0  0  0  0  0  0  0  0  0  0  0
   -3.7810   36.6654  -17.9468 C   0  0  0  0  0  0  0  0  0  0  0  0
   -3.7919   38.0569  -18.3194 N   0  0  0  0  0  0  0  0  0  0  0  0
   -6.1381   36.1497  -17.2006 N   0  0  0  0  0  0  0  0  0  0  0  0
   -6.7122   35.0045  -16.7329 C   0  0  0  0  0  0  0  0  0  0  0  0
   -5.7573   34.0527  -16.7099 N   0  0  0  0  0  0  0  0  0  0  0  0
  1  3  1  1  0  0  0
  1  5  2  0  0  0  0
  1  9  1  0  0  0  0
  1 18  1  0  0  0  0
  2  4  1  1  0  0  0
  2  6  2  0  0  0  0
  2 10  1  0  0  0  0
  2 17  1  0  0  0  0
  7  9  1  0  0  0  0
  8 10  1  0  0  0  0
 11  7  1  1  0  0  0
 11 13  1  0  0  0  0
 11 15  1  0  0  0  0
 12  8  1  6  0  0  0
 12 14  1  0  0  0  0
 12 16  1  0  0  0  0
 13 23  1  0  0  0  0
 14 24  1  0  0  0  0
 15 17  1  6  0  0  0
 15 19  1  0  0  0  0
 16 18  1  1  0  0  0
 16 20  1  0  0  0  0
 19 21  1  6  0  0  0
 19 23  1  0  0  0  0
 20 22  1  6  0  0  0
 20 24  1  0  0  0  0
 23 34  1  1  0  0  0
 24 44  1  1  0  0  0
 25 26  2  0  0  0  0
 25 30  1  0  0  0  0
 26 27  1  0  0  0  0
 27 28  2  0  0  0  0
 28 29  1  0  0  0  0
 28 34  1  0  0  0  0
 29 30  2  0  0  0  0
 29 32  1  0  0  0  0
 30 31  1  0  0  0  0
 32 33  2  0  0  0  0
 33 34  1  0  0  0  0
 35 36  2  0  0  0  0
 35 40  1  0  0  0  0
 36 37  1  0  0  0  0
 37 38  2  0  0  0  0
 38 39  1  0  0  0  0
 38 44  1  0  0  0  0
 39 40  2  0  0  0  0
 39 42  1  0  0  0  0
 40 41  1  0  0  0  0
 42 43  2  0  0  0  0
 43 44  1  0  0  0  0
M  CHG  2   3  -1   4  -1
M  END
>  <CHROM.1>
63.68906704,-135.64306725,-8.87565562,34.37228553,-14.31275854,2.55378616
0.40519545,0.85396273

>  <Name>
ligand

>  <RI>
0

>  <Rbt.Current_Directory>
/home/itssahil/PROJECTS/Mol_Feturizer/New_Systems/rnas/4QLM

>  <Rbt.Executable>
rbdock ($Id: //depot/dev/client3/rdock/2013.1/src/exe/rbdock.cxx#4 $)

>  <Rbt.Library>
libRbt.so (2013.1, Build901 2013/11/27)

>  <Rbt.Parameter_File>
/export/apps/rDock/src/rDock_2013.1_src/data/scripts/dock_solv.prm

>  <Rbt.Receptor>
prm/pocket_docking_8.prm

>  <SCORE>
-16.1151

>  <SCORE.INTER>
-15.1223

>  <SCORE.INTER.CONST>
1

>  <SCORE.INTER.POLAR>
0

>  <SCORE.INTER.ROT>
2

>  <SCORE.INTER.SOLV>
28.0539

>  <SCORE.INTER.VDW>
-24.3662

>  <SCORE.INTER.norm>
-0.343689

>  <SCORE.INTRA>
-0.992783

>  <SCORE.INTRA.DIHEDRAL>
0.0490959

>  <SCORE.INTRA.DIHEDRAL.0>
2.32994

>  <SCORE.INTRA.POLAR>
0

>  <SCORE.INTRA.POLAR.0>
0

>  <SCORE.INTRA.REPUL>
0

>  <SCORE.INTRA.REPUL.0>
0

>  <SCORE.INTRA.SOLV>
0.0304141

>  <SCORE.INTRA.SOLV.lig_0>
-117.703

>  <SCORE.INTRA.VDW>
-1.03254

>  <SCORE.INTRA.VDW.0>
-1.59997

>  <SCORE.INTRA.norm>
-0.0225632

>  <SCORE.RESTR>
0

>  <SCORE.RESTR.CAVITY>
0

>  <SCORE.RESTR.norm>
0

>  <SCORE.SYSTEM>
0

>  <SCORE.SYSTEM.CONST>
0

>  <SCORE.SYSTEM.DIHEDRAL>
0

>  <SCORE.SYSTEM.SOLV>
0

>  <SCORE.SYSTEM.norm>
0

>  <SCORE.heavy>
44

>  <SCORE.norm>
-0.366252

>  <RMSD>
6.562

$$$$
ligand
 OpenBabel11021811513D
libRbt.so/2013.1/901 2013/11/27
 44 50  0  0  0  0  0  0  0  0999 V2000
  -10.2735   34.9685  -17.2126 P   0  0  2  0  0  0  0  0  0  0  0  0
   -8.2474   32.4219  -12.8980 P   0  0  1  0  0  0  0  0  0  0  0  0
  -10.6148   34.3302  -18.5567 O   0  5  0  0  0  0  0  0  0  0  0  0
   -7.1817   33.3489  -12.3659 O   0  5  0  0  0  0  0  0  0  0  0  0
   -9.9837   36.4220  -17.5004 O   0  0  0  0  0  0  0  0  0  0  0  0
   -8.5080   31.3496  -11.8158 O   0  0  0  0  0  0  0  0  0  0  0  0
   -8.9628   32.7979  -17.1039 C   0  0  0  0  0  0  0  0  0  0  0  0
  -10.5787   32.7022  -13.9726 C   0  0  0  0  0  0  0  0  0  0  0  0
   -9.0390   34.1675  -16.6860 O   0  0  0  0  0  0  0  0  0  0  0  0
   -9.4863   33.4150  -13.3266 O   0  0  0  0  0  0  0  0  0  0  0  0
   -7.6923   32.1529  -16.5604 C   0  0  1  0  0  0  0  0  0  0  0  0
  -11.7268   33.7590  -14.1885 C   0  0  1  0  0  0  0  0  0  0  0  0
   -6.7208   32.4233  -17.3761 O   0  0  0  0  0  0  0  0  0  0  0  0
  -11.8956   34.3043  -13.0536 O   0  0  0  0  0  0  0  0  0  0  0  0
   -7.2838   32.6882  -15.2073 C   0  0  1  0  0  0  0  0  0  0  0  0
  -11.2380   34.9352  -15.0572 C   0  0  1  0  0  0  0  0  0  0  0  0
   -7.7021   31.7792  -14.2870 O   0  0  0  0  0  0  0  0  0  0  0  0
  -11.6648   34.8192  -16.3206 O   0  0  0  0  0  0  0  0  0  0  0  0
   -5.7170   32.7105  -15.2777 C   0  0  1  0  0  0  0  0  0  0  0  0
  -11.7722   36.2299  -14.4034 C   0  0  1  0  0  0  0  0  0  0  0  0
   -5.1561   31.5412  -14.5487 O   0  0  0  0  0  0  0  0  0  0  0  0
  -12.9611   36.7456  -15.1555 O   0  0  0  0  0  0  0  0  0  0  0  0
   -5.4015   32.6714  -16.5326 C   0  0  2  0  0  0  0  0  0  0  0  0
  -12.1311   35.8790  -13.2164 C   0  0  2  0  0  0  0  0  0  0  0  0
   -5.2776   37.5623  -18.7427 N   0  0  0  0  0  0  0  0  0  0  0  0
   -6.3798   36.7688  -18.6301 C   0  0  0  0  0  0  0  0  0  0  0  0
   -6.3066   35.5303  -18.0451 N   0  0  0  0  0  0  0  0  0  0  0  0
   -5.1014   35.0904  -17.5714 C   0  0  0  0  0  0  0  0  0  0  0  0
   -4.0072   35.8564  -17.6815 C   0  0  0  0  0  0  0  0  0  0  0  0
   -4.0922   37.1176  -18.2688 C   0  0  0  0  0  0  0  0  0  0  0  0
   -3.0220   38.0170  -18.4444 N   0  0  0  0  0  0  0  0  0  0  0  0
   -2.9738   35.1830  -17.1329 N   0  0  0  0  0  0  0  0  0  0  0  0
   -3.4448   33.9834  -16.6876 C   0  0  0  0  0  0  0  0  0  0  0  0
   -4.7591   33.9314  -16.9411 N   0  0  0  0  0  0  0  0  0  0  0  0
   -8.0684   38.8587  -11.8987 N   0  0  0  0  0  0  0  0  0  0  0  0
   -8.3854   38.4187  -13.1445 C   0  0  0  0  0  0  0  0  0  0  0  0
   -9.4892   37.6329  -13.3221 N   0  0  0  0  0  0  0  0  0  0  0  0
  -10.2694   37.2973  -12.2595 C   0  0  0  0  0  0  0  0  0  0  0  0
   -9.9635   37.7340  -11.0210 C   0  0  0  0  0  0  0  0  0  0  0  0
   -8.8354   38.5307  -10.8486 C   0  0  0  0  0  0  0  0  0  0  0  0
   -8.3144   39.0873   -9.6264 N   0  0  0  0  0  0  0  0  0  0  0  0
  -10.9033   37.2464  -10.1760 N   0  0  0  0  0  0  0  0  0  0  0  0
  -11.7923   36.5115  -10.9036 C   0  0  0  0  0  0  0  0  0  0  0  0
  -11.3933   36.5516  -12.1910 N   0  0  0  0  0  0  0  0  0  0  0  0
  1  3  1  6  0  0  0
  1  5  2  0  0  0  0
  1  9  1  0  0  0  0
  1 18  1  0  0  0  0
  2  4  1  1  0  0  0
  2  6  2  0  0  0  0
  2 10  1  0  0  0  0
  2 17  1  0  0  0  0
  7  9  1  0  0  0  0
  8 10  1  0  0  0  0
 11  7  1  6  0  0  0
 11 13  1  0  0  0  0
 11 15  1  0  0  0  0
 12  8  1  1  0  0  0
 12 14  1  0  0  0  0
 12 16  1  0  0  0  0
 13 23  1  0  0  0  0
 14 24  1  0  0  0  0
 15 17  1  1  0  0  0
 15 19  1  0  0  0  0
 16 18  1  6  0  0  0
 16 20  1  0  0  0  0
 19 21  1  1  0  0  0
 19 23  1  0  0  0  0
 20 22  1  6  0  0  0
 20 24  1  0  0  0  0
 23 34  1  6  0  0  0
 24 44  1  1  0  0  0
 25 26  2  0  0  0  0
 25 30  1  0  0  0  0
 26 27  1  0  0  0  0
 27 28  2  0  0  0  0
 28 29  1  0  0  0  0
 28 34  1  0  0  0  0
 29 30  2  0  0  0  0
 29 32  1  0  0  0  0
 30 31  1  0  0  0  0
 32 33  2  0  0  0  0
 33 34  1  0  0  0  0
 35 36  2  0  0  0  0
 35 40  1  0  0  0  0
 36 37  1  0  0  0  0
 37 38  2  0  0  0  0
 38 39  1  0  0  0  0
 38 44  1  0  0  0  0
 39 40  2  0  0  0  0
 39 42  1  0  0  0  0
 40 41  1  0  0  0  0
 42 43  2  0  0  0  0
 43 44  1  0  0  0  0
M  CHG  2   3  -1   4  -1
M  END
>  <CHROM.1>
20.79297755,107.91082270,-8.39806059,34.96287396,-14.93133526,0.39870788
-0.65656643,-2.83377799

>  <Name>
ligand

>  <RI>
0

>  <Rbt.Current_Directory>
/home/itssahil/PROJECTS/Mol_Feturizer/New_Systems/rnas/4QLM

>  <Rbt.Executable>
rbdock ($Id: //depot/dev/client3/rdock/2013.1/src/exe/rbdock.cxx#4 $)

>  <Rbt.Library>
libRbt.so (2013.1, Build901 2013/11/27)

>  <Rbt.Parameter_File>
/export/apps/rDock/src/rDock_2013.1_src/data/scripts/dock_solv.prm

>  <Rbt.Receptor>
prm/pocket_docking_6.prm

>  <SCORE>
-11.5075

>  <SCORE.INTER>
-11.2247

>  <SCORE.INTER.CONST>
1

>  <SCORE.INTER.POLAR>
0

>  <SCORE.INTER.ROT>
2

>  <SCORE.INTER.SOLV>
27.9604

>  <SCORE.INTER.VDW>
-21.7366

>  <SCORE.INTER.norm>
-0.255106

>  <SCORE.INTRA>
-0.310427

>  <SCORE.INTRA.DIHEDRAL>
0.173167

>  <SCORE.INTRA.DIHEDRAL.0>
2.32994

>  <SCORE.INTRA.POLAR>
0

>  <SCORE.INTRA.POLAR.0>
0

>  <SCORE.INTRA.REPUL>
0

>  <SCORE.INTRA.REPUL.0>
0

>  <SCORE.INTRA.SOLV>
0.281509

>  <SCORE.INTRA.SOLV.lig_0>
-117.703

>  <SCORE.INTRA.VDW>
-0.537765

>  <SCORE.INTRA.VDW.0>
-1.59997

>  <SCORE.INTRA.norm>
-0.00705516

>  <SCORE.RESTR>
0.0276039

>  <SCORE.RESTR.CAVITY>
0.0276039

>  <SCORE.RESTR.norm>
0.000627361

>  <SCORE.SYSTEM>
0

>  <SCORE.SYSTEM.CONST>
0

>  <SCORE.SYSTEM.DIHEDRAL>
0

>  <SCORE.SYSTEM.SOLV>
0

>  <SCORE.SYSTEM.norm>
0

>  <SCORE.heavy>
44

>  <SCORE.norm>
-0.261534

>  <RMSD>
6.587

$$$$
ligand
 OpenBabel11021811513D
libRbt.so/2013.1/901 2013/11/27
 44 50  0  0  0  0  0  0  0  0999 V2000
   -5.7060   36.9859  -18.0544 P   0  0  2  0  0  0  0  0  0  0  0  0
   -4.9940   33.2137  -14.2506 P   0  0  1  0  0  0  0  0  0  0  0  0
   -5.0124   37.0363  -19.4134 O   0  5  0  0  0  0  0  0  0  0  0  0
   -4.9165   33.9813  -12.9533 O   0  5  0  0  0  0  0  0  0  0  0  0
   -6.0716   38.4115  -17.7174 O   0  0  0  0  0  0  0  0  0  0  0  0
   -5.1670   31.7200  -13.8929 O   0  0  0  0  0  0  0  0  0  0  0  0
   -3.7296   35.4371  -17.6857 C   0  0  0  0  0  0  0  0  0  0  0  0
   -6.3384   33.4167  -16.4459 C   0  0  0  0  0  0  0  0  0  0  0  0
   -4.6539   36.3549  -17.0861 O   0  0  0  0  0  0  0  0  0  0  0  0
   -6.1897   33.9555  -15.1020 O   0  0  0  0  0  0  0  0  0  0  0  0
   -2.7355   34.9365  -16.6432 C   0  0  1  0  0  0  0  0  0  0  0  0
   -7.5985   34.1283  -17.0683 C   0  0  1  0  0  0  0  0  0  0  0  0
   -1.7723   35.8007  -16.5553 O   0  0  0  0  0  0  0  0  0  0  0  0
   -8.5228   33.9808  -16.2092 O   0  0  0  0  0  0  0  0  0  0  0  0
   -3.3335   34.8121  -15.2607 C   0  0  1  0  0  0  0  0  0  0  0  0
   -7.4093   35.6581  -17.0990 C   0  0  1  0  0  0  0  0  0  0  0  0
   -3.6264   33.4967  -15.0807 O   0  0  0  0  0  0  0  0  0  0  0  0
   -7.0726   36.0837  -18.3227 O   0  0  0  0  0  0  0  0  0  0  0  0
   -2.1614   35.2439  -14.3121 C   0  0  1  0  0  0  0  0  0  0  0  0
   -8.7438   36.2860  -16.6363 C   0  0  1  0  0  0  0  0  0  0  0  0
   -1.5179   34.0424  -13.7155 O   0  0  0  0  0  0  0  0  0  0  0  0
   -9.5166   36.8016  -17.8119 O   0  0  0  0  0  0  0  0  0  0  0  0
   -1.3216   35.9087  -15.0391 C   0  0  2  0  0  0  0  0  0  0  0  0
   -9.3922   35.3187  -16.0840 C   0  0  2  0  0  0  0  0  0  0  0  0
   -3.3057   40.8600  -14.4317 N   0  0  0  0  0  0  0  0  0  0  0  0
   -3.9687   39.7990  -14.9718 C   0  0  0  0  0  0  0  0  0  0  0  0
   -3.3710   38.5692  -15.0817 N   0  0  0  0  0  0  0  0  0  0  0  0
   -2.0856   38.4144  -14.6412 C   0  0  0  0  0  0  0  0  0  0  0  0
   -1.4182   39.4504  -14.1143 C   0  0  0  0  0  0  0  0  0  0  0  0
   -2.0362   40.6943  -13.9977 C   0  0  0  0  0  0  0  0  0  0  0  0
   -1.4478   41.8582  -13.4646 N   0  0  0  0  0  0  0  0  0  0  0  0
   -0.1889   39.0159  -13.7647 N   0  0  0  0  0  0  0  0  0  0  0  0
   -0.1032   37.6947  -14.0906 C   0  0  0  0  0  0  0  0  0  0  0  0
   -1.2767   37.3177  -14.6149 N   0  0  0  0  0  0  0  0  0  0  0  0
   -8.0211   37.6232  -11.6197 N   0  0  0  0  0  0  0  0  0  0  0  0
   -7.3691   37.6997  -12.8094 C   0  0  0  0  0  0  0  0  0  0  0  0
   -7.8589   37.0248  -13.8919 N   0  0  0  0  0  0  0  0  0  0  0  0
   -8.9952   36.2852  -13.7816 C   0  0  0  0  0  0  0  0  0  0  0  0
   -9.6500   36.2083  -12.6053 C   0  0  0  0  0  0  0  0  0  0  0  0
   -9.1420   36.8957  -11.5068 C   0  0  0  0  0  0  0  0  0  0  0  0
   -9.6609   36.9395  -10.1638 N   0  0  0  0  0  0  0  0  0  0  0  0
  -10.7286   35.4107  -12.7936 N   0  0  0  0  0  0  0  0  0  0  0  0
  -10.7361   35.0021  -14.0947 C   0  0  0  0  0  0  0  0  0  0  0  0
   -9.6620   35.5506  -14.6978 N   0  0  0  0  0  0  0  0  0  0  0  0
  1  3  1  6  0  0  0
  1  5  2  0  0  0  0
  1  9  1  0  0  0  0
  1 18  1  0  0  0  0
  2  4  1  1  0  0  0
  2  6  2  0  0  0  0
  2 10  1  0  0  0  0
  2 17  1  0  0  0  0
  7  9  1  0  0  0  0
  8 10  1  0  0  0  0
 11  7  1  6  0  0  0
 11 13  1  0  0  0  0
 11 15  1  0  0  0  0
 12  8  1  1  0  0  0
 12 14  1  0  0  0  0
 12 16  1  0  0  0  0
 13 23  1  0  0  0  0
 14 24  1  0  0  0  0
 15 17  1  1  0  0  0
 15 19  1  0  0  0  0
 16 18  1  6  0  0  0
 16 20  1  0  0  0  0
 19 21  1  6  0  0  0
 19 23  1  0  0  0  0
 20 22  1  6  0  0  0
 20 24  1  0  0  0  0
 23 34  1  1  0  0  0
 24 44  1  1  0  0  0
 25 26  2  0  0  0  0
 25 30  1  0  0  0  0
 26 27  1  0  0  0  0
 27 28  2  0  0  0  0
 28 29  1  0  0  0  0
 28 34  1  0  0  0  0
 29 30  2  0  0  0  0
 29 32  1  0  0  0  0
 30 31  1  0  0  0  0
 32 33  2  0  0  0  0
 33 34  1  0  0  0  0
 35 36  2  0  0  0  0
 35 40  1  0  0  0  0
 36 37  1  0  0  0  0
 37 38  2  0  0  0  0
 38 39  1  0  0  0  0
 38 44  1  0  0  0  0
 39 40  2  0  0  0  0
 39 42  1  0  0  0  0
 40 41  1  0  0  0  0
 42 43  2  0  0  0  0
 43 44  1  0  0  0  0
M  CHG  2   3  -1   4  -1
M  END
>  <CHROM.1>
50.90418396,92.79037344,-5.41127553,36.24892286,-15.12310595,-0.24621028
-0.23657613,-2.47859558

>  <Name>
ligand

>  <RI>
0

>  <Rbt.Current_Directory>
/home/itssahil/PROJECTS/Mol_Feturizer/New_Systems/rnas/4QLM

>  <Rbt.Executable>
rbdock ($Id: //depot/dev/client3/rdock/2013.1/src/exe/rbdock.cxx#4 $)

>  <Rbt.Library>
libRbt.so (2013.1, Build901 2013/11/27)

>  <Rbt.Parameter_File>
/export/apps/rDock/src/rDock_2013.1_src/data/scripts/dock_solv.prm

>  <Rbt.Receptor>
prm/pocket_docking_7.prm

>  <SCORE>
-13.1942

>  <SCORE.INTER>
-11.9619

>  <SCORE.INTER.CONST>
1

>  <SCORE.INTER.POLAR>
0

>  <SCORE.INTER.ROT>
2

>  <SCORE.INTER.SOLV>
29.0933

>  <SCORE.INTER.VDW>
-22.6057

>  <SCORE.INTER.norm>
-0.271861

>  <SCORE.INTRA>
-1.23231

>  <SCORE.INTRA.DIHEDRAL>
0.120508

>  <SCORE.INTRA.DIHEDRAL.0>
2.32994

>  <SCORE.INTRA.POLAR>
0

>  <SCORE.INTRA.POLAR.0>
0

>  <SCORE.INTRA.REPUL>
0

>  <SCORE.INTRA.REPUL.0>
0

>  <SCORE.INTRA.SOLV>
0.272582

>  <SCORE.INTRA.SOLV.lig_0>
-117.703

>  <SCORE.INTRA.VDW>
-1.42885

>  <SCORE.INTRA.VDW.0>
-1.59997

>  <SCORE.INTRA.norm>
-0.028007

>  <SCORE.RESTR>
0

>  <SCORE.RESTR.CAVITY>
0

>  <SCORE.RESTR.norm>
0

>  <SCORE.SYSTEM>
0

>  <SCORE.SYSTEM.CONST>
0

>  <SCORE.SYSTEM.DIHEDRAL>
0

>  <SCORE.SYSTEM.SOLV>
0

>  <SCORE.SYSTEM.norm>
0

>  <SCORE.heavy>
44

>  <SCORE.norm>
-0.299868

>  <RMSD>
6.605

$$$$
ligand
 OpenBabel11021811513D
libRbt.so/2013.1/901 2013/11/27
 44 50  0  0  0  0  0  0  0  0999 V2000
   -7.7758   33.6911  -12.4418 P   0  0  2  0  0  0  0  0  0  0  0  0
   -4.4476   34.5974  -16.6020 P   0  0  1  0  0  0  0  0  0  0  0  0
   -8.4758   32.3734  -12.1195 O   0  5  0  0  0  0  0  0  0  0  0  0
   -4.8528   35.9501  -17.1350 O   0  5  0  0  0  0  0  0  0  0  0  0
   -8.6358   34.7794  -11.8457 O   0  0  0  0  0  0  0  0  0  0  0  0
   -3.0904   34.2355  -17.2469 O   0  0  0  0  0  0  0  0  0  0  0  0
   -7.6055   32.4586  -14.6538 C   0  0  0  0  0  0  0  0  0  0  0  0
   -4.2614   33.5048  -14.2697 C   0  0  0  0  0  0  0  0  0  0  0  0
   -7.6902   33.7329  -14.0018 O   0  0  0  0  0  0  0  0  0  0  0  0
   -4.5164   34.7570  -14.9666 O   0  0  0  0  0  0  0  0  0  0  0  0
   -7.5762   32.6438  -16.1672 C   0  0  1  0  0  0  0  0  0  0  0  0
   -4.2250   33.8553  -12.7343 C   0  0  1  0  0  0  0  0  0  0  0  0
   -8.7997   32.7420  -16.5863 O   0  0  0  0  0  0  0  0  0  0  0  0
   -3.4117   34.8260  -12.6332 O   0  0  0  0  0  0  0  0  0  0  0  0
   -6.8674   33.9067  -16.5996 C   0  0  1  0  0  0  0  0  0  0  0  0
   -5.5573   34.4845  -12.2802 C   0  0  1  0  0  0  0  0  0  0  0  0
   -5.6176   33.5380  -16.9872 O   0  0  0  0  0  0  0  0  0  0  0  0
   -6.3253   33.5934  -11.6416 O   0  0  0  0  0  0  0  0  0  0  0  0
   -7.7006   34.3915  -17.8369 C   0  0  1  0  0  0  0  0  0  0  0  0
   -5.2023   35.6762  -11.3620 C   0  0  1  0  0  0  0  0  0  0  0  0
   -6.9983   34.0323  -19.0983 O   0  0  0  0  0  0  0  0  0  0  0  0
   -5.3962   35.3058   -9.9231 O   0  0  0  0  0  0  0  0  0  0  0  0
   -8.8518   33.8043  -17.7620 C   0  0  2  0  0  0  0  0  0  0  0  0
   -3.9538   35.9064  -11.5842 C   0  0  2  0  0  0  0  0  0  0  0  0
  -11.0700   38.0555  -15.3477 N   0  0  0  0  0  0  0  0  0  0  0  0
   -9.8211   37.5665  -15.1064 C   0  0  0  0  0  0  0  0  0  0  0  0
   -9.3448   36.4709  -15.7803 N   0  0  0  0  0  0  0  0  0  0  0  0
  -10.1451   35.8626  -16.7076 C   0  0  0  0  0  0  0  0  0  0  0  0
  -11.3784   36.3276  -16.9507 C   0  0  0  0  0  0  0  0  0  0  0  0
  -11.8511   37.4472  -16.2683 C   0  0  0  0  0  0  0  0  0  0  0  0
  -13.1220   38.0333  -16.4304 N   0  0  0  0  0  0  0  0  0  0  0  0
  -11.9341   35.5484  -17.9028 N   0  0  0  0  0  0  0  0  0  0  0  0
  -11.0268   34.5881  -18.2402 C   0  0  0  0  0  0  0  0  0  0  0  0
   -9.9173   34.7903  -17.5176 N   0  0  0  0  0  0  0  0  0  0  0  0
   -5.8540   40.1703  -13.8926 N   0  0  0  0  0  0  0  0  0  0  0  0
   -6.5466   39.0527  -13.5497 C   0  0  0  0  0  0  0  0  0  0  0  0
   -5.8941   38.0111  -12.9526 N   0  0  0  0  0  0  0  0  0  0  0  0
   -4.5604   38.0938  -12.6977 C   0  0  0  0  0  0  0  0  0  0  0  0
   -3.8676   39.2015  -13.0311 C   0  0  0  0  0  0  0  0  0  0  0  0
   -4.5393   40.2562  -13.6425 C   0  0  0  0  0  0  0  0  0  0  0  0
   -4.0015   41.5130  -14.0965 N   0  0  0  0  0  0  0  0  0  0  0  0
   -2.5793   38.9991  -12.6644 N   0  0  0  0  0  0  0  0  0  0  0  0
   -2.4855   37.7620  -12.0982 C   0  0  0  0  0  0  0  0  0  0  0  0
   -3.7162   37.2117  -12.1208 N   0  0  0  0  0  0  0  0  0  0  0  0
  1  3  1  1  0  0  0
  1  5  2  0  0  0  0
  1  9  1  0  0  0  0
  1 18  1  0  0  0  0
  2  4  1  6  0  0  0
  2  6  2  0  0  0  0
  2 10  1  0  0  0  0
  2 17  1  0  0  0  0
  7  9  1  0  0  0  0
  8 10  1  0  0  0  0
 11  7  1  1  0  0  0
 11 13  1  0  0  0  0
 11 15  1  0  0  0  0
 12  8  1  6  0  0  0
 12 14  1  0  0  0  0
 12 16  1  0  0  0  0
 13 23  1  0  0  0  0
 14 24  1  0  0  0  0
 15 17  1  6  0  0  0
 15 19  1  0  0  0  0
 16 18  1  1  0  0  0
 16 20  1  0  0  0  0
 19 21  1  6  0  0  0
 19 23  1  0  0  0  0
 20 22  1  1  0  0  0
 20 24  1  0  0  0  0
 23 34  1  1  0  0  0
 24 44  1  6  0  0  0
 25 26  2  0  0  0  0
 25 30  1  0  0  0  0
 26 27  1  0  0  0  0
 27 28  2  0  0  0  0
 28 29  1  0  0  0  0
 28 34  1  0  0  0  0
 29 30  2  0  0  0  0
 29 32  1  0  0  0  0
 30 31  1  0  0  0  0
 32 33  2  0  0  0  0
 33 34  1  0  0  0  0
 35 36  2  0  0  0  0
 35 40  1  0  0  0  0
 36 37  1  0  0  0  0
 37 38  2  0  0  0  0
 38 39  1  0  0  0  0
 38 44  1  0  0  0  0
 39 40  2  0  0  0  0
 39 42  1  0  0  0  0
 40 41  1  0  0  0  0
 42 43  2  0  0  0  0
 43 44  1  0  0  0  0
M  CHG  2   3  -1   4  -1
M  END
>  <CHROM.1>
74.28609533,103.50884513,-6.77085664,35.58244118,-14.65309016,-2.75404706
-0.54936386,0.25091327

>  <Name>
ligand

>  <RI>
0

>  <Rbt.Current_Directory>
/home/itssahil/PROJECTS/Mol_Feturizer/New_Systems/rnas/4QLM

>  <Rbt.Executable>
rbdock ($Id: //depot/dev/client3/rdock/2013.1/src/exe/rbdock.cxx#4 $)

>  <Rbt.Library>
libRbt.so (2013.1, Build901 2013/11/27)

>  <Rbt.Parameter_File>
/export/apps/rDock/src/rDock_2013.1_src/data/scripts/dock_solv.prm

>  <Rbt.Receptor>
prm/pocket_docking_6.prm

>  <SCORE>
-6.10071

>  <SCORE.INTER>
-5.42827

>  <SCORE.INTER.CONST>
1

>  <SCORE.INTER.POLAR>
0

>  <SCORE.INTER.ROT>
2

>  <SCORE.INTER.SOLV>
24.834

>  <SCORE.INTER.VDW>
-16.8302

>  <SCORE.INTER.norm>
-0.12337

>  <SCORE.INTRA>
-0.680492

>  <SCORE.INTRA.DIHEDRAL>
0.000782834

>  <SCORE.INTRA.DIHEDRAL.0>
2.32994

>  <SCORE.INTRA.POLAR>
0

>  <SCORE.INTRA.POLAR.0>
0

>  <SCORE.INTRA.REPUL>
0

>  <SCORE.INTRA.REPUL.0>
0

>  <SCORE.INTRA.SOLV>
0.0238839

>  <SCORE.INTRA.SOLV.lig_0>
-117.703

>  <SCORE.INTRA.VDW>
-0.692826

>  <SCORE.INTRA.VDW.0>
-1.59997

>  <SCORE.INTRA.norm>
-0.0154657

>  <SCORE.RESTR>
0.00805509

>  <SCORE.RESTR.CAVITY>
0.00805509

>  <SCORE.RESTR.norm>
0.00018307

>  <SCORE.SYSTEM>
0

>  <SCORE.SYSTEM.CONST>
0

>  <SCORE.SYSTEM.DIHEDRAL>
0

>  <SCORE.SYSTEM.SOLV>
0

>  <SCORE.SYSTEM.norm>
0

>  <SCORE.heavy>
44

>  <SCORE.norm>
-0.138652

>  <RMSD>
6.608

$$$$
ligand
 OpenBabel11021811513D
libRbt.so/2013.1/901 2013/11/27
 44 50  0  0  0  0  0  0  0  0999 V2000
   -6.9499   37.0510  -11.5317 P   0  0  2  0  0  0  0  0  0  0  0  0
   -6.6707   36.8616  -16.9253 P   0  0  1  0  0  0  0  0  0  0  0  0
   -5.7797   36.8961  -10.5636 O   0  5  0  0  0  0  0  0  0  0  0  0
   -7.8598   36.0329  -17.3462 O   0  5  0  0  0  0  0  0  0  0  0  0
   -8.1817   36.6194  -10.7727 O   0  0  0  0  0  0  0  0  0  0  0  0
   -6.1124   37.5448  -18.1945 O   0  0  0  0  0  0  0  0  0  0  0  0
   -5.1976   35.9579  -13.0067 C   0  0  0  0  0  0  0  0  0  0  0  0
   -6.1914   38.6185  -15.0945 C   0  0  0  0  0  0  0  0  0  0  0  0
   -6.5968   36.1302  -12.7441 O   0  0  0  0  0  0  0  0  0  0  0  0
   -7.2370   37.8154  -15.7111 O   0  0  0  0  0  0  0  0  0  0  0  0
   -4.9967   35.0040  -14.1794 C   0  0  1  0  0  0  0  0  0  0  0  0
   -6.9138   39.5640  -14.0622 C   0  0  1  0  0  0  0  0  0  0  0  0
   -5.0287   33.7902  -13.7231 O   0  0  0  0  0  0  0  0  0  0  0  0
   -7.8504   40.1188  -14.7172 O   0  0  0  0  0  0  0  0  0  0  0  0
   -6.0860   35.1037  -15.2223 C   0  0  1  0  0  0  0  0  0  0  0  0
   -7.6820   38.7439  -13.0066 C   0  0  1  0  0  0  0  0  0  0  0  0
   -5.5893   35.8672  -16.2316 O   0  0  0  0  0  0  0  0  0  0  0  0
   -7.0060   38.6780  -11.8531 O   0  0  0  0  0  0  0  0  0  0  0  0
   -6.2737   33.6221  -15.7017 C   0  0  1  0  0  0  0  0  0  0  0  0
   -9.0528   39.4313  -12.8127 C   0  0  1  0  0  0  0  0  0  0  0  0
   -5.5861   33.4157  -17.0048 O   0  0  0  0  0  0  0  0  0  0  0  0
   -9.0614   40.2376  -11.5498 O   0  0  0  0  0  0  0  0  0  0  0  0
   -5.7639   32.8672  -14.7820 C   0  0  2  0  0  0  0  0  0  0  0  0
   -9.1770   40.2166  -13.8271 C   0  0  2  0  0  0  0  0  0  0  0  0
  -10.1805   29.8173  -14.6716 N   0  0  0  0  0  0  0  0  0  0  0  0
   -9.5833   30.3106  -15.7928 C   0  0  0  0  0  0  0  0  0  0  0  0
   -8.4520   31.0823  -15.7139 N   0  0  0  0  0  0  0  0  0  0  0  0
   -7.9220   31.3591  -14.4840 C   0  0  0  0  0  0  0  0  0  0  0  0
   -8.5022   30.8870  -13.3718 C   0  0  0  0  0  0  0  0  0  0  0  0
   -9.6461   30.0957  -13.4615 C   0  0  0  0  0  0  0  0  0  0  0  0
  -10.3490   29.5400  -12.3742 N   0  0  0  0  0  0  0  0  0  0  0  0
   -7.7736   31.3056  -12.3154 N   0  0  0  0  0  0  0  0  0  0  0  0
   -6.7360   32.0513  -12.7913 C   0  0  0  0  0  0  0  0  0  0  0  0
   -6.8155   32.0712  -14.1282 N   0  0  0  0  0  0  0  0  0  0  0  0
  -11.8002   36.6018  -16.5053 N   0  0  0  0  0  0  0  0  0  0  0  0
  -10.6477   36.4222  -15.8084 C   0  0  0  0  0  0  0  0  0  0  0  0
  -10.0782   37.4826  -15.1613 N   0  0  0  0  0  0  0  0  0  0  0  0
  -10.6639   38.7094  -15.2093 C   0  0  0  0  0  0  0  0  0  0  0  0
  -11.8101   38.8940  -15.8951 C   0  0  0  0  0  0  0  0  0  0  0  0
  -12.3812   37.8095  -16.5545 C   0  0  0  0  0  0  0  0  0  0  0  0
  -13.5792   37.7813  -17.3539 N   0  0  0  0  0  0  0  0  0  0  0  0
  -12.1517   40.1988  -15.7692 N   0  0  0  0  0  0  0  0  0  0  0  0
  -11.2112   40.8142  -14.9969 C   0  0  0  0  0  0  0  0  0  0  0  0
  -10.2973   39.8843  -14.6533 N   0  0  0  0  0  0  0  0  0  0  0  0
  1  3  1  1  0  0  0
  1  5  2  0  0  0  0
  1  9  1  0  0  0  0
  1 18  1  0  0  0  0
  2  4  1  6  0  0  0
  2  6  2  0  0  0  0
  2 10  1  0  0  0  0
  2 17  1  0  0  0  0
  7  9  1  0  0  0  0
  8 10  1  0  0  0  0
 11  7  1  1  0  0  0
 11 13  1  0  0  0  0
 11 15  1  0  0  0  0
 12  8  1  6  0  0  0
 12 14  1  0  0  0  0
 12 16  1  0  0  0  0
 13 23  1  0  0  0  0
 14 24  1  0  0  0  0
 15 17  1  6  0  0  0
 15 19  1  0  0  0  0
 16 18  1  1  0  0  0
 16 20  1  0  0  0  0
 19 21  1  6  0  0  0
 19 23  1  0  0  0  0
 20 22  1  1  0  0  0
 20 24  1  0  0  0  0
 23 34  1  1  0  0  0
 24 44  1  6  0  0  0
 25 26  2  0  0  0  0
 25 30  1  0  0  0  0
 26 27  1  0  0  0  0
 27 28  2  0  0  0  0
 28 29  1  0  0  0  0
 28 34  1  0  0  0  0
 29 30  2  0  0  0  0
 29 32  1  0  0  0  0
 30 31  1  0  0  0  0
 32 33  2  0  0  0  0
 33 34  1  0  0  0  0
 35 36  2  0  0  0  0
 35 40  1  0  0  0  0
 36 37  1  0  0  0  0
 37 38  2  0  0  0  0
 38 39  1  0  0  0  0
 38 44  1  0  0  0  0
 39 40  2  0  0  0  0
 39 42  1  0  0  0  0
 40 41  1  0  0  0  0
 42 43  2  0  0  0  0
 43 44  1  0  0  0  0
M  CHG  2   3  -1   4  -1
M  END
>  <CHROM.1>
162.32530543,68.68364450,-8.09481870,36.01197818,-14.45874538,-1.83208176
0.56423058,-3.05862051

>  <Name>
ligand

>  <RI>
0

>  <Rbt.Current_Directory>
/home/itssahil/PROJECTS/Mol_Feturizer/New_Systems/rnas/4QLM

>  <Rbt.Executable>
rbdock ($Id: //depot/dev/client3/rdock/2013.1/src/exe/rbdock.cxx#4 $)

>  <Rbt.Library>
libRbt.so (2013.1, Build901 2013/11/27)

>  <Rbt.Parameter_File>
/export/apps/rDock/src/rDock_2013.1_src/data/scripts/dock_solv.prm

>  <Rbt.Receptor>
prm/pocket_docking_8.prm

>  <SCORE>
-12.0306

>  <SCORE.INTER>
-11.4575

>  <SCORE.INTER.CONST>
1

>  <SCORE.INTER.POLAR>
0

>  <SCORE.INTER.ROT>
2

>  <SCORE.INTER.SOLV>
25.8903

>  <SCORE.INTER.VDW>
-21.2018

>  <SCORE.INTER.norm>
-0.260399

>  <SCORE.INTRA>
-0.57308

>  <SCORE.INTRA.DIHEDRAL>
0.152539

>  <SCORE.INTRA.DIHEDRAL.0>
2.32994

>  <SCORE.INTRA.POLAR>
0

>  <SCORE.INTRA.POLAR.0>
0

>  <SCORE.INTRA.REPUL>
0

>  <SCORE.INTRA.REPUL.0>
0

>  <SCORE.INTRA.SOLV>
0.600813

>  <SCORE.INTRA.SOLV.lig_0>
-117.703

>  <SCORE.INTRA.VDW>
-0.949756

>  <SCORE.INTRA.VDW.0>
-1.59997

>  <SCORE.INTRA.norm>
-0.0130246

>  <SCORE.RESTR>
0

>  <SCORE.RESTR.CAVITY>
0

>  <SCORE.RESTR.norm>
0

>  <SCORE.SYSTEM>
0

>  <SCORE.SYSTEM.CONST>
0

>  <SCORE.SYSTEM.DIHEDRAL>
0

>  <SCORE.SYSTEM.SOLV>
0

>  <SCORE.SYSTEM.norm>
0

>  <SCORE.heavy>
44

>  <SCORE.norm>
-0.273423

>  <RMSD>
6.608

$$$$
ligand
 OpenBabel11021811513D
libRbt.so/2013.1/901 2013/11/27
 44 50  0  0  0  0  0  0  0  0999 V2000
   -5.2642   32.7238  -13.6687 P   0  0  2  0  0  0  0  0  0  0  0  0
   -5.0641   37.6059  -15.9774 P   0  0  1  0  0  0  0  0  0  0  0  0
   -4.7417   31.4215  -14.2700 O   0  5  0  0  0  0  0  0  0  0  0  0
   -6.4153   38.2200  -15.7032 O   0  5  0  0  0  0  0  0  0  0  0  0
   -6.3596   32.3315  -12.7066 O   0  0  0  0  0  0  0  0  0  0  0  0
   -4.1392   38.7350  -16.4862 O   0  0  0  0  0  0  0  0  0  0  0  0
   -5.0772   33.3258  -16.1271 C   0  0  0  0  0  0  0  0  0  0  0  0
   -3.4235   36.0856  -14.6869 C   0  0  0  0  0  0  0  0  0  0  0  0
   -5.7626   33.5621  -14.8899 O   0  0  0  0  0  0  0  0  0  0  0  0
   -4.6633   36.8404  -14.5781 O   0  0  0  0  0  0  0  0  0  0  0  0
   -5.6927   34.1696  -17.2382 C   0  0  1  0  0  0  0  0  0  0  0  0
   -3.1140   35.5373  -13.2429 C   0  0  1  0  0  0  0  0  0  0  0  0
   -6.7126   33.5265  -17.7164 O   0  0  0  0  0  0  0  0  0  0  0  0
   -3.1868   36.5499  -12.4792 O   0  0  0  0  0  0  0  0  0  0  0  0
   -6.2101   35.5051  -16.7555 C   0  0  1  0  0  0  0  0  0  0  0  0
   -4.2650   34.6477  -12.7320 C   0  0  1  0  0  0  0  0  0  0  0  0
   -5.2651   36.4278  -17.0779 O   0  0  0  0  0  0  0  0  0  0  0  0
   -3.9651   33.3481  -12.8464 O   0  0  0  0  0  0  0  0  0  0  0  0
   -7.5050   35.7297  -17.6116 C   0  0  1  0  0  0  0  0  0  0  0  0
   -4.5133   35.0363  -11.2567 C   0  0  1  0  0  0  0  0  0  0  0  0
   -7.2254   36.6805  -18.7213 O   0  0  0  0  0  0  0  0  0  0  0  0
   -3.9088   34.0192  -10.3374 O   0  0  0  0  0  0  0  0  0  0  0  0
   -7.8529   34.5699  -18.0694 C   0  0  2  0  0  0  0  0  0  0  0  0
   -3.9126   36.1664  -11.1052 C   0  0  2  0  0  0  0  0  0  0  0  0
  -11.1106   31.2304  -15.4131 N   0  0  0  0  0  0  0  0  0  0  0  0
   -9.7846   31.0250  -15.6511 C   0  0  0  0  0  0  0  0  0  0  0  0
   -9.0363   31.9442  -16.3415 N   0  0  0  0  0  0  0  0  0  0  0  0
   -9.6401   33.0831  -16.7981 C   0  0  0  0  0  0  0  0  0  0  0  0
  -10.9450   33.2957  -16.5781 C   0  0  0  0  0  0  0  0  0  0  0  0
  -11.6960   32.3610  -15.8674 C   0  0  0  0  0  0  0  0  0  0  0  0
  -13.0692   32.4644  -15.5695 N   0  0  0  0  0  0  0  0  0  0  0  0
  -11.2689   34.4851  -17.1282 N   0  0  0  0  0  0  0  0  0  0  0  0
  -10.1441   35.0026  -17.6994 C   0  0  0  0  0  0  0  0  0  0  0  0
   -9.1354   34.1486  -17.4821 N   0  0  0  0  0  0  0  0  0  0  0  0
   -6.2443   40.6242  -12.4511 N   0  0  0  0  0  0  0  0  0  0  0  0
   -5.3643   39.9076  -13.1984 C   0  0  0  0  0  0  0  0  0  0  0  0
   -4.8331   38.7542  -12.6937 N   0  0  0  0  0  0  0  0  0  0  0  0
   -5.1869   38.3223  -11.4532 C   0  0  0  0  0  0  0  0  0  0  0  0
   -6.0630   39.0259  -10.7078 C   0  0  0  0  0  0  0  0  0  0  0  0
   -6.5962   40.2016  -11.2280 C   0  0  0  0  0  0  0  0  0  0  0  0
   -7.5239   41.1119  -10.6070 N   0  0  0  0  0  0  0  0  0  0  0  0
   -6.2197   38.3652   -9.5356 N   0  0  0  0  0  0  0  0  0  0  0  0
   -5.4384   37.2478   -9.5671 C   0  0  0  0  0  0  0  0  0  0  0  0
   -4.8063   37.2288  -10.7580 N   0  0  0  0  0  0  0  0  0  0  0  0
  1  3  1  6  0  0  0
  1  5  2  0  0  0  0
  1  9  1  0  0  0  0
  1 18  1  0  0  0  0
  2  4  1  1  0  0  0
  2  6  2  0  0  0  0
  2 10  1  0  0  0  0
  2 17  1  0  0  0  0
  7  9  1  0  0  0  0
  8 10  1  0  0  0  0
 11  7  1  1  0  0  0
 11 13  1  0  0  0  0
 11 15  1  0  0  0  0
 12  8  1  6  0  0  0
 12 14  1  0  0  0  0
 12 16  1  0  0  0  0
 13 23  1  0  0  0  0
 14 24  1  0  0  0  0
 15 17  1  6  0  0  0
 15 19  1  0  0  0  0
 16 18  1  1  0  0  0
 16 20  1  0  0  0  0
 19 21  1  6  0  0  0
 19 23  1  0  0  0  0
 20 22  1  1  0  0  0
 20 24  1  0  0  0  0
 23 34  1  1  0  0  0
 24 44  1  6  0  0  0
 25 26  2  0  0  0  0
 25 30  1  0  0  0  0
 26 27  1  0  0  0  0
 27 28  2  0  0  0  0
 28 29  1  0  0  0  0
 28 34  1  0  0  0  0
 29 30  2  0  0  0  0
 29 32  1  0  0  0  0
 30 31  1  0  0  0  0
 32 33  2  0  0  0  0
 33 34  1  0  0  0  0
 35 36  2  0  0  0  0
 35 40  1  0  0  0  0
 36 37  1  0  0  0  0
 37 38  2  0  0  0  0
 38 39  1  0  0  0  0
 38 44  1  0  0  0  0
 39 40  2  0  0  0  0
 39 42  1  0  0  0  0
 40 41  1  0  0  0  0
 42 43  2  0  0  0  0
 43 44  1  0  0  0  0
M  CHG  2   3  -1   4  -1
M  END
>  <CHROM.1>
-5.38078721,8.08999921,-6.39698868,35.47209885,-14.43692136,-2.58398684,-0.87438609
-0.11082661

>  <Name>
ligand

>  <RI>
0

>  <Rbt.Current_Directory>
/home/itssahil/PROJECTS/Mol_Feturizer/New_Systems/rnas/4QLM

>  <Rbt.Executable>
rbdock ($Id: //depot/dev/client3/rdock/2013.1/src/exe/rbdock.cxx#4 $)

>  <Rbt.Library>
libRbt.so (2013.1, Build901 2013/11/27)

>  <Rbt.Parameter_File>
/export/apps/rDock/src/rDock_2013.1_src/data/scripts/dock_solv.prm

>  <Rbt.Receptor>
prm/pocket_docking_6.prm

>  <SCORE>
-8.0398

>  <SCORE.INTER>
-8.09064

>  <SCORE.INTER.CONST>
1

>  <SCORE.INTER.POLAR>
0

>  <SCORE.INTER.ROT>
2

>  <SCORE.INTER.SOLV>
25.0952

>  <SCORE.INTER.VDW>
-18.6922

>  <SCORE.INTER.norm>
-0.183878

>  <SCORE.INTRA>
0.0225671

>  <SCORE.INTRA.DIHEDRAL>
0.0454653

>  <SCORE.INTRA.DIHEDRAL.0>
2.32994

>  <SCORE.INTRA.POLAR>
0

>  <SCORE.INTRA.POLAR.0>
0

>  <SCORE.INTRA.REPUL>
0

>  <SCORE.INTRA.REPUL.0>
0

>  <SCORE.INTRA.SOLV>
1.18377

>  <SCORE.INTRA.SOLV.lig_0>
-117.703

>  <SCORE.INTRA.VDW>
-0.59205

>  <SCORE.INTRA.VDW.0>
-1.59997

>  <SCORE.INTRA.norm>
0.000512888

>  <SCORE.RESTR>
0.0282806

>  <SCORE.RESTR.CAVITY>
0.0282806

>  <SCORE.RESTR.norm>
0.00064274

>  <SCORE.SYSTEM>
0

>  <SCORE.SYSTEM.CONST>
0

>  <SCORE.SYSTEM.DIHEDRAL>
0

>  <SCORE.SYSTEM.SOLV>
0

>  <SCORE.SYSTEM.norm>
0

>  <SCORE.heavy>
44

>  <SCORE.norm>
-0.182723

>  <RMSD>
6.611

$$$$
ligand
 OpenBabel11021811513D
libRbt.so/2013.1/901 2013/11/27
 44 50  0  0  0  0  0  0  0  0999 V2000
   -6.2439   32.8588  -13.5805 P   0  0  2  0  0  0  0  0  0  0  0  0
   -6.1770   36.3597  -17.6968 P   0  0  1  0  0  0  0  0  0  0  0  0
   -6.8670   31.4652  -13.5939 O   0  5  0  0  0  0  0  0  0  0  0  0
   -6.4987   37.6964  -17.0741 O   0  5  0  0  0  0  0  0  0  0  0  0
   -6.2552   33.3091  -12.1394 O   0  0  0  0  0  0  0  0  0  0  0  0
   -5.6586   36.6305  -19.1275 O   0  0  0  0  0  0  0  0  0  0  0  0
   -7.7937   33.0028  -15.5851 C   0  0  0  0  0  0  0  0  0  0  0  0
   -4.8267   34.2702  -17.0048 C   0  0  0  0  0  0  0  0  0  0  0  0
   -7.1510   33.7168  -14.5205 O   0  0  0  0  0  0  0  0  0  0  0  0
   -5.1633   35.6342  -16.6241 O   0  0  0  0  0  0  0  0  0  0  0  0
   -8.6800   33.9468  -16.3907 C   0  0  1  0  0  0  0  0  0  0  0  0
   -3.7534   33.7749  -15.9635 C   0  0  1  0  0  0  0  0  0  0  0  0
   -9.8289   34.0299  -15.7946 O   0  0  0  0  0  0  0  0  0  0  0  0
   -2.8607   34.6787  -15.9494 O   0  0  0  0  0  0  0  0  0  0  0  0
   -8.1323   35.3530  -16.4739 C   0  0  1  0  0  0  0  0  0  0  0  0
   -4.3111   33.8311  -14.5272 C   0  0  1  0  0  0  0  0  0  0  0  0
   -7.5336   35.4658  -17.6893 O   0  0  0  0  0  0  0  0  0  0  0  0
   -4.6869   32.6187  -14.1018 O   0  0  0  0  0  0  0  0  0  0  0  0
   -9.4159   36.2524  -16.4134 C   0  0  1  0  0  0  0  0  0  0  0  0
   -3.1939   34.4157  -13.6332 C   0  0  1  0  0  0  0  0  0  0  0  0
   -9.7706   36.7290  -17.7774 O   0  0  0  0  0  0  0  0  0  0  0  0
   -2.5196   33.3262  -12.8562 O   0  0  0  0  0  0  0  0  0  0  0  0
  -10.3598   35.5187  -15.9170 C   0  0  2  0  0  0  0  0  0  0  0  0
   -2.3532   34.9439  -14.4549 C   0  0  2  0  0  0  0  0  0  0  0  0
  -13.2440   38.5754  -12.5763 N   0  0  0  0  0  0  0  0  0  0  0  0
  -13.3797   38.5328  -13.9316 C   0  0  0  0  0  0  0  0  0  0  0  0
  -12.5914   37.7135  -14.6990 N   0  0  0  0  0  0  0  0  0  0  0  0
  -11.6531   36.9304  -14.0852 C   0  0  0  0  0  0  0  0  0  0  0  0
  -11.5029   36.9668  -12.7539 C   0  0  0  0  0  0  0  0  0  0  0  0
  -12.3145   37.7951  -11.9806 C   0  0  0  0  0  0  0  0  0  0  0  0
  -12.2586   37.9254  -10.5789 N   0  0  0  0  0  0  0  0  0  0  0  0
  -10.5214   36.1006  -12.4245 N   0  0  0  0  0  0  0  0  0  0  0  0
  -10.0607   35.5322  -13.5751 C   0  0  0  0  0  0  0  0  0  0  0  0
  -10.7684   36.0292  -14.5980 N   0  0  0  0  0  0  0  0  0  0  0  0
    0.7313   38.9863  -13.3301 N   0  0  0  0  0  0  0  0  0  0  0  0
    1.0894   37.6763  -13.3742 C   0  0  0  0  0  0  0  0  0  0  0  0
    0.1520   36.7305  -13.6806 N   0  0  0  0  0  0  0  0  0  0  0  0
   -1.1308   37.0978  -13.9454 C   0  0  0  0  0  0  0  0  0  0  0  0
   -1.4923   38.3963  -13.9080 C   0  0  0  0  0  0  0  0  0  0  0  0
   -0.5320   39.3527  -13.5912 C   0  0  0  0  0  0  0  0  0  0  0  0
   -0.6973   40.7790  -13.4760 N   0  0  0  0  0  0  0  0  0  0  0  0
   -2.8120   38.4581  -14.2073 N   0  0  0  0  0  0  0  0  0  0  0  0
   -3.2586   37.1897  -14.4345 C   0  0  0  0  0  0  0  0  0  0  0  0
   -2.2109   36.3563  -14.2731 N   0  0  0  0  0  0  0  0  0  0  0  0
  1  3  1  1  0  0  0
  1  5  2  0  0  0  0
  1  9  1  0  0  0  0
  1 18  1  0  0  0  0
  2  4  1  1  0  0  0
  2  6  2  0  0  0  0
  2 10  1  0  0  0  0
  2 17  1  0  0  0  0
  7  9  1  0  0  0  0
  8 10  1  0  0  0  0
 11  7  1  1  0  0  0
 11 13  1  0  0  0  0
 11 15  1  0  0  0  0
 12  8  1  6  0  0  0
 12 14  1  0  0  0  0
 12 16  1  0  0  0  0
 13 23  1  0  0  0  0
 14 24  1  0  0  0  0
 15 17  1  6  0  0  0
 15 19  1  0  0  0  0
 16 18  1  1  0  0  0
 16 20  1  0  0  0  0
 19 21  1  6  0  0  0
 19 23  1  0  0  0  0
 20 22  1  6  0  0  0
 20 24  1  0  0  0  0
 23 34  1  1  0  0  0
 24 44  1  1  0  0  0
 25 26  2  0  0  0  0
 25 30  1  0  0  0  0
 26 27  1  0  0  0  0
 27 28  2  0  0  0  0
 28 29  1  0  0  0  0
 28 34  1  0  0  0  0
 29 30  2  0  0  0  0
 29 32  1  0  0  0  0
 30 31  1  0  0  0  0
 32 33  2  0  0  0  0
 33 34  1  0  0  0  0
 35 36  2  0  0  0  0
 35 40  1  0  0  0  0
 36 37  1  0  0  0  0
 37 38  2  0  0  0  0
 38 39  1  0  0  0  0
 38 44  1  0  0  0  0
 39 40  2  0  0  0  0
 39 42  1  0  0  0  0
 40 41  1  0  0  0  0
 42 43  2  0  0  0  0
 43 44  1  0  0  0  0
M  CHG  2   3  -1   4  -1
M  END
>  <CHROM.1>
-151.59626580,-120.62064221,-6.31728035,35.82010717,-14.75476134,-3.11793844
0.01043484,0.33055709

>  <Name>
ligand

>  <RI>
0

>  <Rbt.Current_Directory>
/home/itssahil/PROJECTS/Mol_Feturizer/New_Systems/rnas/4QLM

>  <Rbt.Executable>
rbdock ($Id: //depot/dev/client3/rdock/2013.1/src/exe/rbdock.cxx#4 $)

>  <Rbt.Library>
libRbt.so (2013.1, Build901 2013/11/27)

>  <Rbt.Parameter_File>
/export/apps/rDock/src/rDock_2013.1_src/data/scripts/dock_solv.prm

>  <Rbt.Receptor>
prm/pocket_docking_7.prm

>  <SCORE>
-8.66358

>  <SCORE.INTER>
-8.75692

>  <SCORE.INTER.CONST>
1

>  <SCORE.INTER.POLAR>
0

>  <SCORE.INTER.ROT>
2

>  <SCORE.INTER.SOLV>
24.2571

>  <SCORE.INTER.VDW>
-18.857

>  <SCORE.INTER.norm>
-0.199021

>  <SCORE.INTRA>
0.0933392

>  <SCORE.INTRA.DIHEDRAL>
-0.0341377

>  <SCORE.INTRA.DIHEDRAL.0>
2.32994

>  <SCORE.INTRA.POLAR>
0

>  <SCORE.INTRA.POLAR.0>
0

>  <SCORE.INTRA.REPUL>
0

>  <SCORE.INTRA.REPUL.0>
0

>  <SCORE.INTRA.SOLV>
0.00175567

>  <SCORE.INTRA.SOLV.lig_0>
-117.703

>  <SCORE.INTRA.VDW>
0.10953

>  <SCORE.INTRA.VDW.0>
-1.59997

>  <SCORE.INTRA.norm>
0.00212135

>  <SCORE.RESTR>
0

>  <SCORE.RESTR.CAVITY>
0

>  <SCORE.RESTR.norm>
0

>  <SCORE.SYSTEM>
0

>  <SCORE.SYSTEM.CONST>
0

>  <SCORE.SYSTEM.DIHEDRAL>
0

>  <SCORE.SYSTEM.SOLV>
0

>  <SCORE.SYSTEM.norm>
0

>  <SCORE.heavy>
44

>  <SCORE.norm>
-0.1969

>  <RMSD>
6.613

$$$$
ligand
 OpenBabel11021811513D
libRbt.so/2013.1/901 2013/11/27
 44 50  0  0  0  0  0  0  0  0999 V2000
   -3.6755   35.2252  -13.1718 P   0  0  2  0  0  0  0  0  0  0  0  0
   -5.7514   37.2006  -17.7537 P   0  0  1  0  0  0  0  0  0  0  0  0
   -2.5211   34.2326  -13.0609 O   0  5  0  0  0  0  0  0  0  0  0  0
   -7.2462   37.1681  -17.5477 O   0  5  0  0  0  0  0  0  0  0  0  0
   -4.5050   35.0446  -11.9232 O   0  0  0  0  0  0  0  0  0  0  0  0
   -5.4771   38.0661  -19.0046 O   0  0  0  0  0  0  0  0  0  0  0  0
   -3.6043   34.2489  -15.5133 C   0  0  0  0  0  0  0  0  0  0  0  0
   -3.6880   37.6885  -16.2796 C   0  0  0  0  0  0  0  0  0  0  0  0
   -4.4196   34.8352  -14.4897 O   0  0  0  0  0  0  0  0  0  0  0  0
   -5.1432   37.7014  -16.3100 O   0  0  0  0  0  0  0  0  0  0  0  0
   -4.4614   33.8755  -16.7180 C   0  0  1  0  0  0  0  0  0  0  0  0
   -3.2713   38.3199  -14.8979 C   0  0  1  0  0  0  0  0  0  0  0  0
   -4.9759   32.7048  -16.5008 O   0  0  0  0  0  0  0  0  0  0  0  0
   -3.9073   39.4174  -14.8276 O   0  0  0  0  0  0  0  0  0  0  0  0
   -5.6179   34.8221  -16.9432 C   0  0  1  0  0  0  0  0  0  0  0  0
   -3.8603   37.5142  -13.7228 C   0  0  1  0  0  0  0  0  0  0  0  0
   -5.2390   35.6697  -17.9363 O   0  0  0  0  0  0  0  0  0  0  0  0
   -2.9409   36.7131  -13.1708 O   0  0  0  0  0  0  0  0  0  0  0  0
   -6.7716   33.8826  -17.4397 C   0  0  1  0  0  0  0  0  0  0  0  0
   -4.3962   38.5396  -12.6979 C   0  0  1  0  0  0  0  0  0  0  0  0
   -6.9118   33.9826  -18.9175 O   0  0  0  0  0  0  0  0  0  0  0  0
   -3.4451   38.6784  -11.5483 O   0  0  0  0  0  0  0  0  0  0  0  0
   -6.4503   32.6803  -17.0832 C   0  0  2  0  0  0  0  0  0  0  0  0
   -4.4585   39.6533  -13.3436 C   0  0  2  0  0  0  0  0  0  0  0  0
   -8.0761   31.5551  -12.0920 N   0  0  0  0  0  0  0  0  0  0  0  0
   -6.8990   32.1538  -12.4284 C   0  0  0  0  0  0  0  0  0  0  0  0
   -6.5762   32.3997  -13.7387 N   0  0  0  0  0  0  0  0  0  0  0  0
   -7.4560   32.0320  -14.7191 C   0  0  0  0  0  0  0  0  0  0  0  0
   -8.6143   31.4358  -14.4043 C   0  0  0  0  0  0  0  0  0  0  0  0
   -8.9388   31.1981  -13.0697 C   0  0  0  0  0  0  0  0  0  0  0  0
  -10.1187   30.5826  -12.6072 N   0  0  0  0  0  0  0  0  0  0  0  0
   -9.2794   31.1913  -15.5532 N   0  0  0  0  0  0  0  0  0  0  0  0
   -8.5102   31.6395  -16.5860 C   0  0  0  0  0  0  0  0  0  0  0  0
   -7.3940   32.1736  -16.0733 N   0  0  0  0  0  0  0  0  0  0  0  0
   -9.5823   38.7244  -13.4101 N   0  0  0  0  0  0  0  0  0  0  0  0
   -8.5891   37.8035  -13.3013 C   0  0  0  0  0  0  0  0  0  0  0  0
   -7.2855   38.2132  -13.3070 N   0  0  0  0  0  0  0  0  0  0  0  0
   -6.9831   39.5350  -13.4152 C   0  0  0  0  0  0  0  0  0  0  0  0
   -7.9635   40.4549  -13.5190 C   0  0  0  0  0  0  0  0  0  0  0  0
   -9.2885   40.0286  -13.5163 C   0  0  0  0  0  0  0  0  0  0  0  0
  -10.4825   40.8257  -13.6339 N   0  0  0  0  0  0  0  0  0  0  0  0
   -7.3711   41.6694  -13.6136 N   0  0  0  0  0  0  0  0  0  0  0  0
   -6.0200   41.4911  -13.5618 C   0  0  0  0  0  0  0  0  0  0  0  0
   -5.7905   40.1684  -13.4360 N   0  0  0  0  0  0  0  0  0  0  0  0
  1  3  1  1  0  0  0
  1  5  2  0  0  0  0
  1  9  1  0  0  0  0
  1 18  1  0  0  0  0
  2  4  1  1  0  0  0
  2  6  2  0  0  0  0
  2 10  1  0  0  0  0
  2 17  1  0  0  0  0
  7  9  1  0  0  0  0
  8 10  1  0  0  0  0
 11  7  1  1  0  0  0
 11 13  1  0  0  0  0
 11 15  1  0  0  0  0
 12  8  1  6  0  0  0
 12 14  1  0  0  0  0
 12 16  1  0  0  0  0
 13 23  1  0  0  0  0
 14 24  1  0  0  0  0
 15 17  1  6  0  0  0
 15 19  1  0  0  0  0
 16 18  1  1  0  0  0
 16 20  1  0  0  0  0
 19 21  1  6  0  0  0
 19 23  1  0  0  0  0
 20 22  1  1  0  0  0
 20 24  1  0  0  0  0
 23 34  1  1  0  0  0
 24 44  1  6  0  0  0
 25 26  2  0  0  0  0
 25 30  1  0  0  0  0
 26 27  1  0  0  0  0
 27 28  2  0  0  0  0
 28 29  1  0  0  0  0
 28 34  1  0  0  0  0
 29 30  2  0  0  0  0
 29 32  1  0  0  0  0
 30 31  1  0  0  0  0
 32 33  2  0  0  0  0
 33 34  1  0  0  0  0
 35 36  2  0  0  0  0
 35 40  1  0  0  0  0
 36 37  1  0  0  0  0
 37 38  2  0  0  0  0
 38 39  1  0  0  0  0
 38 44  1  0  0  0  0
 39 40  2  0  0  0  0
 39 42  1  0  0  0  0
 40 41  1  0  0  0  0
 42 43  2  0  0  0  0
 43 44  1  0  0  0  0
M  CHG  2   3  -1   4  -1
M  END
>  <CHROM.1>
21.03345051,93.56518246,-6.05485631,36.00429064,-14.78528504,-1.78322763
0.56451132,0.25865288

>  <Name>
ligand

>  <RI>
0

>  <Rbt.Current_Directory>
/home/itssahil/PROJECTS/Mol_Feturizer/New_Systems/rnas/4QLM

>  <Rbt.Executable>
rbdock ($Id: //depot/dev/client3/rdock/2013.1/src/exe/rbdock.cxx#4 $)

>  <Rbt.Library>
libRbt.so (2013.1, Build901 2013/11/27)

>  <Rbt.Parameter_File>
/export/apps/rDock/src/rDock_2013.1_src/data/scripts/dock_solv.prm

>  <Rbt.Receptor>
prm/pocket_docking_6.prm

>  <SCORE>
-14.2044

>  <SCORE.INTER>
-13.3413

>  <SCORE.INTER.CONST>
1

>  <SCORE.INTER.POLAR>
0

>  <SCORE.INTER.ROT>
2

>  <SCORE.INTER.SOLV>
24.7619

>  <SCORE.INTER.VDW>
-22.0815

>  <SCORE.INTER.norm>
-0.303212

>  <SCORE.INTRA>
-0.86302

>  <SCORE.INTRA.DIHEDRAL>
0.177855

>  <SCORE.INTRA.DIHEDRAL.0>
2.32994

>  <SCORE.INTRA.POLAR>
0

>  <SCORE.INTRA.POLAR.0>
0

>  <SCORE.INTRA.REPUL>
0

>  <SCORE.INTRA.REPUL.0>
0

>  <SCORE.INTRA.SOLV>
0.279283

>  <SCORE.INTRA.SOLV.lig_0>
-117.703

>  <SCORE.INTRA.VDW>
-1.09159

>  <SCORE.INTRA.VDW.0>
-1.59997

>  <SCORE.INTRA.norm>
-0.0196141

>  <SCORE.RESTR>
0

>  <SCORE.RESTR.CAVITY>
0

>  <SCORE.RESTR.norm>
0

>  <SCORE.SYSTEM>
0

>  <SCORE.SYSTEM.CONST>
0

>  <SCORE.SYSTEM.DIHEDRAL>
0

>  <SCORE.SYSTEM.SOLV>
0

>  <SCORE.SYSTEM.norm>
0

>  <SCORE.heavy>
44

>  <SCORE.norm>
-0.322827

>  <RMSD>
6.626

$$$$
ligand
 OpenBabel11021811513D
libRbt.so/2013.1/901 2013/11/27
 44 50  0  0  0  0  0  0  0  0999 V2000
   -2.5938   35.6358  -13.6401 P   0  0  2  0  0  0  0  0  0  0  0  0
   -5.5251   37.4703  -17.7931 P   0  0  1  0  0  0  0  0  0  0  0  0
   -1.4218   34.6614  -13.7262 O   0  5  0  0  0  0  0  0  0  0  0  0
   -6.9541   37.4232  -17.3097 O   0  5  0  0  0  0  0  0  0  0  0  0
   -3.1715   35.4750  -12.2545 O   0  0  0  0  0  0  0  0  0  0  0  0
   -5.5051   38.3082  -19.0918 O   0  0  0  0  0  0  0  0  0  0  0  0
   -2.9451   34.6031  -15.9317 C   0  0  0  0  0  0  0  0  0  0  0  0
   -3.2312   38.0214  -16.7432 C   0  0  0  0  0  0  0  0  0  0  0  0
   -3.5645   35.2037  -14.7863 O   0  0  0  0  0  0  0  0  0  0  0  0
   -4.6663   38.0144  -16.5004 O   0  0  0  0  0  0  0  0  0  0  0  0
   -4.0059   34.1889  -16.9458 C   0  0  1  0  0  0  0  0  0  0  0  0
   -2.5742   38.6921  -15.4782 C   0  0  1  0  0  0  0  0  0  0  0  0
   -4.4501   33.0173  -16.6105 O   0  0  0  0  0  0  0  0  0  0  0  0
   -3.2050   39.7825  -15.3137 O   0  0  0  0  0  0  0  0  0  0  0  0
   -5.2006   35.1144  -16.9705 C   0  0  1  0  0  0  0  0  0  0  0  0
   -2.9186   37.9078  -14.1963 C   0  0  1  0  0  0  0  0  0  0  0  0
   -5.0292   35.9422  -18.0352 O   0  0  0  0  0  0  0  0  0  0  0  0
   -1.8982   37.1328  -13.8093 O   0  0  0  0  0  0  0  0  0  0  0  0
   -6.4102   34.1478  -17.2213 C   0  0  1  0  0  0  0  0  0  0  0  0
   -3.2710   38.9511  -13.1115 C   0  0  1  0  0  0  0  0  0  0  0  0
   -6.8263   34.2096  -18.6483 O   0  0  0  0  0  0  0  0  0  0  0  0
   -2.1241   39.1306  -12.1641 O   0  0  0  0  0  0  0  0  0  0  0  0
   -6.0068   32.9591  -16.9054 C   0  0  2  0  0  0  0  0  0  0  0  0
   -3.4726   40.0476  -13.7581 C   0  0  2  0  0  0  0  0  0  0  0  0
  -10.0357   30.4634  -14.3834 N   0  0  0  0  0  0  0  0  0  0  0  0
   -9.8967   30.5838  -15.7337 C   0  0  0  0  0  0  0  0  0  0  0  0
   -8.8254   31.2425  -16.2814 N   0  0  0  0  0  0  0  0  0  0  0  0
   -7.8859   31.7874  -15.4504 C   0  0  0  0  0  0  0  0  0  0  0  0
   -8.0128   31.6834  -14.1202 C   0  0  0  0  0  0  0  0  0  0  0  0
   -9.0995   31.0042  -13.5720 C   0  0  0  0  0  0  0  0  0  0  0  0
   -9.3484   30.8245  -12.1970 N   0  0  0  0  0  0  0  0  0  0  0  0
   -6.9538   32.3002  -13.5541 N   0  0  0  0  0  0  0  0  0  0  0  0
   -6.1723   32.7948  -14.5560 C   0  0  0  0  0  0  0  0  0  0  0  0
   -6.7356   32.4649  -15.7256 N   0  0  0  0  0  0  0  0  0  0  0  0
   -8.5899   39.0815  -13.7485 N   0  0  0  0  0  0  0  0  0  0  0  0
   -7.5927   38.1867  -13.9747 C   0  0  0  0  0  0  0  0  0  0  0  0
   -6.2921   38.6050  -13.9491 N   0  0  0  0  0  0  0  0  0  0  0  0
   -5.9963   39.9078  -13.6930 C   0  0  0  0  0  0  0  0  0  0  0  0
   -6.9804   40.8004  -13.4631 C   0  0  0  0  0  0  0  0  0  0  0  0
   -8.3026   40.3666  -13.4951 C   0  0  0  0  0  0  0  0  0  0  0  0
   -9.5009   41.1417  -13.2994 N   0  0  0  0  0  0  0  0  0  0  0  0
   -6.3945   42.0020  -13.2442 N   0  0  0  0  0  0  0  0  0  0  0  0
   -5.0432   41.8414  -13.3355 C   0  0  0  0  0  0  0  0  0  0  0  0
   -4.8072   40.5426  -13.6103 N   0  0  0  0  0  0  0  0  0  0  0  0
  1  3  1  6  0  0  0
  1  5  2  0  0  0  0
  1  9  1  0  0  0  0
  1 18  1  0  0  0  0
  2  4  1  1  0  0  0
  2  6  2  0  0  0  0
  2 10  1  0  0  0  0
  2 17  1  0  0  0  0
  7  9  1  0  0  0  0
  8 10  1  0  0  0  0
 11  7  1  1  0  0  0
 11 13  1  0  0  0  0
 11 15  1  0  0  0  0
 12  8  1  6  0  0  0
 12 14  1  0  0  0  0
 12 16  1  0  0  0  0
 13 23  1  0  0  0  0
 14 24  1  0  0  0  0
 15 17  1  6  0  0  0
 15 19  1  0  0  0  0
 16 18  1  1  0  0  0
 16 20  1  0  0  0  0
 19 21  1  6  0  0  0
 19 23  1  0  0  0  0
 20 22  1  1  0  0  0
 20 24  1  0  0  0  0
 23 34  1  1  0  0  0
 24 44  1  6  0  0  0
 25 26  2  0  0  0  0
 25 30  1  0  0  0  0
 26 27  1  0  0  0  0
 27 28  2  0  0  0  0
 28 29  1  0  0  0  0
 28 34  1  0  0  0  0
 29 30  2  0  0  0  0
 29 32  1  0  0  0  0
 30 31  1  0  0  0  0
 32 33  2  0  0  0  0
 33 34  1  0  0  0  0
 35 36  2  0  0  0  0
 35 40  1  0  0  0  0
 36 37  1  0  0  0  0
 37 38  2  0  0  0  0
 38 39  1  0  0  0  0
 38 44  1  0  0  0  0
 39 40  2  0  0  0  0
 39 42  1  0  0  0  0
 40 41  1  0  0  0  0
 42 43  2  0  0  0  0
 43 44  1  0  0  0  0
M  CHG  2   3  -1   4  -1
M  END
>  <CHROM.1>
-151.60455743,74.30388965,-5.48620108,36.25503188,-15.04656184,-1.19628787
-0.11483047,-2.95101310

>  <Name>
ligand

>  <RI>
0

>  <Rbt.Current_Directory>
/home/itssahil/PROJECTS/Mol_Feturizer/New_Systems/rnas/4QLM

>  <Rbt.Executable>
rbdock ($Id: //depot/dev/client3/rdock/2013.1/src/exe/rbdock.cxx#4 $)

>  <Rbt.Library>
libRbt.so (2013.1, Build901 2013/11/27)

>  <Rbt.Parameter_File>
/export/apps/rDock/src/rDock_2013.1_src/data/scripts/dock_solv.prm

>  <Rbt.Receptor>
prm/pocket_docking_6.prm

>  <SCORE>
-14.8506

>  <SCORE.INTER>
-14.0683

>  <SCORE.INTER.CONST>
1

>  <SCORE.INTER.POLAR>
0

>  <SCORE.INTER.ROT>
2

>  <SCORE.INTER.SOLV>
24.9783

>  <SCORE.INTER.VDW>
-22.6383

>  <SCORE.INTER.norm>
-0.319733

>  <SCORE.INTRA>
-0.824352

>  <SCORE.INTRA.DIHEDRAL>
-0.0272631

>  <SCORE.INTRA.DIHEDRAL.0>
2.32994

>  <SCORE.INTRA.POLAR>
0

>  <SCORE.INTRA.POLAR.0>
0

>  <SCORE.INTRA.REPUL>
0

>  <SCORE.INTRA.REPUL.0>
0

>  <SCORE.INTRA.SOLV>
0.383198

>  <SCORE.INTRA.SOLV.lig_0>
-117.703

>  <SCORE.INTRA.VDW>
-1.00232

>  <SCORE.INTRA.VDW.0>
-1.59997

>  <SCORE.INTRA.norm>
-0.0187353

>  <SCORE.RESTR>
0.0419928

>  <SCORE.RESTR.CAVITY>
0.0419928

>  <SCORE.RESTR.norm>
0.000954383

>  <SCORE.SYSTEM>
0

>  <SCORE.SYSTEM.CONST>
0

>  <SCORE.SYSTEM.DIHEDRAL>
0

>  <SCORE.SYSTEM.SOLV>
0

>  <SCORE.SYSTEM.norm>
0

>  <SCORE.heavy>
44

>  <SCORE.norm>
-0.337514

>  <RMSD>
6.630

$$$$
ligand
 OpenBabel11021811513D
libRbt.so/2013.1/901 2013/11/27
 44 50  0  0  0  0  0  0  0  0999 V2000
   -6.0867   36.6912  -17.9579 P   0  0  2  0  0  0  0  0  0  0  0  0
   -5.8893   33.3459  -13.7182 P   0  0  1  0  0  0  0  0  0  0  0  0
   -5.3256   36.5264  -19.2709 O   0  5  0  0  0  0  0  0  0  0  0  0
   -5.8096   34.2514  -12.5133 O   0  5  0  0  0  0  0  0  0  0  0  0
   -6.3442   38.1711  -17.8056 O   0  0  0  0  0  0  0  0  0  0  0  0
   -6.2076   31.9230  -13.2053 O   0  0  0  0  0  0  0  0  0  0  0  0
   -4.2714   35.0433  -17.3019 C   0  0  0  0  0  0  0  0  0  0  0  0
   -7.1021   33.3970  -15.9974 C   0  0  0  0  0  0  0  0  0  0  0  0
   -5.1416   36.0959  -16.8647 O   0  0  0  0  0  0  0  0  0  0  0  0
   -6.9736   34.0759  -14.7163 O   0  0  0  0  0  0  0  0  0  0  0  0
   -3.3764   34.5904  -16.1533 C   0  0  1  0  0  0  0  0  0  0  0  0
   -8.2643   34.1292  -16.7687 C   0  0  1  0  0  0  0  0  0  0  0  0
   -2.3478   35.3792  -16.1070 O   0  0  0  0  0  0  0  0  0  0  0  0
   -9.2388   34.1576  -15.9541 O   0  0  0  0  0  0  0  0  0  0  0  0
   -4.0499   34.6770  -14.8030 C   0  0  1  0  0  0  0  0  0  0  0  0
   -7.9428   35.6248  -16.9604 C   0  0  1  0  0  0  0  0  0  0  0  0
   -4.4634   33.4194  -14.4934 O   0  0  0  0  0  0  0  0  0  0  0  0
   -7.5111   35.8759  -18.2024 O   0  0  0  0  0  0  0  0  0  0  0  0
   -2.8928   35.1219  -13.8421 C   0  0  1  0  0  0  0  0  0  0  0  0
   -9.2393   36.4072  -16.6503 C   0  0  1  0  0  0  0  0  0  0  0  0
   -2.3851   33.9511  -13.0772 O   0  0  0  0  0  0  0  0  0  0  0  0
   -9.9063   36.8416  -17.9198 O   0  0  0  0  0  0  0  0  0  0  0  0
   -1.9643   35.6277  -14.5889 C   0  0  2  0  0  0  0  0  0  0  0  0
   -9.9948   35.5662  -16.0315 C   0  0  2  0  0  0  0  0  0  0  0  0
   -3.7658   40.6221  -13.7936 N   0  0  0  0  0  0  0  0  0  0  0  0
   -4.5417   39.5202  -13.9960 C   0  0  0  0  0  0  0  0  0  0  0  0
   -3.9818   38.2830  -14.1890 N   0  0  0  0  0  0  0  0  0  0  0  0
   -2.6196   38.1622  -14.1793 C   0  0  0  0  0  0  0  0  0  0  0  0
   -1.8431   39.2380  -13.9887 C   0  0  0  0  0  0  0  0  0  0  0  0
   -2.4204   40.4900  -13.7839 C   0  0  0  0  0  0  0  0  0  0  0  0
   -1.7199   41.6940  -13.5727 N   0  0  0  0  0  0  0  0  0  0  0  0
   -0.5566   38.8308  -14.0225 N   0  0  0  0  0  0  0  0  0  0  0  0
   -0.5487   37.4855  -14.2446 C   0  0  0  0  0  0  0  0  0  0  0  0
   -1.8191   37.0686  -14.3243 N   0  0  0  0  0  0  0  0  0  0  0  0
   -8.4385   37.7857  -11.5849 N   0  0  0  0  0  0  0  0  0  0  0  0
   -7.6882   37.5814  -12.6992 C   0  0  0  0  0  0  0  0  0  0  0  0
   -8.2483   36.9744  -13.7879 N   0  0  0  0  0  0  0  0  0  0  0  0
   -9.5505   36.5818  -13.7591 C   0  0  0  0  0  0  0  0  0  0  0  0
  -10.3023   36.7854  -12.6584 C   0  0  0  0  0  0  0  0  0  0  0  0
   -9.7227   37.4008  -11.5527 C   0  0  0  0  0  0  0  0  0  0  0  0
  -10.3258   37.6977  -10.2786 N   0  0  0  0  0  0  0  0  0  0  0  0
  -11.5389   36.2963  -12.9164 N   0  0  0  0  0  0  0  0  0  0  0  0
  -11.5443   35.7956  -14.1849 C   0  0  0  0  0  0  0  0  0  0  0  0
  -10.3113   35.9797  -14.6984 N   0  0  0  0  0  0  0  0  0  0  0  0
  1  3  1  6  0  0  0
  1  5  2  0  0  0  0
  1  9  1  0  0  0  0
  1 18  1  0  0  0  0
  2  4  1  1  0  0  0
  2  6  2  0  0  0  0
  2 10  1  0  0  0  0
  2 17  1  0  0  0  0
  7  9  1  0  0  0  0
  8 10  1  0  0  0  0
 11  7  1  6  0  0  0
 11 13  1  0  0  0  0
 11 15  1  0  0  0  0
 12  8  1  1  0  0  0
 12 14  1  0  0  0  0
 12 16  1  0  0  0  0
 13 23  1  0  0  0  0
 14 24  1  0  0  0  0
 15 17  1  1  0  0  0
 15 19  1  0  0  0  0
 16 18  1  6  0  0  0
 16 20  1  0  0  0  0
 19 21  1  6  0  0  0
 19 23  1  0  0  0  0
 20 22  1  6  0  0  0
 20 24  1  0  0  0  0
 23 34  1  6  0  0  0
 24 44  1  1  0  0  0
 25 26  2  0  0  0  0
 25 30  1  0  0  0  0
 26 27  1  0  0  0  0
 27 28  2  0  0  0  0
 28 29  1  0  0  0  0
 28 34  1  0  0  0  0
 29 30  2  0  0  0  0
 29 32  1  0  0  0  0
 30 31  1  0  0  0  0
 32 33  2  0  0  0  0
 33 34  1  0  0  0  0
 35 36  2  0  0  0  0
 35 40  1  0  0  0  0
 36 37  1  0  0  0  0
 37 38  2  0  0  0  0
 38 39  1  0  0  0  0
 38 44  1  0  0  0  0
 39 40  2  0  0  0  0
 39 42  1  0  0  0  0
 40 41  1  0  0  0  0
 42 43  2  0  0  0  0
 43 44  1  0  0  0  0
M  CHG  2   3  -1   4  -1
M  END
>  <CHROM.1>
73.66629504,81.05911431,-6.00097236,36.23613784,-14.87683702,-2.94794201
0.17120088,0.75758625

>  <Name>
ligand

>  <RI>
0

>  <Rbt.Current_Directory>
/home/itssahil/PROJECTS/Mol_Feturizer/New_Systems/rnas/4QLM

>  <Rbt.Executable>
rbdock ($Id: //depot/dev/client3/rdock/2013.1/src/exe/rbdock.cxx#4 $)

>  <Rbt.Library>
libRbt.so (2013.1, Build901 2013/11/27)

>  <Rbt.Parameter_File>
/export/apps/rDock/src/rDock_2013.1_src/data/scripts/dock_solv.prm

>  <Rbt.Receptor>
prm/pocket_docking_7.prm

>  <SCORE>
-10.1816

>  <SCORE.INTER>
-8.58782

>  <SCORE.INTER.CONST>
1

>  <SCORE.INTER.POLAR>
0

>  <SCORE.INTER.ROT>
2

>  <SCORE.INTER.SOLV>
22.7282

>  <SCORE.INTER.VDW>
-18.2346

>  <SCORE.INTER.norm>
-0.195178

>  <SCORE.INTRA>
-1.59374

>  <SCORE.INTRA.DIHEDRAL>
0.00443109

>  <SCORE.INTRA.DIHEDRAL.0>
2.32994

>  <SCORE.INTRA.POLAR>
0

>  <SCORE.INTRA.POLAR.0>
0

>  <SCORE.INTRA.REPUL>
0

>  <SCORE.INTRA.REPUL.0>
0

>  <SCORE.INTRA.SOLV>
0.165921

>  <SCORE.INTRA.SOLV.lig_0>
-117.703

>  <SCORE.INTRA.VDW>
-1.67892

>  <SCORE.INTRA.VDW.0>
-1.59997

>  <SCORE.INTRA.norm>
-0.0362215

>  <SCORE.RESTR>
0

>  <SCORE.RESTR.CAVITY>
0

>  <SCORE.RESTR.norm>
0

>  <SCORE.SYSTEM>
0

>  <SCORE.SYSTEM.CONST>
0

>  <SCORE.SYSTEM.DIHEDRAL>
0

>  <SCORE.SYSTEM.SOLV>
0

>  <SCORE.SYSTEM.norm>
0

>  <SCORE.heavy>
44

>  <SCORE.norm>
-0.231399

>  <RMSD>
6.632

$$$$
ligand
 OpenBabel11021811513D
libRbt.so/2013.1/901 2013/11/27
 44 50  0  0  0  0  0  0  0  0999 V2000
   -4.9089   33.5990  -13.6578 P   0  0  2  0  0  0  0  0  0  0  0  0
   -5.7164   36.9177  -17.8459 P   0  0  1  0  0  0  0  0  0  0  0  0
   -5.2982   32.1245  -13.5895 O   0  5  0  0  0  0  0  0  0  0  0  0
   -6.2021   38.2074  -17.2304 O   0  5  0  0  0  0  0  0  0  0  0  0
   -4.8848   34.0927  -12.2312 O   0  0  0  0  0  0  0  0  0  0  0  0
   -5.3571   37.2166  -19.3192 O   0  0  0  0  0  0  0  0  0  0  0  0
   -6.6075   33.4234  -15.5354 C   0  0  0  0  0  0  0  0  0  0  0  0
   -3.9986   35.0956  -17.2156 C   0  0  0  0  0  0  0  0  0  0  0  0
   -6.0104   34.2679  -14.5421 O   0  0  0  0  0  0  0  0  0  0  0  0
   -4.5214   36.4013  -16.8408 O   0  0  0  0  0  0  0  0  0  0  0  0
   -7.6922   34.1851  -16.2894 C   0  0  1  0  0  0  0  0  0  0  0  0
   -2.7846   34.8146  -16.2520 C   0  0  1  0  0  0  0  0  0  0  0  0
   -8.7916   34.1055  -15.6058 O   0  0  0  0  0  0  0  0  0  0  0  0
   -2.0509   35.8488  -16.3299 O   0  0  0  0  0  0  0  0  0  0  0  0
   -7.3865   35.6567  -16.4483 C   0  0  1  0  0  0  0  0  0  0  0  0
   -3.2348   34.8322  -14.7776 C   0  0  1  0  0  0  0  0  0  0  0  0
   -6.9066   35.8202  -17.7098 O   0  0  0  0  0  0  0  0  0  0  0  0
   -3.3771   33.5914  -14.2958 O   0  0  0  0  0  0  0  0  0  0  0  0
   -8.7902   36.3420  -16.3065 C   0  0  1  0  0  0  0  0  0  0  0  0
   -2.1628   35.6185  -13.9890 C   0  0  1  0  0  0  0  0  0  0  0  0
   -9.3183   36.7075  -17.6485 O   0  0  0  0  0  0  0  0  0  0  0  0
   -1.2653   34.6785  -13.2434 O   0  0  0  0  0  0  0  0  0  0  0  0
   -9.5635   35.4856  -15.7197 C   0  0  2  0  0  0  0  0  0  0  0  0
   -1.4823   36.2443  -14.8870 C   0  0  2  0  0  0  0  0  0  0  0  0
   -8.6760   36.8069  -10.5925 N   0  0  0  0  0  0  0  0  0  0  0  0
   -7.7348   36.3661  -11.4739 C   0  0  0  0  0  0  0  0  0  0  0  0
   -8.0646   36.0546  -12.7684 N   0  0  0  0  0  0  0  0  0  0  0  0
   -9.3640   36.1891  -13.1729 C   0  0  0  0  0  0  0  0  0  0  0  0
  -10.3022   36.6146  -12.3155 C   0  0  0  0  0  0  0  0  0  0  0  0
   -9.9569   36.9380  -11.0045 C   0  0  0  0  0  0  0  0  0  0  0  0
  -10.8434   37.3945  -10.0092 N   0  0  0  0  0  0  0  0  0  0  0  0
  -11.4783   36.6569  -12.9767 N   0  0  0  0  0  0  0  0  0  0  0  0
  -11.2544   36.2432  -14.2566 C   0  0  0  0  0  0  0  0  0  0  0  0
   -9.9492   35.9711  -14.3845 N   0  0  0  0  0  0  0  0  0  0  0  0
    0.5363   40.6261  -12.9261 N   0  0  0  0  0  0  0  0  0  0  0  0
    1.0084   39.3636  -12.7537 C   0  0  0  0  0  0  0  0  0  0  0  0
    0.3542   38.3135  -13.3337 N   0  0  0  0  0  0  0  0  0  0  0  0
   -0.7597   38.5302  -14.0839 C   0  0  0  0  0  0  0  0  0  0  0  0
   -1.2313   39.7807  -14.2631 C   0  0  0  0  0  0  0  0  0  0  0  0
   -0.5610   40.8441  -13.6654 C   0  0  0  0  0  0  0  0  0  0  0  0
   -0.8941   42.2450  -13.7064 N   0  0  0  0  0  0  0  0  0  0  0  0
   -2.3366   39.6892  -15.0408 N   0  0  0  0  0  0  0  0  0  0  0  0
   -2.5386   38.3749  -15.3435 C   0  0  0  0  0  0  0  0  0  0  0  0
   -1.5566   37.6668  -14.7497 N   0  0  0  0  0  0  0  0  0  0  0  0
  1  3  1  1  0  0  0
  1  5  2  0  0  0  0
  1  9  1  0  0  0  0
  1 18  1  0  0  0  0
  2  4  1  1  0  0  0
  2  6  2  0  0  0  0
  2 10  1  0  0  0  0
  2 17  1  0  0  0  0
  7  9  1  0  0  0  0
  8 10  1  0  0  0  0
 11  7  1  1  0  0  0
 11 13  1  0  0  0  0
 11 15  1  0  0  0  0
 12  8  1  6  0  0  0
 12 14  1  0  0  0  0
 12 16  1  0  0  0  0
 13 23  1  0  0  0  0
 14 24  1  0  0  0  0
 15 17  1  6  0  0  0
 15 19  1  0  0  0  0
 16 18  1  1  0  0  0
 16 20  1  0  0  0  0
 19 21  1  6  0  0  0
 19 23  1  0  0  0  0
 20 22  1  6  0  0  0
 20 24  1  0  0  0  0
 23 34  1  1  0  0  0
 24 44  1  1  0  0  0
 25 26  2  0  0  0  0
 25 30  1  0  0  0  0
 26 27  1  0  0  0  0
 27 28  2  0  0  0  0
 28 29  1  0  0  0  0
 28 34  1  0  0  0  0
 29 30  2  0  0  0  0
 29 32  1  0  0  0  0
 30 31  1  0  0  0  0
 32 33  2  0  0  0  0
 33 34  1  0  0  0  0
 35 36  2  0  0  0  0
 35 40  1  0  0  0  0
 36 37  1  0  0  0  0
 37 38  2  0  0  0  0
 38 39  1  0  0  0  0
 38 44  1  0  0  0  0
 39 40  2  0  0  0  0
 39 42  1  0  0  0  0
 40 41  1  0  0  0  0
 42 43  2  0  0  0  0
 43 44  1  0  0  0  0
M  CHG  2   3  -1   4  -1
M  END
>  <CHROM.1>
50.75114641,-147.55705216,-5.31722760,36.35694000,-14.68721099,-3.03341826
0.28648963,1.10389209

>  <Name>
ligand

>  <RI>
0

>  <Rbt.Current_Directory>
/home/itssahil/PROJECTS/Mol_Feturizer/New_Systems/rnas/4QLM

>  <Rbt.Executable>
rbdock ($Id: //depot/dev/client3/rdock/2013.1/src/exe/rbdock.cxx#4 $)

>  <Rbt.Library>
libRbt.so (2013.1, Build901 2013/11/27)

>  <Rbt.Parameter_File>
/export/apps/rDock/src/rDock_2013.1_src/data/scripts/dock_solv.prm

>  <Rbt.Receptor>
prm/pocket_docking_8.prm

>  <SCORE>
-13.2302

>  <SCORE.INTER>
-12.2214

>  <SCORE.INTER.CONST>
1

>  <SCORE.INTER.POLAR>
0

>  <SCORE.INTER.ROT>
2

>  <SCORE.INTER.SOLV>
26.3099

>  <SCORE.INTER.VDW>
-21.8509

>  <SCORE.INTER.norm>
-0.277758

>  <SCORE.INTRA>
-1.00888

>  <SCORE.INTRA.DIHEDRAL>
0.121307

>  <SCORE.INTRA.DIHEDRAL.0>
2.32994

>  <SCORE.INTRA.POLAR>
0

>  <SCORE.INTRA.POLAR.0>
0

>  <SCORE.INTRA.REPUL>
0

>  <SCORE.INTRA.REPUL.0>
0

>  <SCORE.INTRA.SOLV>
0.254829

>  <SCORE.INTRA.SOLV.lig_0>
-117.703

>  <SCORE.INTRA.VDW>
-1.19695

>  <SCORE.INTRA.VDW.0>
-1.59997

>  <SCORE.INTRA.norm>
-0.0229291

>  <SCORE.RESTR>
0

>  <SCORE.RESTR.CAVITY>
0

>  <SCORE.RESTR.norm>
0

>  <SCORE.SYSTEM>
0

>  <SCORE.SYSTEM.CONST>
0

>  <SCORE.SYSTEM.DIHEDRAL>
0

>  <SCORE.SYSTEM.SOLV>
0

>  <SCORE.SYSTEM.norm>
0

>  <SCORE.heavy>
44

>  <SCORE.norm>
-0.300687

>  <RMSD>
6.639

$$$$
ligand
 OpenBabel11021811513D
libRbt.so/2013.1/901 2013/11/27
 44 50  0  0  0  0  0  0  0  0999 V2000
   -5.6907   36.9311  -18.0829 P   0  0  2  0  0  0  0  0  0  0  0  0
   -5.3030   33.2472  -14.1479 P   0  0  1  0  0  0  0  0  0  0  0  0
   -4.9219   36.9240  -19.4017 O   0  5  0  0  0  0  0  0  0  0  0  0
   -5.2744   34.0479  -12.8688 O   0  5  0  0  0  0  0  0  0  0  0  0
   -6.0316   38.3753  -17.8042 O   0  0  0  0  0  0  0  0  0  0  0  0
   -5.5400   31.7695  -13.7616 O   0  0  0  0  0  0  0  0  0  0  0  0
   -3.7848   35.3377  -17.5637 C   0  0  0  0  0  0  0  0  0  0  0  0
   -6.5174   33.4273  -16.4197 C   0  0  0  0  0  0  0  0  0  0  0  0
   -4.7131   36.2976  -17.0410 O   0  0  0  0  0  0  0  0  0  0  0  0
   -6.4272   33.9987  -15.0841 O   0  0  0  0  0  0  0  0  0  0  0  0
   -2.8653   34.8381  -16.4544 C   0  0  1  0  0  0  0  0  0  0  0  0
   -7.7194   34.1568  -17.1301 C   0  0  1  0  0  0  0  0  0  0  0  0
   -1.8831   35.6768  -16.3352 O   0  0  0  0  0  0  0  0  0  0  0  0
   -8.6937   34.0594  -16.3206 O   0  0  0  0  0  0  0  0  0  0  0  0
   -3.5422   34.7691  -15.1048 C   0  0  1  0  0  0  0  0  0  0  0  0
   -7.4831   35.6792  -17.1901 C   0  0  1  0  0  0  0  0  0  0  0  0
   -3.8838   33.4681  -14.9072 O   0  0  0  0  0  0  0  0  0  0  0  0
   -7.0668   36.0610  -18.4037 O   0  0  0  0  0  0  0  0  0  0  0  0
   -2.4119   35.1936  -14.1036 C   0  0  1  0  0  0  0  0  0  0  0  0
   -8.8218   36.3573  -16.8195 C   0  0  1  0  0  0  0  0  0  0  0  0
   -1.8386   33.9915  -13.4407 O   0  0  0  0  0  0  0  0  0  0  0  0
   -9.5127   36.8618  -18.0497 O   0  0  0  0  0  0  0  0  0  0  0  0
   -1.5138   35.8139  -14.7995 C   0  0  2  0  0  0  0  0  0  0  0  0
   -9.5283   35.4245  -16.2793 C   0  0  2  0  0  0  0  0  0  0  0  0
   -3.5941   40.6164  -13.6037 N   0  0  0  0  0  0  0  0  0  0  0  0
   -4.3064   39.4958  -13.9102 C   0  0  0  0  0  0  0  0  0  0  0  0
   -3.6776   38.3119  -14.2010 N   0  0  0  0  0  0  0  0  0  0  0  0
   -2.3110   38.2645  -14.1832 C   0  0  0  0  0  0  0  0  0  0  0  0
   -1.5966   39.3602  -13.8906 C   0  0  0  0  0  0  0  0  0  0  0  0
   -2.2436   40.5568  -13.5871 C   0  0  0  0  0  0  0  0  0  0  0  0
   -1.6123   41.7742  -13.2640 N   0  0  0  0  0  0  0  0  0  0  0  0
   -0.2893   39.0275  -13.9416 N   0  0  0  0  0  0  0  0  0  0  0  0
   -0.2055   37.7088  -14.2781 C   0  0  0  0  0  0  0  0  0  0  0  0
   -1.4503   37.2323  -14.4104 N   0  0  0  0  0  0  0  0  0  0  0  0
   -8.1323   37.4187  -11.6755 N   0  0  0  0  0  0  0  0  0  0  0  0
   -7.3777   37.3702  -12.8045 C   0  0  0  0  0  0  0  0  0  0  0  0
   -7.8922   36.8028  -13.9362 N   0  0  0  0  0  0  0  0  0  0  0  0
   -9.1540   36.2945  -13.9350 C   0  0  0  0  0  0  0  0  0  0  0  0
   -9.9102   36.3432  -12.8197 C   0  0  0  0  0  0  0  0  0  0  0  0
   -9.3769   36.9193  -11.6704 C   0  0  0  0  0  0  0  0  0  0  0  0
   -9.9916   37.0604  -10.3753 N   0  0  0  0  0  0  0  0  0  0  0  0
  -11.1009   35.7673  -13.1122 N   0  0  0  0  0  0  0  0  0  0  0  0
  -11.0741   35.3691  -14.4163 C   0  0  0  0  0  0  0  0  0  0  0  0
   -9.8673   35.7022  -14.9169 N   0  0  0  0  0  0  0  0  0  0  0  0
  1  3  1  6  0  0  0
  1  5  2  0  0  0  0
  1  9  1  0  0  0  0
  1 18  1  0  0  0  0
  2  4  1  1  0  0  0
  2  6  2  0  0  0  0
  2 10  1  0  0  0  0
  2 17  1  0  0  0  0
  7  9  1  0  0  0  0
  8 10  1  0  0  0  0
 11  7  1  6  0  0  0
 11 13  1  0  0  0  0
 11 15  1  0  0  0  0
 12  8  1  1  0  0  0
 12 14  1  0  0  0  0
 12 16  1  0  0  0  0
 13 23  1  0  0  0  0
 14 24  1  0  0  0  0
 15 17  1  1  0  0  0
 15 19  1  0  0  0  0
 16 18  1  6  0  0  0
 16 20  1  0  0  0  0
 19 21  1  6  0  0  0
 19 23  1  0  0  0  0
 20 22  1  6  0  0  0
 20 24  1  0  0  0  0
 23 34  1  1  0  0  0
 24 44  1  1  0  0  0
 25 26  2  0  0  0  0
 25 30  1  0  0  0  0
 26 27  1  0  0  0  0
 27 28  2  0  0  0  0
 28 29  1  0  0  0  0
 28 34  1  0  0  0  0
 29 30  2  0  0  0  0
 29 32  1  0  0  0  0
 30 31  1  0  0  0  0
 32 33  2  0  0  0  0
 33 34  1  0  0  0  0
 35 36  2  0  0  0  0
 35 40  1  0  0  0  0
 36 37  1  0  0  0  0
 37 38  2  0  0  0  0
 38 39  1  0  0  0  0
 38 44  1  0  0  0  0
 39 40  2  0  0  0  0
 39 42  1  0  0  0  0
 40 41  1  0  0  0  0
 42 43  2  0  0  0  0
 43 44  1  0  0  0  0
M  CHG  2   3  -1   4  -1
M  END
>  <CHROM.1>
73.13306488,83.04215103,-5.58099464,36.22300237,-15.05578708,-2.90351197
0.20395573,0.81575920

>  <Name>
ligand

>  <RI>
0

>  <Rbt.Current_Directory>
/home/itssahil/PROJECTS/Mol_Feturizer/New_Systems/rnas/4QLM

>  <Rbt.Executable>
rbdock ($Id: //depot/dev/client3/rdock/2013.1/src/exe/rbdock.cxx#4 $)

>  <Rbt.Library>
libRbt.so (2013.1, Build901 2013/11/27)

>  <Rbt.Parameter_File>
/export/apps/rDock/src/rDock_2013.1_src/data/scripts/dock_solv.prm

>  <Rbt.Receptor>
prm/pocket_docking_8.prm

>  <SCORE>
-10.3222

>  <SCORE.INTER>
-8.77471

>  <SCORE.INTER.CONST>
1

>  <SCORE.INTER.POLAR>
0

>  <SCORE.INTER.ROT>
2

>  <SCORE.INTER.SOLV>
26.2657

>  <SCORE.INTER.VDW>
-19.5384

>  <SCORE.INTER.norm>
-0.199425

>  <SCORE.INTRA>
-1.54746

>  <SCORE.INTRA.DIHEDRAL>
0.00695504

>  <SCORE.INTRA.DIHEDRAL.0>
2.32994

>  <SCORE.INTRA.POLAR>
0

>  <SCORE.INTRA.POLAR.0>
0

>  <SCORE.INTRA.REPUL>
0

>  <SCORE.INTRA.REPUL.0>
0

>  <SCORE.INTRA.SOLV>
0.111212

>  <SCORE.INTRA.SOLV.lig_0>
-117.703

>  <SCORE.INTRA.VDW>
-1.60655

>  <SCORE.INTRA.VDW.0>
-1.59997

>  <SCORE.INTRA.norm>
-0.0351696

>  <SCORE.RESTR>
0

>  <SCORE.RESTR.CAVITY>
0

>  <SCORE.RESTR.norm>
0

>  <SCORE.SYSTEM>
0

>  <SCORE.SYSTEM.CONST>
0

>  <SCORE.SYSTEM.DIHEDRAL>
0

>  <SCORE.SYSTEM.SOLV>
0

>  <SCORE.SYSTEM.norm>
0

>  <SCORE.heavy>
44

>  <SCORE.norm>
-0.234595

>  <RMSD>
6.641

$$$$
ligand
 OpenBabel11021811513D
libRbt.so/2013.1/901 2013/11/27
 44 50  0  0  0  0  0  0  0  0999 V2000
   -4.7712   33.1014  -13.7455 P   0  0  2  0  0  0  0  0  0  0  0  0
   -4.1879   37.1037  -17.3298 P   0  0  1  0  0  0  0  0  0  0  0  0
   -4.9336   31.6186  -14.0703 O   0  5  0  0  0  0  0  0  0  0  0  0
   -5.0715   38.2149  -16.8172 O   0  5  0  0  0  0  0  0  0  0  0  0
   -5.4299   33.3111  -12.4033 O   0  0  0  0  0  0  0  0  0  0  0  0
   -3.2822   37.7046  -18.4287 O   0  0  0  0  0  0  0  0  0  0  0  0
   -5.4610   33.1775  -16.1867 C   0  0  0  0  0  0  0  0  0  0  0  0
   -2.6584   35.3138  -16.2690 C   0  0  0  0  0  0  0  0  0  0  0  0
   -5.4745   33.8527  -14.9217 O   0  0  0  0  0  0  0  0  0  0  0  0
   -3.4748   36.4846  -15.9833 O   0  0  0  0  0  0  0  0  0  0  0  0
   -6.2185   33.9957  -17.2270 C   0  0  1  0  0  0  0  0  0  0  0  0
   -1.9449   34.9345  -14.9168 C   0  0  1  0  0  0  0  0  0  0  0  0
   -7.4800   33.7120  -17.1242 O   0  0  0  0  0  0  0  0  0  0  0  0
   -1.4070   36.0112  -14.5102 O   0  0  0  0  0  0  0  0  0  0  0  0
   -6.0917   35.4875  -17.0200 C   0  0  1  0  0  0  0  0  0  0  0  0
   -2.9783   34.6371  -13.8120 C   0  0  1  0  0  0  0  0  0  0  0  0
   -5.1489   35.9231  -17.8974 O   0  0  0  0  0  0  0  0  0  0  0  0
   -3.1305   33.3200  -13.6278 O   0  0  0  0  0  0  0  0  0  0  0  0
   -7.5048   36.0367  -17.4218 C   0  0  1  0  0  0  0  0  0  0  0  0
   -2.4719   35.3268  -12.5247 C   0  0  1  0  0  0  0  0  0  0  0  0
   -7.4570   36.6177  -18.7905 O   0  0  0  0  0  0  0  0  0  0  0  0
   -1.8521   34.3230  -11.6008 O   0  0  0  0  0  0  0  0  0  0  0  0
   -8.3210   35.0332  -17.3707 C   0  0  2  0  0  0  0  0  0  0  0  0
   -1.5723   36.1583  -12.9251 C   0  0  2  0  0  0  0  0  0  0  0  0
  -10.0216   34.9499  -12.2793 N   0  0  0  0  0  0  0  0  0  0  0  0
   -8.7692   34.6213  -12.7043 C   0  0  0  0  0  0  0  0  0  0  0  0
   -8.4326   34.6769  -14.0329 N   0  0  0  0  0  0  0  0  0  0  0  0
   -9.3776   35.0675  -14.9411 C   0  0  0  0  0  0  0  0  0  0  0  0
  -10.6157   35.3868  -14.5391 C   0  0  0  0  0  0  0  0  0  0  0  0
  -10.9466   35.3368  -13.1861 C   0  0  0  0  0  0  0  0  0  0  0  0
  -12.2061   35.6460  -12.6354 N   0  0  0  0  0  0  0  0  0  0  0  0
  -11.3282   35.7354  -15.6313 N   0  0  0  0  0  0  0  0  0  0  0  0
  -10.5128   35.6196  -16.7180 C   0  0  0  0  0  0  0  0  0  0  0  0
   -9.3054   35.2249  -16.2931 N   0  0  0  0  0  0  0  0  0  0  0  0
   -5.1713   39.9199  -12.7920 N   0  0  0  0  0  0  0  0  0  0  0  0
   -5.3485   38.6376  -13.2049 C   0  0  0  0  0  0  0  0  0  0  0  0
   -4.2929   37.7701  -13.1845 N   0  0  0  0  0  0  0  0  0  0  0  0
   -3.0731   38.1854  -12.7484 C   0  0  0  0  0  0  0  0  0  0  0  0
   -2.8910   39.4551  -12.3329 C   0  0  0  0  0  0  0  0  0  0  0  0
   -3.9706   40.3331  -12.3607 C   0  0  0  0  0  0  0  0  0  0  0  0
   -3.9998   41.7236  -11.9855 N   0  0  0  0  0  0  0  0  0  0  0  0
   -1.5933   39.5784  -11.9643 N   0  0  0  0  0  0  0  0  0  0  0  0
   -0.9799   38.3747  -12.1505 C   0  0  0  0  0  0  0  0  0  0  0  0
   -1.9040   37.5194  -12.6327 N   0  0  0  0  0  0  0  0  0  0  0  0
  1  3  1  6  0  0  0
  1  5  2  0  0  0  0
  1  9  1  0  0  0  0
  1 18  1  0  0  0  0
  2  4  1  1  0  0  0
  2  6  2  0  0  0  0
  2 10  1  0  0  0  0
  2 17  1  0  0  0  0
  7  9  1  0  0  0  0
  8 10  1  0  0  0  0
 11  7  1  1  0  0  0
 11 13  1  0  0  0  0
 11 15  1  0  0  0  0
 12  8  1  6  0  0  0
 12 14  1  0  0  0  0
 12 16  1  0  0  0  0
 13 23  1  0  0  0  0
 14 24  1  0  0  0  0
 15 17  1  6  0  0  0
 15 19  1  0  0  0  0
 16 18  1  1  0  0  0
 16 20  1  0  0  0  0
 19 21  1  6  0  0  0
 19 23  1  0  0  0  0
 20 22  1  1  0  0  0
 20 24  1  0  0  0  0
 23 34  1  1  0  0  0
 24 44  1  6  0  0  0
 25 26  2  0  0  0  0
 25 30  1  0  0  0  0
 26 27  1  0  0  0  0
 27 28  2  0  0  0  0
 28 29  1  0  0  0  0
 28 34  1  0  0  0  0
 29 30  2  0  0  0  0
 29 32  1  0  0  0  0
 30 31  1  0  0  0  0
 32 33  2  0  0  0  0
 33 34  1  0  0  0  0
 35 36  2  0  0  0  0
 35 40  1  0  0  0  0
 36 37  1  0  0  0  0
 37 38  2  0  0  0  0
 38 39  1  0  0  0  0
 38 44  1  0  0  0  0
 39 40  2  0  0  0  0
 39 42  1  0  0  0  0
 40 41  1  0  0  0  0
 42 43  2  0  0  0  0
 43 44  1  0  0  0  0
M  CHG  2   3  -1   4  -1
M  END
>  <CHROM.1>
39.18921823,77.59455089,-5.40790359,35.92007440,-14.68257224,-2.70104230
-0.01924440,0.66009656

>  <Name>
ligand

>  <RI>
0

>  <Rbt.Current_Directory>
/home/itssahil/PROJECTS/Mol_Feturizer/New_Systems/rnas/4QLM

>  <Rbt.Executable>
rbdock ($Id: //depot/dev/client3/rdock/2013.1/src/exe/rbdock.cxx#4 $)

>  <Rbt.Library>
libRbt.so (2013.1, Build901 2013/11/27)

>  <Rbt.Parameter_File>
/export/apps/rDock/src/rDock_2013.1_src/data/scripts/dock_solv.prm

>  <Rbt.Receptor>
prm/pocket_docking_6.prm

>  <SCORE>
-6.9595

>  <SCORE.INTER>
-5.43717

>  <SCORE.INTER.CONST>
1

>  <SCORE.INTER.POLAR>
0

>  <SCORE.INTER.ROT>
2

>  <SCORE.INTER.SOLV>
22.2543

>  <SCORE.INTER.VDW>
-15.9762

>  <SCORE.INTER.norm>
-0.123572

>  <SCORE.INTRA>
-1.6568

>  <SCORE.INTRA.DIHEDRAL>
0.166844

>  <SCORE.INTRA.DIHEDRAL.0>
2.32994

>  <SCORE.INTRA.POLAR>
0

>  <SCORE.INTRA.POLAR.0>
0

>  <SCORE.INTRA.REPUL>
0

>  <SCORE.INTRA.REPUL.0>
0

>  <SCORE.INTRA.SOLV>
0.625611

>  <SCORE.INTRA.SOLV.lig_0>
-117.703

>  <SCORE.INTRA.VDW>
-2.05303

>  <SCORE.INTRA.VDW.0>
-1.59997

>  <SCORE.INTRA.norm>
-0.0376546

>  <SCORE.RESTR>
0.134467

>  <SCORE.RESTR.CAVITY>
0.134467

>  <SCORE.RESTR.norm>
0.00305607

>  <SCORE.SYSTEM>
0

>  <SCORE.SYSTEM.CONST>
0

>  <SCORE.SYSTEM.DIHEDRAL>
0

>  <SCORE.SYSTEM.SOLV>
0

>  <SCORE.SYSTEM.norm>
0

>  <SCORE.heavy>
44

>  <SCORE.norm>
-0.158171

>  <RMSD>
6.648

$$$$
ligand
 OpenBabel11021811513D
libRbt.so/2013.1/901 2013/11/27
 44 50  0  0  0  0  0  0  0  0999 V2000
   -4.9096   33.3645  -13.9476 P   0  0  2  0  0  0  0  0  0  0  0  0
   -5.9141   36.8419  -17.9607 P   0  0  1  0  0  0  0  0  0  0  0  0
   -5.2594   31.8786  -13.9353 O   0  5  0  0  0  0  0  0  0  0  0  0
   -6.4154   38.0899  -17.2758 O   0  5  0  0  0  0  0  0  0  0  0  0
   -4.8594   33.7954  -12.5015 O   0  0  0  0  0  0  0  0  0  0  0  0
   -5.6025   37.2147  -19.4280 O   0  0  0  0  0  0  0  0  0  0  0  0
   -6.6533   33.2268  -15.7866 C   0  0  0  0  0  0  0  0  0  0  0  0
   -4.1342   35.0399  -17.4574 C   0  0  0  0  0  0  0  0  0  0  0  0
   -6.0512   34.0423  -14.7723 O   0  0  0  0  0  0  0  0  0  0  0  0
   -4.6796   36.3135  -17.0111 O   0  0  0  0  0  0  0  0  0  0  0  0
   -7.7771   33.9919  -16.4773 C   0  0  1  0  0  0  0  0  0  0  0  0
   -2.8878   34.7490  -16.5390 C   0  0  1  0  0  0  0  0  0  0  0  0
   -8.8552   33.8532  -15.7697 O   0  0  0  0  0  0  0  0  0  0  0  0
   -2.1829   35.8048  -16.5896 O   0  0  0  0  0  0  0  0  0  0  0  0
   -7.5131   35.4767  -16.5781 C   0  0  1  0  0  0  0  0  0  0  0  0
   -3.2982   34.6898  -15.0541 C   0  0  1  0  0  0  0  0  0  0  0  0
   -7.0719   35.7082  -17.8430 O   0  0  0  0  0  0  0  0  0  0  0  0
   -3.3959   33.4257  -14.6248 O   0  0  0  0  0  0  0  0  0  0  0  0
   -8.9294   36.1176  -16.3695 C   0  0  1  0  0  0  0  0  0  0  0  0
   -2.2256   35.4688  -14.2593 C   0  0  1  0  0  0  0  0  0  0  0  0
   -9.5028   36.5276  -17.6797 O   0  0  0  0  0  0  0  0  0  0  0  0
   -1.2846   34.5210  -13.5799 O   0  0  0  0  0  0  0  0  0  0  0  0
   -9.6646   35.2160  -15.8017 C   0  0  2  0  0  0  0  0  0  0  0  0
   -1.5857   36.1513  -15.1457 C   0  0  2  0  0  0  0  0  0  0  0  0
  -12.7620   37.5787  -12.1078 N   0  0  0  0  0  0  0  0  0  0  0  0
  -13.0353   37.4982  -13.4404 C   0  0  0  0  0  0  0  0  0  0  0  0
  -12.1761   36.8690  -14.3049 N   0  0  0  0  0  0  0  0  0  0  0  0
  -11.0253   36.3177  -13.8129 C   0  0  0  0  0  0  0  0  0  0  0  0
  -10.7393   36.3952  -12.5058 C   0  0  0  0  0  0  0  0  0  0  0  0
  -11.6225   37.0279  -11.6327 C   0  0  0  0  0  0  0  0  0  0  0  0
  -11.4406   37.1766  -10.2435 N   0  0  0  0  0  0  0  0  0  0  0  0
   -9.5601   35.7704  -12.3026 N   0  0  0  0  0  0  0  0  0  0  0  0
   -9.1165   35.3109  -13.5073 C   0  0  0  0  0  0  0  0  0  0  0  0
  -10.0262   35.6318  -14.4366 N   0  0  0  0  0  0  0  0  0  0  0  0
   -0.3957   40.3251  -12.2675 N   0  0  0  0  0  0  0  0  0  0  0  0
   -0.0327   39.0383  -12.0250 C   0  0  0  0  0  0  0  0  0  0  0  0
   -0.4355   38.0511  -12.8796 N   0  0  0  0  0  0  0  0  0  0  0  0
   -1.1904   38.3545  -13.9698 C   0  0  0  0  0  0  0  0  0  0  0  0
   -1.5505   39.6297  -14.2193 C   0  0  0  0  0  0  0  0  0  0  0  0
   -1.1393   40.6285  -13.3415 C   0  0  0  0  0  0  0  0  0  0  0  0
   -1.4205   42.0400  -13.4011 N   0  0  0  0  0  0  0  0  0  0  0  0
   -2.2902   39.6271  -15.3542 N   0  0  0  0  0  0  0  0  0  0  0  0
   -2.3780   38.3427  -15.8041 C   0  0  0  0  0  0  0  0  0  0  0  0
   -1.6923   37.5640  -14.9430 N   0  0  0  0  0  0  0  0  0  0  0  0
  1  3  1  1  0  0  0
  1  5  2  0  0  0  0
  1  9  1  0  0  0  0
  1 18  1  0  0  0  0
  2  4  1  1  0  0  0
  2  6  2  0  0  0  0
  2 10  1  0  0  0  0
  2 17  1  0  0  0  0
  7  9  1  0  0  0  0
  8 10  1  0  0  0  0
 11  7  1  1  0  0  0
 11 13  1  0  0  0  0
 11 15  1  0  0  0  0
 12  8  1  6  0  0  0
 12 14  1  0  0  0  0
 12 16  1  0  0  0  0
 13 23  1  0  0  0  0
 14 24  1  0  0  0  0
 15 17  1  6  0  0  0
 15 19  1  0  0  0  0
 16 18  1  1  0  0  0
 16 20  1  0  0  0  0
 19 21  1  6  0  0  0
 19 23  1  0  0  0  0
 20 22  1  6  0  0  0
 20 24  1  0  0  0  0
 23 34  1  1  0  0  0
 24 44  1  1  0  0  0
 25 26  2  0  0  0  0
 25 30  1  0  0  0  0
 26 27  1  0  0  0  0
 27 28  2  0  0  0  0
 28 29  1  0  0  0  0
 28 34  1  0  0  0  0
 29 30  2  0  0  0  0
 29 32  1  0  0  0  0
 30 31  1  0  0  0  0
 32 33  2  0  0  0  0
 33 34  1  0  0  0  0
 35 36  2  0  0  0  0
 35 40  1  0  0  0  0
 36 37  1  0  0  0  0
 37 38  2  0  0  0  0
 38 39  1  0  0  0  0
 38 44  1  0  0  0  0
 39 40  2  0  0  0  0
 39 42  1  0  0  0  0
 40 41  1  0  0  0  0
 42 43  2  0  0  0  0
 43 44  1  0  0  0  0
M  CHG  2   3  -1   4  -1
M  END
>  <CHROM.1>
-149.42053239,-170.98711842,-5.74671070,36.23315758,-14.88241389,-0.12251732
-0.15305549,-2.43752414

>  <Name>
ligand

>  <RI>
0

>  <Rbt.Current_Directory>
/home/itssahil/PROJECTS/Mol_Feturizer/New_Systems/rnas/4QLM

>  <Rbt.Executable>
rbdock ($Id: //depot/dev/client3/rdock/2013.1/src/exe/rbdock.cxx#4 $)

>  <Rbt.Library>
libRbt.so (2013.1, Build901 2013/11/27)

>  <Rbt.Parameter_File>
/export/apps/rDock/src/rDock_2013.1_src/data/scripts/dock_solv.prm

>  <Rbt.Receptor>
prm/pocket_docking_7.prm

>  <SCORE>
-8.9626

>  <SCORE.INTER>
-9.13486

>  <SCORE.INTER.CONST>
1

>  <SCORE.INTER.POLAR>
0

>  <SCORE.INTER.ROT>
2

>  <SCORE.INTER.SOLV>
25.2756

>  <SCORE.INTER.VDW>
-19.4485

>  <SCORE.INTER.norm>
-0.20761

>  <SCORE.INTRA>
0.167938

>  <SCORE.INTRA.DIHEDRAL>
-0.0290144

>  <SCORE.INTRA.DIHEDRAL.0>
2.32994

>  <SCORE.INTRA.POLAR>
0

>  <SCORE.INTRA.POLAR.0>
0

>  <SCORE.INTRA.REPUL>
0

>  <SCORE.INTRA.REPUL.0>
0

>  <SCORE.INTRA.SOLV>
0.0409722

>  <SCORE.INTRA.SOLV.lig_0>
-117.703

>  <SCORE.INTRA.VDW>
0.161959

>  <SCORE.INTRA.VDW.0>
-1.59997

>  <SCORE.INTRA.norm>
0.00381678

>  <SCORE.RESTR>
0.00431833

>  <SCORE.RESTR.CAVITY>
0.00431833

>  <SCORE.RESTR.norm>
9.81439e-05

>  <SCORE.SYSTEM>
0

>  <SCORE.SYSTEM.CONST>
0

>  <SCORE.SYSTEM.DIHEDRAL>
0

>  <SCORE.SYSTEM.SOLV>
0

>  <SCORE.SYSTEM.norm>
0

>  <SCORE.heavy>
44

>  <SCORE.norm>
-0.203696

>  <RMSD>
6.655

$$$$
ligand
 OpenBabel11021811513D
libRbt.so/2013.1/901 2013/11/27
 44 50  0  0  0  0  0  0  0  0999 V2000
   -6.2991   36.1173  -17.7022 P   0  0  2  0  0  0  0  0  0  0  0  0
   -6.3245   33.0033  -13.2855 P   0  0  1  0  0  0  0  0  0  0  0  0
   -5.6260   35.7878  -19.0322 O   0  5  0  0  0  0  0  0  0  0  0  0
   -6.0768   33.9539  -12.1396 O   0  5  0  0  0  0  0  0  0  0  0  0
   -6.3628   37.6239  -17.6266 O   0  0  0  0  0  0  0  0  0  0  0  0
   -6.7936   31.6615  -12.6783 O   0  0  0  0  0  0  0  0  0  0  0  0
   -4.6750   34.2891  -17.0229 C   0  0  0  0  0  0  0  0  0  0  0  0
   -7.6256   33.0874  -15.5145 C   0  0  0  0  0  0  0  0  0  0  0  0
   -5.3860   35.4654  -16.6141 O   0  0  0  0  0  0  0  0  0  0  0  0
   -7.3542   33.8113  -14.2812 O   0  0  0  0  0  0  0  0  0  0  0  0
   -3.7914   33.7877  -15.8857 C   0  0  1  0  0  0  0  0  0  0  0  0
   -8.7218   33.9194  -16.2810 C   0  0  1  0  0  0  0  0  0  0  0  0
   -2.6714   34.4407  -15.9260 O   0  0  0  0  0  0  0  0  0  0  0  0
   -9.6464   34.1146  -15.4319 O   0  0  0  0  0  0  0  0  0  0  0  0
   -4.3856   34.0305  -14.5174 C   0  0  1  0  0  0  0  0  0  0  0  0
   -8.2255   35.3497  -16.5722 C   0  0  1  0  0  0  0  0  0  0  0  0
   -4.9379   32.8539  -14.1190 O   0  0  0  0  0  0  0  0  0  0  0  0
   -7.8239   35.4778  -17.8427 O   0  0  0  0  0  0  0  0  0  0  0  0
   -3.1388   34.3750  -13.6303 C   0  0  1  0  0  0  0  0  0  0  0  0
   -9.3986   36.3059  -16.2577 C   0  0  1  0  0  0  0  0  0  0  0  0
   -2.7463   33.1914  -12.8189 O   0  0  0  0  0  0  0  0  0  0  0  0
  -10.0642   36.7537  -17.5232 O   0  0  0  0  0  0  0  0  0  0  0  0
   -2.1900   34.7185  -14.4412 C   0  0  2  0  0  0  0  0  0  0  0  0
  -10.2236   35.6017  -15.5616 C   0  0  2  0  0  0  0  0  0  0  0  0
   -2.7399   39.9814  -15.3472 N   0  0  0  0  0  0  0  0  0  0  0  0
   -3.5115   38.9970  -15.8883 C   0  0  0  0  0  0  0  0  0  0  0  0
   -3.2896   37.6764  -15.5910 N   0  0  0  0  0  0  0  0  0  0  0  0
   -2.2721   37.3503  -14.7374 C   0  0  0  0  0  0  0  0  0  0  0  0
   -1.5002   38.3068  -14.2030 C   0  0  0  0  0  0  0  0  0  0  0  0
   -1.7385   39.6470  -14.5030 C   0  0  0  0  0  0  0  0  0  0  0  0
   -1.0038   40.7434  -14.0099 N   0  0  0  0  0  0  0  0  0  0  0  0
   -0.5910   37.7072  -13.4055 N   0  0  0  0  0  0  0  0  0  0  0  0
   -0.8078   36.3622  -13.4605 C   0  0  0  0  0  0  0  0  0  0  0  0
   -1.8542   36.1412  -14.2670 N   0  0  0  0  0  0  0  0  0  0  0  0
  -10.8572   39.7480  -12.4750 N   0  0  0  0  0  0  0  0  0  0  0  0
  -10.6693   39.7557  -13.8208 C   0  0  0  0  0  0  0  0  0  0  0  0
  -10.5110   38.5731  -14.4868 N   0  0  0  0  0  0  0  0  0  0  0  0
  -10.5468   37.3945  -13.8084 C   0  0  0  0  0  0  0  0  0  0  0  0
  -10.7374   37.3790  -12.4736 C   0  0  0  0  0  0  0  0  0  0  0  0
  -10.8938   38.5883  -11.8026 C   0  0  0  0  0  0  0  0  0  0  0  0
  -11.0880   38.8076  -10.3922 N   0  0  0  0  0  0  0  0  0  0  0  0
  -10.7239   36.0836  -12.0776 N   0  0  0  0  0  0  0  0  0  0  0  0
  -10.5293   35.3022  -13.1783 C   0  0  0  0  0  0  0  0  0  0  0  0
  -10.4241   36.1220  -14.2436 N   0  0  0  0  0  0  0  0  0  0  0  0
  1  3  1  6  0  0  0
  1  5  2  0  0  0  0
  1  9  1  0  0  0  0
  1 18  1  0  0  0  0
  2  4  1  1  0  0  0
  2  6  2  0  0  0  0
  2 10  1  0  0  0  0
  2 17  1  0  0  0  0
  7  9  1  0  0  0  0
  8 10  1  0  0  0  0
 11  7  1  6  0  0  0
 11 13  1  0  0  0  0
 11 15  1  0  0  0  0
 12  8  1  1  0  0  0
 12 14  1  0  0  0  0
 12 16  1  0  0  0  0
 13 23  1  0  0  0  0
 14 24  1  0  0  0  0
 15 17  1  1  0  0  0
 15 19  1  0  0  0  0
 16 18  1  6  0  0  0
 16 20  1  0  0  0  0
 19 21  1  6  0  0  0
 19 23  1  0  0  0  0
 20 22  1  6  0  0  0
 20 24  1  0  0  0  0
 23 34  1  6  0  0  0
 24 44  1  1  0  0  0
 25 26  2  0  0  0  0
 25 30  1  0  0  0  0
 26 27  1  0  0  0  0
 27 28  2  0  0  0  0
 28 29  1  0  0  0  0
 28 34  1  0  0  0  0
 29 30  2  0  0  0  0
 29 32  1  0  0  0  0
 30 31  1  0  0  0  0
 32 33  2  0  0  0  0
 33 34  1  0  0  0  0
 35 36  2  0  0  0  0
 35 40  1  0  0  0  0
 36 37  1  0  0  0  0
 37 38  2  0  0  0  0
 38 39  1  0  0  0  0
 38 44  1  0  0  0  0
 39 40  2  0  0  0  0
 39 42  1  0  0  0  0
 40 41  1  0  0  0  0
 42 43  2  0  0  0  0
 43 44  1  0  0  0  0
M  CHG  2   3  -1   4  -1
M  END
>  <CHROM.1>
33.19288538,160.28014158,-6.29098564,35.96693172,-14.79285890,0.03988915
-0.09127511,-3.02110975

>  <Name>
ligand

>  <RI>
0

>  <Rbt.Current_Directory>
/home/itssahil/PROJECTS/Mol_Feturizer/New_Systems/rnas/4QLM

>  <Rbt.Executable>
rbdock ($Id: //depot/dev/client3/rdock/2013.1/src/exe/rbdock.cxx#4 $)

>  <Rbt.Library>
libRbt.so (2013.1, Build901 2013/11/27)

>  <Rbt.Parameter_File>
/export/apps/rDock/src/rDock_2013.1_src/data/scripts/dock_solv.prm

>  <Rbt.Receptor>
prm/pocket_docking_6.prm

>  <SCORE>
-9.83214

>  <SCORE.INTER>
-9.5237

>  <SCORE.INTER.CONST>
1

>  <SCORE.INTER.POLAR>
0

>  <SCORE.INTER.ROT>
2

>  <SCORE.INTER.SOLV>
24.6773

>  <SCORE.INTER.VDW>
-19.5082

>  <SCORE.INTER.norm>
-0.216448

>  <SCORE.INTRA>
-0.451807

>  <SCORE.INTRA.DIHEDRAL>
0.161958

>  <SCORE.INTRA.DIHEDRAL.0>
2.32994

>  <SCORE.INTRA.POLAR>
0

>  <SCORE.INTRA.POLAR.0>
0

>  <SCORE.INTRA.REPUL>
0

>  <SCORE.INTRA.REPUL.0>
0

>  <SCORE.INTRA.SOLV>
0.435031

>  <SCORE.INTRA.SOLV.lig_0>
-117.703

>  <SCORE.INTRA.VDW>
-0.750302

>  <SCORE.INTRA.VDW.0>
-1.59997

>  <SCORE.INTRA.norm>
-0.0102683

>  <SCORE.RESTR>
0.143373

>  <SCORE.RESTR.CAVITY>
0.143373

>  <SCORE.RESTR.norm>
0.00325847

>  <SCORE.SYSTEM>
0

>  <SCORE.SYSTEM.CONST>
0

>  <SCORE.SYSTEM.DIHEDRAL>
0

>  <SCORE.SYSTEM.SOLV>
0

>  <SCORE.SYSTEM.norm>
0

>  <SCORE.heavy>
44

>  <SCORE.norm>
-0.223458

>  <RMSD>
6.670

$$$$
ligand
 OpenBabel11021811513D
libRbt.so/2013.1/901 2013/11/27
 44 50  0  0  0  0  0  0  0  0999 V2000
   -7.6778   31.9923  -12.8405 P   0  0  2  0  0  0  0  0  0  0  0  0
   -7.3937   35.0898  -17.2599 P   0  0  1  0  0  0  0  0  0  0  0  0
   -7.7640   30.4684  -12.8133 O   0  5  0  0  0  0  0  0  0  0  0  0
   -8.3268   36.2438  -16.9850 O   0  5  0  0  0  0  0  0  0  0  0  0
   -8.3190   32.4714  -11.5603 O   0  0  0  0  0  0  0  0  0  0  0  0
   -6.5460   35.4667  -18.4961 O   0  0  0  0  0  0  0  0  0  0  0  0
   -8.4217   31.4723  -15.2106 C   0  0  0  0  0  0  0  0  0  0  0  0
   -5.7449   33.6688  -15.8703 C   0  0  0  0  0  0  0  0  0  0  0  0
   -8.4463   32.4181  -14.1331 O   0  0  0  0  0  0  0  0  0  0  0  0
   -6.6191   34.8320  -15.8321 O   0  0  0  0  0  0  0  0  0  0  0  0
   -9.2452   31.9917  -16.3844 C   0  0  1  0  0  0  0  0  0  0  0  0
   -4.9832   33.6455  -14.4917 C   0  0  1  0  0  0  0  0  0  0  0  0
  -10.4865   31.6770  -16.1779 O   0  0  0  0  0  0  0  0  0  0  0  0
   -4.4978   34.8120  -14.3592 O   0  0  0  0  0  0  0  0  0  0  0  0
   -9.1974   33.4956  -16.5270 C   0  0  1  0  0  0  0  0  0  0  0  0
   -5.9751   33.5586  -13.3146 C   0  0  1  0  0  0  0  0  0  0  0  0
   -8.2990   33.7644  -17.5113 O   0  0  0  0  0  0  0  0  0  0  0  0
   -6.0497   32.3130  -12.8301 O   0  0  0  0  0  0  0  0  0  0  0  0
  -10.6471   33.8673  -16.9964 C   0  0  1  0  0  0  0  0  0  0  0  0
   -5.4812   34.5493  -12.2358 C   0  0  1  0  0  0  0  0  0  0  0  0
  -10.6603   34.1207  -18.4624 O   0  0  0  0  0  0  0  0  0  0  0  0
   -4.7872   33.8161  -11.1285 O   0  0  0  0  0  0  0  0  0  0  0  0
  -11.4048   32.8632  -16.6910 C   0  0  2  0  0  0  0  0  0  0  0  0
   -4.6379   35.3103  -12.8447 C   0  0  2  0  0  0  0  0  0  0  0  0
  -12.8835   34.7831  -11.9005 N   0  0  0  0  0  0  0  0  0  0  0  0
  -11.6035   34.6911  -12.3592 C   0  0  0  0  0  0  0  0  0  0  0  0
  -11.3298   34.1847  -13.6042 N   0  0  0  0  0  0  0  0  0  0  0  0
  -12.3657   33.7643  -14.3920 C   0  0  0  0  0  0  0  0  0  0  0  0
  -13.6292   33.8418  -13.9519 C   0  0  0  0  0  0  0  0  0  0  0  0
  -13.8993   34.3664  -12.6891 C   0  0  0  0  0  0  0  0  0  0  0  0
  -15.1770   34.5024  -12.1111 N   0  0  0  0  0  0  0  0  0  0  0  0
  -14.4360   33.3679  -14.9249 N   0  0  0  0  0  0  0  0  0  0  0  0
  -13.6503   32.9885  -15.9727 C   0  0  0  0  0  0  0  0  0  0  0  0
  -12.3756   33.2480  -15.6534 N   0  0  0  0  0  0  0  0  0  0  0  0
   -6.6057   39.3878  -10.2715 N   0  0  0  0  0  0  0  0  0  0  0  0
   -6.3977   38.1382   -9.7802 C   0  0  0  0  0  0  0  0  0  0  0  0
   -5.8766   37.1715  -10.5934 N   0  0  0  0  0  0  0  0  0  0  0  0
   -5.5625   37.4591  -11.8854 C   0  0  0  0  0  0  0  0  0  0  0  0
   -5.7620   38.6982  -12.3784 C   0  0  0  0  0  0  0  0  0  0  0  0
   -6.2968   39.6757  -11.5443 C   0  0  0  0  0  0  0  0  0  0  0  0
   -6.6083   41.0460  -11.8611 N   0  0  0  0  0  0  0  0  0  0  0  0
   -5.3654   38.6874  -13.6737 N   0  0  0  0  0  0  0  0  0  0  0  0
   -4.9155   37.4351  -13.9724 C   0  0  0  0  0  0  0  0  0  0  0  0
   -5.0387   36.6840  -12.8594 N   0  0  0  0  0  0  0  0  0  0  0  0
  1  3  1  1  0  0  0
  1  5  2  0  0  0  0
  1  9  1  0  0  0  0
  1 18  1  0  0  0  0
  2  4  1  1  0  0  0
  2  6  2  0  0  0  0
  2 10  1  0  0  0  0
  2 17  1  0  0  0  0
  7  9  1  0  0  0  0
  8 10  1  0  0  0  0
 11  7  1  1  0  0  0
 11 13  1  0  0  0  0
 11 15  1  0  0  0  0
 12  8  1  6  0  0  0
 12 14  1  0  0  0  0
 12 16  1  0  0  0  0
 13 23  1  0  0  0  0
 14 24  1  0  0  0  0
 15 17  1  6  0  0  0
 15 19  1  0  0  0  0
 16 18  1  1  0  0  0
 16 20  1  0  0  0  0
 19 21  1  6  0  0  0
 19 23  1  0  0  0  0
 20 22  1  1  0  0  0
 20 24  1  0  0  0  0
 23 34  1  1  0  0  0
 24 44  1  6  0  0  0
 25 26  2  0  0  0  0
 25 30  1  0  0  0  0
 26 27  1  0  0  0  0
 27 28  2  0  0  0  0
 28 29  1  0  0  0  0
 28 34  1  0  0  0  0
 29 30  2  0  0  0  0
 29 32  1  0  0  0  0
 30 31  1  0  0  0  0
 32 33  2  0  0  0  0
 33 34  1  0  0  0  0
 35 36  2  0  0  0  0
 35 40  1  0  0  0  0
 36 37  1  0  0  0  0
 37 38  2  0  0  0  0
 38 39  1  0  0  0  0
 38 44  1  0  0  0  0
 39 40  2  0  0  0  0
 39 42  1  0  0  0  0
 40 41  1  0  0  0  0
 42 43  2  0  0  0  0
 43 44  1  0  0  0  0
M  CHG  2   3  -1   4  -1
M  END
>  <CHROM.1>
63.19255123,163.60615570,-8.33998870,34.59180753,-14.14481598,-2.53206650
0.18604553,0.88811907

>  <Name>
ligand

>  <RI>
0

>  <Rbt.Current_Directory>
/home/itssahil/PROJECTS/Mol_Feturizer/New_Systems/rnas/4QLM

>  <Rbt.Executable>
rbdock ($Id: //depot/dev/client3/rdock/2013.1/src/exe/rbdock.cxx#4 $)

>  <Rbt.Library>
libRbt.so (2013.1, Build901 2013/11/27)

>  <Rbt.Parameter_File>
/export/apps/rDock/src/rDock_2013.1_src/data/scripts/dock_solv.prm

>  <Rbt.Receptor>
prm/pocket_docking_6.prm

>  <SCORE>
-8.86882

>  <SCORE.INTER>
-8.4051

>  <SCORE.INTER.CONST>
1

>  <SCORE.INTER.POLAR>
0

>  <SCORE.INTER.ROT>
2

>  <SCORE.INTER.SOLV>
25.7301

>  <SCORE.INTER.VDW>
-19.1134

>  <SCORE.INTER.norm>
-0.191025

>  <SCORE.INTRA>
-0.542166

>  <SCORE.INTRA.DIHEDRAL>
0.0354275

>  <SCORE.INTRA.DIHEDRAL.0>
2.32994

>  <SCORE.INTRA.POLAR>
0

>  <SCORE.INTRA.POLAR.0>
0

>  <SCORE.INTRA.REPUL>
0

>  <SCORE.INTRA.REPUL.0>
0

>  <SCORE.INTRA.SOLV>
0.107582

>  <SCORE.INTRA.SOLV.lig_0>
-117.703

>  <SCORE.INTRA.VDW>
-0.613671

>  <SCORE.INTRA.VDW.0>
-1.59997

>  <SCORE.INTRA.norm>
-0.012322

>  <SCORE.RESTR>
0.0784416

>  <SCORE.RESTR.CAVITY>
0.0784416

>  <SCORE.RESTR.norm>
0.00178276

>  <SCORE.SYSTEM>
0

>  <SCORE.SYSTEM.CONST>
0

>  <SCORE.SYSTEM.DIHEDRAL>
0

>  <SCORE.SYSTEM.SOLV>
0

>  <SCORE.SYSTEM.norm>
0

>  <SCORE.heavy>
44

>  <SCORE.norm>
-0.201564

>  <RMSD>
6.670

$$$$
ligand
 OpenBabel11021811513D
libRbt.so/2013.1/901 2013/11/27
 44 50  0  0  0  0  0  0  0  0999 V2000
   -7.9767   32.8497  -12.6077 P   0  0  2  0  0  0  0  0  0  0  0  0
  -10.7605   34.8627  -16.7795 P   0  0  1  0  0  0  0  0  0  0  0  0
   -8.5098   31.8853  -11.5512 O   0  5  0  0  0  0  0  0  0  0  0  0
  -10.3750   36.3209  -16.8352 O   0  5  0  0  0  0  0  0  0  0  0  0
   -6.8468   33.6067  -11.9523 O   0  0  0  0  0  0  0  0  0  0  0  0
  -11.4935   34.5289  -18.0987 O   0  0  0  0  0  0  0  0  0  0  0  0
  -10.4858   33.1206  -12.8767 C   0  0  0  0  0  0  0  0  0  0  0  0
   -9.5506   32.6456  -16.2419 C   0  0  0  0  0  0  0  0  0  0  0  0
   -9.1994   33.7434  -12.9936 O   0  0  0  0  0  0  0  0  0  0  0  0
   -9.3566   34.0737  -16.4459 O   0  0  0  0  0  0  0  0  0  0  0  0
  -11.5852   34.1143  -13.2365 C   0  0  1  0  0  0  0  0  0  0  0  0
   -8.1121   32.0255  -16.0751 C   0  0  1  0  0  0  0  0  0  0  0  0
  -11.8614   34.8121  -12.1786 O   0  0  0  0  0  0  0  0  0  0  0  0
   -7.4487   32.4495  -17.0721 O   0  0  0  0  0  0  0  0  0  0  0  0
  -11.1731   35.0971  -14.3083 C   0  0  1  0  0  0  0  0  0  0  0  0
   -7.3713   32.6631  -14.8828 C   0  0  1  0  0  0  0  0  0  0  0  0
  -11.7044   34.6452  -15.4752 O   0  0  0  0  0  0  0  0  0  0  0  0
   -7.3954   31.8638  -13.8093 O   0  0  0  0  0  0  0  0  0  0  0  0
  -11.8718   36.4319  -13.8724 C   0  0  1  0  0  0  0  0  0  0  0  0
   -5.9217   32.9334  -15.3461 C   0  0  1  0  0  0  0  0  0  0  0  0
  -13.0964   36.6572  -14.6867 O   0  0  0  0  0  0  0  0  0  0  0  0
   -4.9930   31.8932  -14.7977 O   0  0  0  0  0  0  0  0  0  0  0  0
  -12.1643   36.3050  -12.6178 C   0  0  2  0  0  0  0  0  0  0  0  0
   -5.9612   32.8425  -16.6311 C   0  0  2  0  0  0  0  0  0  0  0  0
   -7.8516   37.8996   -9.8466 N   0  0  0  0  0  0  0  0  0  0  0  0
   -7.9806   36.7117  -10.5019 C   0  0  0  0  0  0  0  0  0  0  0  0
   -9.1280   36.3984  -11.1851 N   0  0  0  0  0  0  0  0  0  0  0  0
  -10.1572   37.2987  -11.2018 C   0  0  0  0  0  0  0  0  0  0  0  0
  -10.0479   38.4681  -10.5561 C   0  0  0  0  0  0  0  0  0  0  0  0
   -8.8748   38.7826   -9.8721 C   0  0  0  0  0  0  0  0  0  0  0  0
   -8.6336   39.9723   -9.1569 N   0  0  0  0  0  0  0  0  0  0  0  0
  -11.1961   39.1528  -10.7430 N   0  0  0  0  0  0  0  0  0  0  0  0
  -12.0218   38.3847  -11.5094 C   0  0  0  0  0  0  0  0  0  0  0  0
  -11.3771   37.2492  -11.8079 N   0  0  0  0  0  0  0  0  0  0  0  0
   -2.2491   36.2218  -18.0171 N   0  0  0  0  0  0  0  0  0  0  0  0
   -2.0823   35.0741  -17.3091 C   0  0  0  0  0  0  0  0  0  0  0  0
   -3.1678   34.2961  -17.0196 N   0  0  0  0  0  0  0  0  0  0  0  0
   -4.4072   34.6647  -17.4420 C   0  0  0  0  0  0  0  0  0  0  0  0
   -4.5796   35.7999  -18.1489 C   0  0  0  0  0  0  0  0  0  0  0  0
   -3.4691   36.5884  -18.4360 C   0  0  0  0  0  0  0  0  0  0  0  0
   -3.4227   37.8373  -19.1524 N   0  0  0  0  0  0  0  0  0  0  0  0
   -5.9012   35.9079  -18.4258 N   0  0  0  0  0  0  0  0  0  0  0  0
   -6.5398   34.8289  -17.8893 C   0  0  0  0  0  0  0  0  0  0  0  0
   -5.6070   34.0648  -17.2859 N   0  0  0  0  0  0  0  0  0  0  0  0
  1  3  1  1  0  0  0
  1  5  2  0  0  0  0
  1  9  1  0  0  0  0
  1 18  1  0  0  0  0
  2  4  1  6  0  0  0
  2  6  2  0  0  0  0
  2 10  1  0  0  0  0
  2 17  1  0  0  0  0
  7  9  1  0  0  0  0
  8 10  1  0  0  0  0
 11  7  1  1  0  0  0
 11 13  1  0  0  0  0
 11 15  1  0  0  0  0
 12  8  1  6  0  0  0
 12 14  1  0  0  0  0
 12 16  1  0  0  0  0
 13 23  1  0  0  0  0
 14 24  1  0  0  0  0
 15 17  1  6  0  0  0
 15 19  1  0  0  0  0
 16 18  1  1  0  0  0
 16 20  1  0  0  0  0
 19 21  1  6  0  0  0
 19 23  1  0  0  0  0
 20 22  1  1  0  0  0
 20 24  1  0  0  0  0
 23 34  1  1  0  0  0
 24 44  1  6  0  0  0
 25 26  2  0  0  0  0
 25 30  1  0  0  0  0
 26 27  1  0  0  0  0
 27 28  2  0  0  0  0
 28 29  1  0  0  0  0
 28 34  1  0  0  0  0
 29 30  2  0  0  0  0
 29 32  1  0  0  0  0
 30 31  1  0  0  0  0
 32 33  2  0  0  0  0
 33 34  1  0  0  0  0
 35 36  2  0  0  0  0
 35 40  1  0  0  0  0
 36 37  1  0  0  0  0
 37 38  2  0  0  0  0
 38 39  1  0  0  0  0
 38 44  1  0  0  0  0
 39 40  2  0  0  0  0
 39 42  1  0  0  0  0
 40 41  1  0  0  0  0
 42 43  2  0  0  0  0
 43 44  1  0  0  0  0
M  CHG  2   3  -1   4  -1
M  END
>  <CHROM.1>
33.35293921,-165.97481914,-8.39512493,35.03125453,-14.49683771,-2.36525865
-0.23956193,-2.18640327

>  <Name>
ligand

>  <RI>
0

>  <Rbt.Current_Directory>
/home/itssahil/PROJECTS/Mol_Feturizer/New_Systems/rnas/4QLM

>  <Rbt.Executable>
rbdock ($Id: //depot/dev/client3/rdock/2013.1/src/exe/rbdock.cxx#4 $)

>  <Rbt.Library>
libRbt.so (2013.1, Build901 2013/11/27)

>  <Rbt.Parameter_File>
/export/apps/rDock/src/rDock_2013.1_src/data/scripts/dock_solv.prm

>  <Rbt.Receptor>
prm/pocket_docking_6.prm

>  <SCORE>
-11.4011

>  <SCORE.INTER>
-11.2289

>  <SCORE.INTER.CONST>
1

>  <SCORE.INTER.POLAR>
0

>  <SCORE.INTER.ROT>
2

>  <SCORE.INTER.SOLV>
25.1256

>  <SCORE.INTER.VDW>
-20.7945

>  <SCORE.INTER.norm>
-0.255202

>  <SCORE.INTRA>
-0.74706

>  <SCORE.INTRA.DIHEDRAL>
0.178322

>  <SCORE.INTRA.DIHEDRAL.0>
2.32994

>  <SCORE.INTRA.POLAR>
0

>  <SCORE.INTRA.POLAR.0>
0

>  <SCORE.INTRA.REPUL>
0

>  <SCORE.INTRA.REPUL.0>
0

>  <SCORE.INTRA.SOLV>
0.396081

>  <SCORE.INTRA.SOLV.lig_0>
-117.703

>  <SCORE.INTRA.VDW>
-1.03426

>  <SCORE.INTRA.VDW.0>
-1.59997

>  <SCORE.INTRA.norm>
-0.0169786

>  <SCORE.RESTR>
0.574837

>  <SCORE.RESTR.CAVITY>
0.574837

>  <SCORE.RESTR.norm>
0.0130645

>  <SCORE.SYSTEM>
0

>  <SCORE.SYSTEM.CONST>
0

>  <SCORE.SYSTEM.DIHEDRAL>
0

>  <SCORE.SYSTEM.SOLV>
0

>  <SCORE.SYSTEM.norm>
0

>  <SCORE.heavy>
44

>  <SCORE.norm>
-0.259116

>  <RMSD>
6.671

$$$$
ligand
 OpenBabel11021811513D
libRbt.so/2013.1/901 2013/11/27
 44 50  0  0  0  0  0  0  0  0999 V2000
   -5.7346   36.9986  -18.0488 P   0  0  2  0  0  0  0  0  0  0  0  0
   -5.0001   33.2064  -14.2693 P   0  0  1  0  0  0  0  0  0  0  0  0
   -5.0455   37.0587  -19.4097 O   0  5  0  0  0  0  0  0  0  0  0  0
   -4.9205   33.9665  -12.9678 O   0  5  0  0  0  0  0  0  0  0  0  0
   -6.1029   38.4212  -17.7023 O   0  0  0  0  0  0  0  0  0  0  0  0
   -5.1679   31.7101  -13.9198 O   0  0  0  0  0  0  0  0  0  0  0  0
   -3.7528   35.4530  -17.6955 C   0  0  0  0  0  0  0  0  0  0  0  0
   -6.3522   33.4184  -16.4591 C   0  0  0  0  0  0  0  0  0  0  0  0
   -4.6777   36.3648  -17.0876 O   0  0  0  0  0  0  0  0  0  0  0  0
   -6.2006   33.9498  -15.1125 O   0  0  0  0  0  0  0  0  0  0  0  0
   -2.7541   34.9490  -16.6591 C   0  0  1  0  0  0  0  0  0  0  0  0
   -7.6162   34.1302  -17.0732 C   0  0  1  0  0  0  0  0  0  0  0  0
   -1.7929   35.8153  -16.5693 O   0  0  0  0  0  0  0  0  0  0  0  0
   -8.5373   33.9752  -16.2120 O   0  0  0  0  0  0  0  0  0  0  0  0
   -3.3472   34.8150  -15.2755 C   0  0  1  0  0  0  0  0  0  0  0  0
   -7.4312   35.6606  -17.0957 C   0  0  1  0  0  0  0  0  0  0  0  0
   -3.6360   33.4978  -15.1022 O   0  0  0  0  0  0  0  0  0  0  0  0
   -7.0997   36.0943  -18.3179 O   0  0  0  0  0  0  0  0  0  0  0  0
   -2.1732   35.2444  -14.3282 C   0  0  1  0  0  0  0  0  0  0  0  0
   -8.7659   36.2822  -16.6250 C   0  0  1  0  0  0  0  0  0  0  0  0
   -1.5245   34.0413  -13.7407 O   0  0  0  0  0  0  0  0  0  0  0  0
   -9.5439   36.8025  -17.7951 O   0  0  0  0  0  0  0  0  0  0  0  0
   -1.3376   35.9157  -15.0540 C   0  0  2  0  0  0  0  0  0  0  0  0
   -9.4099   35.3100  -16.0762 C   0  0  2  0  0  0  0  0  0  0  0  0
   -3.3263   40.8628  -14.4275 N   0  0  0  0  0  0  0  0  0  0  0  0
   -3.9865   39.8045  -14.9763 C   0  0  0  0  0  0  0  0  0  0  0  0
   -3.3879   38.5757  -15.0905 N   0  0  0  0  0  0  0  0  0  0  0  0
   -2.1043   38.4189  -14.6454 C   0  0  0  0  0  0  0  0  0  0  0  0
   -1.4396   39.4523  -14.1099 C   0  0  0  0  0  0  0  0  0  0  0  0
   -2.0586   40.6952  -13.9890 C   0  0  0  0  0  0  0  0  0  0  0  0
   -1.4730   41.8564  -13.4469 N   0  0  0  0  0  0  0  0  0  0  0  0
   -0.2116   39.0163  -13.7574 N   0  0  0  0  0  0  0  0  0  0  0  0
   -0.1240   37.6969  -14.0904 C   0  0  0  0  0  0  0  0  0  0  0  0
   -1.2951   37.3224  -14.6218 N   0  0  0  0  0  0  0  0  0  0  0  0
  -10.9890   38.5591  -12.3252 N   0  0  0  0  0  0  0  0  0  0  0  0
  -10.8805   38.8370  -13.6508 C   0  0  0  0  0  0  0  0  0  0  0  0
  -10.4405   37.8693  -14.5094 N   0  0  0  0  0  0  0  0  0  0  0  0
  -10.1183   36.6333  -14.0415 C   0  0  0  0  0  0  0  0  0  0  0  0
  -10.2278   36.3489  -12.7280 C   0  0  0  0  0  0  0  0  0  0  0  0
  -10.6730   37.3417  -11.8600 C   0  0  0  0  0  0  0  0  0  0  0  0
  -10.8461   37.2664  -10.4319 N   0  0  0  0  0  0  0  0  0  0  0  0
   -9.8409   35.0618  -12.5586 N   0  0  0  0  0  0  0  0  0  0  0  0
   -9.4981   34.5547  -13.7773 C   0  0  0  0  0  0  0  0  0  0  0  0
   -9.6759   35.5331  -14.6878 N   0  0  0  0  0  0  0  0  0  0  0  0
  1  3  1  6  0  0  0
  1  5  2  0  0  0  0
  1  9  1  0  0  0  0
  1 18  1  0  0  0  0
  2  4  1  1  0  0  0
  2  6  2  0  0  0  0
  2 10  1  0  0  0  0
  2 17  1  0  0  0  0
  7  9  1  0  0  0  0
  8 10  1  0  0  0  0
 11  7  1  6  0  0  0
 11 13  1  0  0  0  0
 11 15  1  0  0  0  0
 12  8  1  1  0  0  0
 12 14  1  0  0  0  0
 12 16  1  0  0  0  0
 13 23  1  0  0  0  0
 14 24  1  0  0  0  0
 15 17  1  1  0  0  0
 15 19  1  0  0  0  0
 16 18  1  6  0  0  0
 16 20  1  0  0  0  0
 19 21  1  6  0  0  0
 19 23  1  0  0  0  0
 20 22  1  6  0  0  0
 20 24  1  0  0  0  0
 23 34  1  1  0  0  0
 24 44  1  1  0  0  0
 25 26  2  0  0  0  0
 25 30  1  0  0  0  0
 26 27  1  0  0  0  0
 27 28  2  0  0  0  0
 28 29  1  0  0  0  0
 28 34  1  0  0  0  0
 29 30  2  0  0  0  0
 29 32  1  0  0  0  0
 30 31  1  0  0  0  0
 32 33  2  0  0  0  0
 33 34  1  0  0  0  0
 35 36  2  0  0  0  0
 35 40  1  0  0  0  0
 36 37  1  0  0  0  0
 37 38  2  0  0  0  0
 38 39  1  0  0  0  0
 38 44  1  0  0  0  0
 39 40  2  0  0  0  0
 39 42  1  0  0  0  0
 40 41  1  0  0  0  0
 42 43  2  0  0  0  0
 43 44  1  0  0  0  0
M  CHG  2   3  -1   4  -1
M  END
>  <CHROM.1>
50.45477976,164.62839441,-5.65519421,36.31912880,-15.17922295,-0.13146948
-0.13619462,-2.79067669

>  <Name>
ligand

>  <RI>
0

>  <Rbt.Current_Directory>
/home/itssahil/PROJECTS/Mol_Feturizer/New_Systems/rnas/4QLM

>  <Rbt.Executable>
rbdock ($Id: //depot/dev/client3/rdock/2013.1/src/exe/rbdock.cxx#4 $)

>  <Rbt.Library>
libRbt.so (2013.1, Build901 2013/11/27)

>  <Rbt.Parameter_File>
/export/apps/rDock/src/rDock_2013.1_src/data/scripts/dock_solv.prm

>  <Rbt.Receptor>
prm/pocket_docking_8.prm

>  <SCORE>
-13.3444

>  <SCORE.INTER>
-12.7741

>  <SCORE.INTER.CONST>
1

>  <SCORE.INTER.POLAR>
0

>  <SCORE.INTER.ROT>
2

>  <SCORE.INTER.SOLV>
26.8884

>  <SCORE.INTER.VDW>
-22.4122

>  <SCORE.INTER.norm>
-0.290321

>  <SCORE.INTRA>
-0.570276

>  <SCORE.INTRA.DIHEDRAL>
0.104111

>  <SCORE.INTRA.DIHEDRAL.0>
2.32994

>  <SCORE.INTRA.POLAR>
0

>  <SCORE.INTRA.POLAR.0>
0

>  <SCORE.INTRA.REPUL>
0

>  <SCORE.INTRA.REPUL.0>
0

>  <SCORE.INTRA.SOLV>
0.324635

>  <SCORE.INTRA.SOLV.lig_0>
-117.703

>  <SCORE.INTRA.VDW>
-0.78465

>  <SCORE.INTRA.VDW.0>
-1.59997

>  <SCORE.INTRA.norm>
-0.0129608

>  <SCORE.RESTR>
0

>  <SCORE.RESTR.CAVITY>
0

>  <SCORE.RESTR.norm>
0

>  <SCORE.SYSTEM>
0

>  <SCORE.SYSTEM.CONST>
0

>  <SCORE.SYSTEM.DIHEDRAL>
0

>  <SCORE.SYSTEM.SOLV>
0

>  <SCORE.SYSTEM.norm>
0

>  <SCORE.heavy>
44

>  <SCORE.norm>
-0.303282

>  <RMSD>
6.675

$$$$
ligand
 OpenBabel11021811513D
libRbt.so/2013.1/901 2013/11/27
 44 50  0  0  0  0  0  0  0  0999 V2000
   -6.1189   36.8933  -18.1943 P   0  0  2  0  0  0  0  0  0  0  0  0
   -5.1574   33.3937  -14.1900 P   0  0  1  0  0  0  0  0  0  0  0  0
   -5.4781   36.8742  -19.5798 O   0  5  0  0  0  0  0  0  0  0  0  0
   -5.0536   34.2449  -12.9479 O   0  5  0  0  0  0  0  0  0  0  0  0
   -6.5124   38.3275  -17.9341 O   0  0  0  0  0  0  0  0  0  0  0  0
   -5.2739   31.9221  -13.7320 O   0  0  0  0  0  0  0  0  0  0  0  0
   -4.0864   35.4239  -17.8058 C   0  0  0  0  0  0  0  0  0  0  0  0
   -6.5881   33.4196  -16.3396 C   0  0  0  0  0  0  0  0  0  0  0  0
   -5.0137   36.3537  -17.2298 O   0  0  0  0  0  0  0  0  0  0  0  0
   -6.4048   34.0475  -15.0393 O   0  0  0  0  0  0  0  0  0  0  0  0
   -3.0402   35.0177  -16.7733 C   0  0  1  0  0  0  0  0  0  0  0  0
   -7.8904   34.0563  -16.9561 C   0  0  1  0  0  0  0  0  0  0  0  0
   -2.0996   35.9108  -16.7779 O   0  0  0  0  0  0  0  0  0  0  0  0
   -8.7774   33.9401  -16.0539 O   0  0  0  0  0  0  0  0  0  0  0  0
   -3.5823   34.9668  -15.3634 C   0  0  1  0  0  0  0  0  0  0  0  0
   -7.7465   35.5854  -17.0910 C   0  0  1  0  0  0  0  0  0  0  0  0
   -3.8304   33.6585  -15.0892 O   0  0  0  0  0  0  0  0  0  0  0  0
   -7.4681   35.9401  -18.3513 O   0  0  0  0  0  0  0  0  0  0  0  0
   -2.3885   35.4894  -14.4906 C   0  0  1  0  0  0  0  0  0  0  0  0
   -9.0803   36.2065  -16.6171 C   0  0  1  0  0  0  0  0  0  0  0  0
   -1.6890   34.3462  -13.8447 O   0  0  0  0  0  0  0  0  0  0  0  0
   -9.9109   36.6248  -17.7920 O   0  0  0  0  0  0  0  0  0  0  0  0
   -1.5959   36.1279  -15.2904 C   0  0  2  0  0  0  0  0  0  0  0  0
   -9.6796   35.2600  -15.9798 C   0  0  2  0  0  0  0  0  0  0  0  0
   -0.3991   40.3903  -12.2538 N   0  0  0  0  0  0  0  0  0  0  0  0
   -0.0599   39.0991  -11.9801 C   0  0  0  0  0  0  0  0  0  0  0  0
   -0.4136   38.0776  -12.8244 N   0  0  0  0  0  0  0  0  0  0  0  0
   -1.1216   38.3684  -13.9577 C   0  0  0  0  0  0  0  0  0  0  0  0
   -1.4688   39.6325  -14.2367 C   0  0  0  0  0  0  0  0  0  0  0  0
   -1.0972   40.6658  -13.3782 C   0  0  0  0  0  0  0  0  0  0  0  0
   -1.3976   42.0308  -13.5558 N   0  0  0  0  0  0  0  0  0  0  0  0
   -2.1481   39.6271  -15.4032 N   0  0  0  0  0  0  0  0  0  0  0  0
   -2.2225   38.3371  -15.8386 C   0  0  0  0  0  0  0  0  0  0  0  0
   -1.5757   37.5620  -14.9584 N   0  0  0  0  0  0  0  0  0  0  0  0
   -7.9254   37.4129  -11.5742 N   0  0  0  0  0  0  0  0  0  0  0  0
   -7.2708   37.3420  -12.7629 C   0  0  0  0  0  0  0  0  0  0  0  0
   -7.8713   36.7330  -13.8286 N   0  0  0  0  0  0  0  0  0  0  0  0
   -9.1189   36.2057  -13.7029 C   0  0  0  0  0  0  0  0  0  0  0  0
   -9.7763   36.2764  -12.5278 C   0  0  0  0  0  0  0  0  0  0  0  0
   -9.1557   36.8949  -11.4463 C   0  0  0  0  0  0  0  0  0  0  0  0
   -9.6583   37.0655  -10.1071 N   0  0  0  0  0  0  0  0  0  0  0  0
  -10.9775   35.6739  -12.6988 N   0  0  0  0  0  0  0  0  0  0  0  0
  -11.0568   35.2372  -13.9882 C   0  0  0  0  0  0  0  0  0  0  0  0
   -9.9041   35.5734  -14.6016 N   0  0  0  0  0  0  0  0  0  0  0  0
  1  3  1  6  0  0  0
  1  5  2  0  0  0  0
  1  9  1  0  0  0  0
  1 18  1  0  0  0  0
  2  4  1  1  0  0  0
  2  6  2  0  0  0  0
  2 10  1  0  0  0  0
  2 17  1  0  0  0  0
  7  9  1  0  0  0  0
  8 10  1  0  0  0  0
 11  7  1  6  0  0  0
 11 13  1  0  0  0  0
 11 15  1  0  0  0  0
 12  8  1  1  0  0  0
 12 14  1  0  0  0  0
 12 16  1  0  0  0  0
 13 23  1  0  0  0  0
 14 24  1  0  0  0  0
 15 17  1  1  0  0  0
 15 19  1  0  0  0  0
 16 18  1  6  0  0  0
 16 20  1  0  0  0  0
 19 21  1  6  0  0  0
 19 23  1  0  0  0  0
 20 22  1  6  0  0  0
 20 24  1  0  0  0  0
 23 34  1  1  0  0  0
 24 44  1  1  0  0  0
 25 26  2  0  0  0  0
 25 30  1  0  0  0  0
 26 27  1  0  0  0  0
 27 28  2  0  0  0  0
 28 29  1  0  0  0  0
 28 34  1  0  0  0  0
 29 30  2  0  0  0  0
 29 32  1  0  0  0  0
 30 31  1  0  0  0  0
 32 33  2  0  0  0  0
 33 34  1  0  0  0  0
 35 36  2  0  0  0  0
 35 40  1  0  0  0  0
 36 37  1  0  0  0  0
 37 38  2  0  0  0  0
 38 39  1  0  0  0  0
 38 44  1  0  0  0  0
 39 40  2  0  0  0  0
 39 42  1  0  0  0  0
 40 41  1  0  0  0  0
 42 43  2  0  0  0  0
 43 44  1  0  0  0  0
M  CHG  2   3  -1   4  -1
M  END
>  <CHROM.1>
-170.47803966,80.78296937,-5.45539792,36.27221905,-15.03747075,-2.90938352
0.30549366,1.16884805

>  <Name>
ligand

>  <RI>
0

>  <Rbt.Current_Directory>
/home/itssahil/PROJECTS/Mol_Feturizer/New_Systems/rnas/4QLM

>  <Rbt.Executable>
rbdock ($Id: //depot/dev/client3/rdock/2013.1/src/exe/rbdock.cxx#4 $)

>  <Rbt.Library>
libRbt.so (2013.1, Build901 2013/11/27)

>  <Rbt.Parameter_File>
/export/apps/rDock/src/rDock_2013.1_src/data/scripts/dock_solv.prm

>  <Rbt.Receptor>
prm/pocket_docking_7.prm

>  <SCORE>
-10.7515

>  <SCORE.INTER>
-10.2955

>  <SCORE.INTER.CONST>
1

>  <SCORE.INTER.POLAR>
0

>  <SCORE.INTER.ROT>
2

>  <SCORE.INTER.SOLV>
28.7766

>  <SCORE.INTER.VDW>
-21.3892

>  <SCORE.INTER.norm>
-0.233988

>  <SCORE.INTRA>
-0.458195

>  <SCORE.INTRA.DIHEDRAL>
0.0217741

>  <SCORE.INTRA.DIHEDRAL.0>
2.32994

>  <SCORE.INTRA.POLAR>
0

>  <SCORE.INTRA.POLAR.0>
0

>  <SCORE.INTRA.REPUL>
0

>  <SCORE.INTRA.REPUL.0>
0

>  <SCORE.INTRA.SOLV>
0.185752

>  <SCORE.INTRA.SOLV.lig_0>
-117.703

>  <SCORE.INTRA.VDW>
-0.561958

>  <SCORE.INTRA.VDW.0>
-1.59997

>  <SCORE.INTRA.norm>
-0.0104135

>  <SCORE.RESTR>
0.00217442

>  <SCORE.RESTR.CAVITY>
0.00217442

>  <SCORE.RESTR.norm>
4.94186e-05

>  <SCORE.SYSTEM>
0

>  <SCORE.SYSTEM.CONST>
0

>  <SCORE.SYSTEM.DIHEDRAL>
0

>  <SCORE.SYSTEM.SOLV>
0

>  <SCORE.SYSTEM.norm>
0

>  <SCORE.heavy>
44

>  <SCORE.norm>
-0.244352

>  <RMSD>
6.676

$$$$
ligand
 OpenBabel11021811513D
libRbt.so/2013.1/901 2013/11/27
 44 50  0  0  0  0  0  0  0  0999 V2000
   -5.7393   36.9974  -18.0415 P   0  0  2  0  0  0  0  0  0  0  0  0
   -5.0027   33.2118  -14.2557 P   0  0  1  0  0  0  0  0  0  0  0  0
   -5.0534   37.0533  -19.4041 O   0  5  0  0  0  0  0  0  0  0  0  0
   -4.9185   33.9746  -12.9560 O   0  5  0  0  0  0  0  0  0  0  0  0
   -6.1042   38.4214  -17.6971 O   0  0  0  0  0  0  0  0  0  0  0  0
   -5.1724   31.7166  -13.9025 O   0  0  0  0  0  0  0  0  0  0  0  0
   -3.7595   35.4489  -17.6896 C   0  0  0  0  0  0  0  0  0  0  0  0
   -6.3597   33.4217  -16.4427 C   0  0  0  0  0  0  0  0  0  0  0  0
   -4.6813   36.3636  -17.0815 O   0  0  0  0  0  0  0  0  0  0  0  0
   -6.2038   33.9557  -15.0976 O   0  0  0  0  0  0  0  0  0  0  0  0
   -2.7592   34.9452  -16.6546 C   0  0  1  0  0  0  0  0  0  0  0  0
   -7.6239   34.1345  -17.0553 C   0  0  1  0  0  0  0  0  0  0  0  0
   -1.7963   35.8100  -16.5690 O   0  0  0  0  0  0  0  0  0  0  0  0
   -8.5431   33.9830  -16.1915 O   0  0  0  0  0  0  0  0  0  0  0  0
   -3.3493   34.8152  -15.2693 C   0  0  1  0  0  0  0  0  0  0  0  0
   -7.4361   35.6645  -17.0814 C   0  0  1  0  0  0  0  0  0  0  0  0
   -3.6401   33.4990  -15.0924 O   0  0  0  0  0  0  0  0  0  0  0  0
   -7.1067   36.0950  -18.3054 O   0  0  0  0  0  0  0  0  0  0  0  0
   -2.1722   35.2445  -14.3257 C   0  0  1  0  0  0  0  0  0  0  0  0
   -8.7685   36.2896  -16.6088 C   0  0  1  0  0  0  0  0  0  0  0  0
   -1.5243   34.0415  -13.7372 O   0  0  0  0  0  0  0  0  0  0  0  0
   -9.5483   36.8088  -17.7782 O   0  0  0  0  0  0  0  0  0  0  0  0
   -1.3371   35.9127  -15.0550 C   0  0  2  0  0  0  0  0  0  0  0  0
   -9.4129   35.3197  -16.0565 C   0  0  2  0  0  0  0  0  0  0  0  0
   -3.3161   40.8642  -14.4321 N   0  0  0  0  0  0  0  0  0  0  0  0
   -3.9798   39.8057  -14.9765 C   0  0  0  0  0  0  0  0  0  0  0  0
   -3.3835   38.5757  -15.0900 N   0  0  0  0  0  0  0  0  0  0  0  0
   -2.0986   38.4180  -14.6490 C   0  0  0  0  0  0  0  0  0  0  0  0
   -1.4305   39.4514  -14.1179 C   0  0  0  0  0  0  0  0  0  0  0  0
   -2.0472   40.6955  -13.9975 C   0  0  0  0  0  0  0  0  0  0  0  0
   -1.4580   41.8569  -13.4599 N   0  0  0  0  0  0  0  0  0  0  0  0
   -0.2020   39.0142  -13.7687 N   0  0  0  0  0  0  0  0  0  0  0  0
   -0.1175   37.6941  -14.0992 C   0  0  0  0  0  0  0  0  0  0  0  0
   -1.2910   37.3202  -14.6259 N   0  0  0  0  0  0  0  0  0  0  0  0
  -10.6611   38.6613  -12.2622 N   0  0  0  0  0  0  0  0  0  0  0  0
  -10.4968   38.9497  -13.5798 C   0  0  0  0  0  0  0  0  0  0  0  0
  -10.1598   37.9531  -14.4518 N   0  0  0  0  0  0  0  0  0  0  0  0
   -9.9951   36.6787  -14.0053 C   0  0  0  0  0  0  0  0  0  0  0  0
  -10.1610   36.3843  -12.7000 C   0  0  0  0  0  0  0  0  0  0  0  0
  -10.5004   37.4062  -11.8181 C   0  0  0  0  0  0  0  0  0  0  0  0
  -10.7065   37.3247  -10.3948 N   0  0  0  0  0  0  0  0  0  0  0  0
   -9.9329   35.0572  -12.5519 N   0  0  0  0  0  0  0  0  0  0  0  0
   -9.6311   34.5363  -13.7756 C   0  0  0  0  0  0  0  0  0  0  0  0
   -9.6752   35.5462  -14.6679 N   0  0  0  0  0  0  0  0  0  0  0  0
  1  3  1  6  0  0  0
  1  5  2  0  0  0  0
  1  9  1  0  0  0  0
  1 18  1  0  0  0  0
  2  4  1  1  0  0  0
  2  6  2  0  0  0  0
  2 10  1  0  0  0  0
  2 17  1  0  0  0  0
  7  9  1  0  0  0  0
  8 10  1  0  0  0  0
 11  7  1  6  0  0  0
 11 13  1  0  0  0  0
 11 15  1  0  0  0  0
 12  8  1  1  0  0  0
 12 14  1  0  0  0  0
 12 16  1  0  0  0  0
 13 23  1  0  0  0  0
 14 24  1  0  0  0  0
 15 17  1  1  0  0  0
 15 19  1  0  0  0  0
 16 18  1  6  0  0  0
 16 20  1  0  0  0  0
 19 21  1  6  0  0  0
 19 23  1  0  0  0  0
 20 22  1  6  0  0  0
 20 24  1  0  0  0  0
 23 34  1  1  0  0  0
 24 44  1  1  0  0  0
 25 26  2  0  0  0  0
 25 30  1  0  0  0  0
 26 27  1  0  0  0  0
 27 28  2  0  0  0  0
 28 29  1  0  0  0  0
 28 34  1  0  0  0  0
 29 30  2  0  0  0  0
 29 32  1  0  0  0  0
 30 31  1  0  0  0  0
 32 33  2  0  0  0  0
 33 34  1  0  0  0  0
 35 36  2  0  0  0  0
 35 40  1  0  0  0  0
 36 37  1  0  0  0  0
 37 38  2  0  0  0  0
 38 39  1  0  0  0  0
 38 44  1  0  0  0  0
 39 40  2  0  0  0  0
 39 42  1  0  0  0  0
 40 41  1  0  0  0  0
 42 43  2  0  0  0  0
 43 44  1  0  0  0  0
M  CHG  2   3  -1   4  -1
M  END
>  <CHROM.1>
50.51437698,157.68977267,-5.63009095,36.33012159,-15.16697906,-0.13938062
-0.14040759,-2.78039200

>  <Name>
ligand

>  <RI>
0

>  <Rbt.Current_Directory>
/home/itssahil/PROJECTS/Mol_Feturizer/New_Systems/rnas/4QLM

>  <Rbt.Executable>
rbdock ($Id: //depot/dev/client3/rdock/2013.1/src/exe/rbdock.cxx#4 $)

>  <Rbt.Library>
libRbt.so (2013.1, Build901 2013/11/27)

>  <Rbt.Parameter_File>
/export/apps/rDock/src/rDock_2013.1_src/data/scripts/dock_solv.prm

>  <Rbt.Receptor>
prm/pocket_docking_8.prm

>  <SCORE>
-13.386

>  <SCORE.INTER>
-12.8713

>  <SCORE.INTER.CONST>
1

>  <SCORE.INTER.POLAR>
0

>  <SCORE.INTER.ROT>
2

>  <SCORE.INTER.SOLV>
26.7863

>  <SCORE.INTER.VDW>
-22.4429

>  <SCORE.INTER.norm>
-0.292529

>  <SCORE.INTRA>
-0.514726

>  <SCORE.INTRA.DIHEDRAL>
0.101676

>  <SCORE.INTRA.DIHEDRAL.0>
2.32994

>  <SCORE.INTRA.POLAR>
0

>  <SCORE.INTRA.POLAR.0>
0

>  <SCORE.INTRA.REPUL>
0

>  <SCORE.INTRA.REPUL.0>
0

>  <SCORE.INTRA.SOLV>
0.326844

>  <SCORE.INTRA.SOLV.lig_0>
-117.703

>  <SCORE.INTRA.VDW>
-0.728986

>  <SCORE.INTRA.VDW.0>
-1.59997

>  <SCORE.INTRA.norm>
-0.0116983

>  <SCORE.RESTR>
0

>  <SCORE.RESTR.CAVITY>
0

>  <SCORE.RESTR.norm>
0

>  <SCORE.SYSTEM>
0

>  <SCORE.SYSTEM.CONST>
0

>  <SCORE.SYSTEM.DIHEDRAL>
0

>  <SCORE.SYSTEM.SOLV>
0

>  <SCORE.SYSTEM.norm>
0

>  <SCORE.heavy>
44

>  <SCORE.norm>
-0.304227

>  <RMSD>
6.689

$$$$
ligand
 OpenBabel11021811513D
libRbt.so/2013.1/901 2013/11/27
 44 50  0  0  0  0  0  0  0  0999 V2000
   -5.7024   36.9893  -18.0532 P   0  0  2  0  0  0  0  0  0  0  0  0
   -4.9904   33.2168  -14.2495 P   0  0  1  0  0  0  0  0  0  0  0  0
   -5.0064   37.0414  -19.4109 O   0  5  0  0  0  0  0  0  0  0  0  0
   -4.9166   33.9840  -12.9518 O   0  5  0  0  0  0  0  0  0  0  0  0
   -6.0711   38.4141  -17.7162 O   0  0  0  0  0  0  0  0  0  0  0  0
   -5.1613   31.7227  -13.8928 O   0  0  0  0  0  0  0  0  0  0  0  0
   -3.7238   35.4438  -17.6815 C   0  0  0  0  0  0  0  0  0  0  0  0
   -6.3312   33.4183  -16.4473 C   0  0  0  0  0  0  0  0  0  0  0  0
   -4.6509   36.3597  -17.0832 O   0  0  0  0  0  0  0  0  0  0  0  0
   -6.1859   33.9568  -15.1028 O   0  0  0  0  0  0  0  0  0  0  0  0
   -2.7307   34.9446  -16.6375 C   0  0  1  0  0  0  0  0  0  0  0  0
   -7.5915   34.1279  -17.0716 C   0  0  1  0  0  0  0  0  0  0  0  0
   -1.7692   35.8105  -16.5475 O   0  0  0  0  0  0  0  0  0  0  0  0
   -8.5170   33.9783  -16.2142 O   0  0  0  0  0  0  0  0  0  0  0  0
   -3.3310   34.8185  -15.2561 C   0  0  1  0  0  0  0  0  0  0  0  0
   -7.4050   35.6580  -17.1014 C   0  0  1  0  0  0  0  0  0  0  0  0
   -3.6218   33.5026  -15.0771 O   0  0  0  0  0  0  0  0  0  0  0  0
   -7.0669   36.0847  -18.3243 O   0  0  0  0  0  0  0  0  0  0  0  0
   -2.1613   35.2520  -14.3053 C   0  0  1  0  0  0  0  0  0  0  0  0
   -8.7414   36.2833  -16.6408 C   0  0  1  0  0  0  0  0  0  0  0  0
   -1.5167   34.0516  -13.7080 O   0  0  0  0  0  0  0  0  0  0  0  0
   -9.5130   36.7980  -17.8176 O   0  0  0  0  0  0  0  0  0  0  0  0
   -1.3214   35.9187  -15.0305 C   0  0  2  0  0  0  0  0  0  0  0  0
   -9.3891   35.3147  -16.0900 C   0  0  2  0  0  0  0  0  0  0  0  0
   -3.3104   40.8697  -14.4368 N   0  0  0  0  0  0  0  0  0  0  0  0
   -3.9692   39.8087  -14.9821 C   0  0  0  0  0  0  0  0  0  0  0  0
   -3.3707   38.5791  -15.0878 N   0  0  0  0  0  0  0  0  0  0  0  0
   -2.0886   38.4243  -14.6377 C   0  0  0  0  0  0  0  0  0  0  0  0
   -1.4252   39.4602  -14.1056 C   0  0  0  0  0  0  0  0  0  0  0  0
   -2.0441   40.7040  -13.9933 C   0  0  0  0  0  0  0  0  0  0  0  0
   -1.4599   41.8679  -13.4557 N   0  0  0  0  0  0  0  0  0  0  0  0
   -0.1985   39.0257  -13.7469 N   0  0  0  0  0  0  0  0  0  0  0  0
   -0.1103   37.7046  -14.0725 C   0  0  0  0  0  0  0  0  0  0  0  0
   -1.2798   37.3276  -14.6057 N   0  0  0  0  0  0  0  0  0  0  0  0
  -10.7905   38.6405  -12.3357 N   0  0  0  0  0  0  0  0  0  0  0  0
  -10.6392   38.9204  -13.6567 C   0  0  0  0  0  0  0  0  0  0  0  0
  -10.2565   37.9299  -14.5168 N   0  0  0  0  0  0  0  0  0  0  0  0
  -10.0336   36.6699  -14.0551 C   0  0  0  0  0  0  0  0  0  0  0  0
  -10.1862   36.3838  -12.7463 C   0  0  0  0  0  0  0  0  0  0  0  0
  -10.5724   37.3995  -11.8766 C   0  0  0  0  0  0  0  0  0  0  0  0
  -10.7750   37.3256  -10.4523 N   0  0  0  0  0  0  0  0  0  0  0  0
   -9.8975   35.0705  -12.5825 N   0  0  0  0  0  0  0  0  0  0  0  0
   -9.5717   34.5494  -13.7999 C   0  0  0  0  0  0  0  0  0  0  0  0
   -9.6618   35.5455  -14.7042 N   0  0  0  0  0  0  0  0  0  0  0  0
  1  3  1  6  0  0  0
  1  5  2  0  0  0  0
  1  9  1  0  0  0  0
  1 18  1  0  0  0  0
  2  4  1  1  0  0  0
  2  6  2  0  0  0  0
  2 10  1  0  0  0  0
  2 17  1  0  0  0  0
  7  9  1  0  0  0  0
  8 10  1  0  0  0  0
 11  7  1  6  0  0  0
 11 13  1  0  0  0  0
 11 15  1  0  0  0  0
 12  8  1  1  0  0  0
 12 14  1  0  0  0  0
 12 16  1  0  0  0  0
 13 23  1  0  0  0  0
 14 24  1  0  0  0  0
 15 17  1  1  0  0  0
 15 19  1  0  0  0  0
 16 18  1  6  0  0  0
 16 20  1  0  0  0  0
 19 21  1  6  0  0  0
 19 23  1  0  0  0  0
 20 22  1  6  0  0  0
 20 24  1  0  0  0  0
 23 34  1  1  0  0  0
 24 44  1  1  0  0  0
 25 26  2  0  0  0  0
 25 30  1  0  0  0  0
 26 27  1  0  0  0  0
 27 28  2  0  0  0  0
 28 29  1  0  0  0  0
 28 34  1  0  0  0  0
 29 30  2  0  0  0  0
 29 32  1  0  0  0  0
 30 31  1  0  0  0  0
 32 33  2  0  0  0  0
 33 34  1  0  0  0  0
 35 36  2  0  0  0  0
 35 40  1  0  0  0  0
 36 37  1  0  0  0  0
 37 38  2  0  0  0  0
 38 39  1  0  0  0  0
 38 44  1  0  0  0  0
 39 40  2  0  0  0  0
 39 42  1  0  0  0  0
 40 41  1  0  0  0  0
 42 43  2  0  0  0  0
 43 44  1  0  0  0  0
M  CHG  2   3  -1   4  -1
M  END
>  <CHROM.1>
50.56306031,160.34895863,-5.62327790,36.32944597,-15.17713195,-0.13838073
-0.13260379,-2.78874648

>  <Name>
ligand

>  <RI>
0

>  <Rbt.Current_Directory>
/home/itssahil/PROJECTS/Mol_Feturizer/New_Systems/rnas/4QLM

>  <Rbt.Executable>
rbdock ($Id: //depot/dev/client3/rdock/2013.1/src/exe/rbdock.cxx#4 $)

>  <Rbt.Library>
libRbt.so (2013.1, Build901 2013/11/27)

>  <Rbt.Parameter_File>
/export/apps/rDock/src/rDock_2013.1_src/data/scripts/dock_solv.prm

>  <Rbt.Receptor>
prm/pocket_docking_7.prm

>  <SCORE>
-13.3597

>  <SCORE.INTER>
-12.8232

>  <SCORE.INTER.CONST>
1

>  <SCORE.INTER.POLAR>
0

>  <SCORE.INTER.ROT>
2

>  <SCORE.INTER.SOLV>
26.7059

>  <SCORE.INTER.VDW>
-22.3841

>  <SCORE.INTER.norm>
-0.291436

>  <SCORE.INTRA>
-0.536459

>  <SCORE.INTRA.DIHEDRAL>
0.102106

>  <SCORE.INTRA.DIHEDRAL.0>
2.32994

>  <SCORE.INTRA.POLAR>
0

>  <SCORE.INTRA.POLAR.0>
0

>  <SCORE.INTRA.REPUL>
0

>  <SCORE.INTRA.REPUL.0>
0

>  <SCORE.INTRA.SOLV>
0.325275

>  <SCORE.INTRA.SOLV.lig_0>
-117.703

>  <SCORE.INTRA.VDW>
-0.750149

>  <SCORE.INTRA.VDW.0>
-1.59997

>  <SCORE.INTRA.norm>
-0.0121922

>  <SCORE.RESTR>
0

>  <SCORE.RESTR.CAVITY>
0

>  <SCORE.RESTR.norm>
0

>  <SCORE.SYSTEM>
0

>  <SCORE.SYSTEM.CONST>
0

>  <SCORE.SYSTEM.DIHEDRAL>
0

>  <SCORE.SYSTEM.SOLV>
0

>  <SCORE.SYSTEM.norm>
0

>  <SCORE.heavy>
44

>  <SCORE.norm>
-0.303629

>  <RMSD>
6.692

$$$$
ligand
 OpenBabel11021811513D
libRbt.so/2013.1/901 2013/11/27
 44 50  0  0  0  0  0  0  0  0999 V2000
   -8.1464   31.8361  -12.6737 P   0  0  2  0  0  0  0  0  0  0  0  0
   -7.7231   34.6452  -17.2710 P   0  0  1  0  0  0  0  0  0  0  0  0
   -8.2945   30.3214  -12.5546 O   0  5  0  0  0  0  0  0  0  0  0  0
   -8.6095   35.8504  -17.0718 O   0  5  0  0  0  0  0  0  0  0  0  0
   -8.7716   32.4176  -11.4285 O   0  0  0  0  0  0  0  0  0  0  0  0
   -6.8570   34.9117  -18.5232 O   0  0  0  0  0  0  0  0  0  0  0  0
   -8.9034   31.2034  -15.0120 C   0  0  0  0  0  0  0  0  0  0  0  0
   -6.1377   33.2460  -15.7888 C   0  0  0  0  0  0  0  0  0  0  0  0
   -8.8930   32.2132  -13.9940 O   0  0  0  0  0  0  0  0  0  0  0  0
   -6.9641   34.4436  -15.8260 O   0  0  0  0  0  0  0  0  0  0  0  0
   -9.7015   31.6832  -16.2196 C   0  0  1  0  0  0  0  0  0  0  0  0
   -5.3818   33.2758  -14.4070 C   0  0  1  0  0  0  0  0  0  0  0  0
  -10.9552   31.4320  -16.0014 O   0  0  0  0  0  0  0  0  0  0  0  0
   -4.8498   34.4277  -14.3428 O   0  0  0  0  0  0  0  0  0  0  0  0
   -9.5923   33.1725  -16.4529 C   0  0  1  0  0  0  0  0  0  0  0  0
   -6.3801   33.3007  -13.2323 C   0  0  1  0  0  0  0  0  0  0  0  0
   -8.6807   33.3445  -17.4467 O   0  0  0  0  0  0  0  0  0  0  0  0
   -6.5067   32.0909  -12.6737 O   0  0  0  0  0  0  0  0  0  0  0  0
  -11.0243   33.5731  -16.9521 C   0  0  1  0  0  0  0  0  0  0  0  0
   -5.8497   34.3344  -12.2129 C   0  0  1  0  0  0  0  0  0  0  0  0
  -11.0226   33.7372  -18.4307 O   0  0  0  0  0  0  0  0  0  0  0  0
   -5.1894   33.6426  -11.0593 O   0  0  0  0  0  0  0  0  0  0  0  0
  -11.8230   32.6208  -16.5906 C   0  0  2  0  0  0  0  0  0  0  0  0
   -4.9743   35.0224  -12.8621 C   0  0  2  0  0  0  0  0  0  0  0  0
  -13.2434   34.6976  -11.8482 N   0  0  0  0  0  0  0  0  0  0  0  0
  -11.9662   34.4728  -12.2668 C   0  0  0  0  0  0  0  0  0  0  0  0
  -11.7078   33.9371  -13.5028 N   0  0  0  0  0  0  0  0  0  0  0  0
  -12.7565   33.6233  -14.3224 C   0  0  0  0  0  0  0  0  0  0  0  0
  -14.0184   33.8319  -13.9218 C   0  0  0  0  0  0  0  0  0  0  0  0
  -14.2719   34.3855  -12.6681 C   0  0  0  0  0  0  0  0  0  0  0  0
  -15.5460   34.6542  -12.1300 N   0  0  0  0  0  0  0  0  0  0  0  0
  -14.8393   33.4406  -14.9195 N   0  0  0  0  0  0  0  0  0  0  0  0
  -14.0648   32.9791  -15.9424 C   0  0  0  0  0  0  0  0  0  0  0  0
  -12.7806   33.1068  -15.5836 N   0  0  0  0  0  0  0  0  0  0  0  0
   -6.6640   39.3567  -10.5214 N   0  0  0  0  0  0  0  0  0  0  0  0
   -6.4866   38.1377   -9.9479 C   0  0  0  0  0  0  0  0  0  0  0  0
   -6.0401   37.0932  -10.7074 N   0  0  0  0  0  0  0  0  0  0  0  0
   -5.7692   37.2731  -12.0283 C   0  0  0  0  0  0  0  0  0  0  0  0
   -5.9386   38.4810  -12.6031 C   0  0  0  0  0  0  0  0  0  0  0  0
   -6.3975   39.5384  -11.8230 C   0  0  0  0  0  0  0  0  0  0  0  0
   -6.6658   40.8947  -12.2274 N   0  0  0  0  0  0  0  0  0  0  0  0
   -5.5977   38.3597  -13.9085 N   0  0  0  0  0  0  0  0  0  0  0  0
   -5.2123   37.0706  -14.1316 C   0  0  0  0  0  0  0  0  0  0  0  0
   -5.3190   36.4077  -12.9623 N   0  0  0  0  0  0  0  0  0  0  0  0
  1  3  1  1  0  0  0
  1  5  2  0  0  0  0
  1  9  1  0  0  0  0
  1 18  1  0  0  0  0
  2  4  1  1  0  0  0
  2  6  2  0  0  0  0
  2 10  1  0  0  0  0
  2 17  1  0  0  0  0
  7  9  1  0  0  0  0
  8 10  1  0  0  0  0
 11  7  1  1  0  0  0
 11 13  1  0  0  0  0
 11 15  1  0  0  0  0
 12  8  1  6  0  0  0
 12 14  1  0  0  0  0
 12 16  1  0  0  0  0
 13 23  1  0  0  0  0
 14 24  1  0  0  0  0
 15 17  1  6  0  0  0
 15 19  1  0  0  0  0
 16 18  1  1  0  0  0
 16 20  1  0  0  0  0
 19 21  1  6  0  0  0
 19 23  1  0  0  0  0
 20 22  1  1  0  0  0
 20 24  1  0  0  0  0
 23 34  1  1  0  0  0
 24 44  1  6  0  0  0
 25 26  2  0  0  0  0
 25 30  1  0  0  0  0
 26 27  1  0  0  0  0
 27 28  2  0  0  0  0
 28 29  1  0  0  0  0
 28 34  1  0  0  0  0
 29 30  2  0  0  0  0
 29 32  1  0  0  0  0
 30 31  1  0  0  0  0
 32 33  2  0  0  0  0
 33 34  1  0  0  0  0
 35 36  2  0  0  0  0
 35 40  1  0  0  0  0
 36 37  1  0  0  0  0
 37 38  2  0  0  0  0
 38 39  1  0  0  0  0
 38 44  1  0  0  0  0
 39 40  2  0  0  0  0
 39 42  1  0  0  0  0
 40 41  1  0  0  0  0
 42 43  2  0  0  0  0
 43 44  1  0  0  0  0
M  CHG  2   3  -1   4  -1
M  END
>  <CHROM.1>
58.01359162,166.27781352,-8.69008536,34.36564017,-14.12904403,-2.55774836
0.17218920,0.85533540

>  <Name>
ligand

>  <RI>
0

>  <Rbt.Current_Directory>
/home/itssahil/PROJECTS/Mol_Feturizer/New_Systems/rnas/4QLM

>  <Rbt.Executable>
rbdock ($Id: //depot/dev/client3/rdock/2013.1/src/exe/rbdock.cxx#4 $)

>  <Rbt.Library>
libRbt.so (2013.1, Build901 2013/11/27)

>  <Rbt.Parameter_File>
/export/apps/rDock/src/rDock_2013.1_src/data/scripts/dock_solv.prm

>  <Rbt.Receptor>
prm/pocket_docking_7.prm

>  <SCORE>
-9.90683

>  <SCORE.INTER>
-9.33176

>  <SCORE.INTER.CONST>
1

>  <SCORE.INTER.POLAR>
0

>  <SCORE.INTER.ROT>
2

>  <SCORE.INTER.SOLV>
25.5635

>  <SCORE.INTER.VDW>
-19.6757

>  <SCORE.INTER.norm>
-0.212086

>  <SCORE.INTRA>
-0.575063

>  <SCORE.INTRA.DIHEDRAL>
0.0645795

>  <SCORE.INTRA.DIHEDRAL.0>
2.32994

>  <SCORE.INTRA.POLAR>
0

>  <SCORE.INTRA.POLAR.0>
0

>  <SCORE.INTRA.REPUL>
0

>  <SCORE.INTRA.REPUL.0>
0

>  <SCORE.INTRA.SOLV>
0.194759

>  <SCORE.INTRA.SOLV.lig_0>
-117.703

>  <SCORE.INTRA.VDW>
-0.704733

>  <SCORE.INTRA.VDW.0>
-1.59997

>  <SCORE.INTRA.norm>
-0.0130696

>  <SCORE.RESTR>
0

>  <SCORE.RESTR.CAVITY>
0

>  <SCORE.RESTR.norm>
0

>  <SCORE.SYSTEM>
0

>  <SCORE.SYSTEM.CONST>
0

>  <SCORE.SYSTEM.DIHEDRAL>
0

>  <SCORE.SYSTEM.SOLV>
0

>  <SCORE.SYSTEM.norm>
0

>  <SCORE.heavy>
44

>  <SCORE.norm>
-0.225155

>  <RMSD>
6.703

$$$$
ligand
 OpenBabel11021811513D
libRbt.so/2013.1/901 2013/11/27
 44 50  0  0  0  0  0  0  0  0999 V2000
   -4.7217   33.6729  -13.7661 P   0  0  2  0  0  0  0  0  0  0  0  0
   -5.6525   37.1104  -17.8309 P   0  0  1  0  0  0  0  0  0  0  0  0
   -5.0722   32.1873  -13.7453 O   0  5  0  0  0  0  0  0  0  0  0  0
   -6.1657   38.3652  -17.1675 O   0  5  0  0  0  0  0  0  0  0  0  0
   -4.6974   34.1181  -12.3236 O   0  0  0  0  0  0  0  0  0  0  0  0
   -5.3145   37.4686  -19.2960 O   0  0  0  0  0  0  0  0  0  0  0  0
   -6.4321   33.5172  -15.6346 C   0  0  0  0  0  0  0  0  0  0  0  0
   -3.8826   35.3132  -17.2777 C   0  0  0  0  0  0  0  0  0  0  0  0
   -5.8481   34.3426  -14.6178 O   0  0  0  0  0  0  0  0  0  0  0  0
   -4.4355   36.5913  -16.8540 O   0  0  0  0  0  0  0  0  0  0  0  0
   -7.5430   34.2757  -16.3531 C   0  0  1  0  0  0  0  0  0  0  0  0
   -2.6530   35.0313  -16.3343 C   0  0  1  0  0  0  0  0  0  0  0  0
   -8.6337   34.1441  -15.6636 O   0  0  0  0  0  0  0  0  0  0  0  0
   -1.9470   36.0864  -16.3826 O   0  0  0  0  0  0  0  0  0  0  0  0
   -7.2767   35.7593  -16.4639 C   0  0  1  0  0  0  0  0  0  0  0  0
   -3.0902   34.9869  -14.8564 C   0  0  1  0  0  0  0  0  0  0  0  0
   -6.8127   35.9782  -17.7228 O   0  0  0  0  0  0  0  0  0  0  0  0
   -3.1960   33.7271  -14.4165 O   0  0  0  0  0  0  0  0  0  0  0  0
   -8.6963   36.4025  -16.2871 C   0  0  1  0  0  0  0  0  0  0  0  0
   -2.0317   35.7735  -14.0502 C   0  0  1  0  0  0  0  0  0  0  0  0
   -9.2458   36.7996  -17.6114 O   0  0  0  0  0  0  0  0  0  0  0  0
   -1.1035   34.8323  -13.3447 O   0  0  0  0  0  0  0  0  0  0  0  0
   -9.4419   35.5067  -15.7238 C   0  0  2  0  0  0  0  0  0  0  0  0
   -1.3758   36.4471  -14.9317 C   0  0  2  0  0  0  0  0  0  0  0  0
   -8.5004   37.1445  -10.6986 N   0  0  0  0  0  0  0  0  0  0  0  0
   -7.5512   36.8939  -11.6437 C   0  0  0  0  0  0  0  0  0  0  0  0
   -7.8966   36.4789  -12.9047 N   0  0  0  0  0  0  0  0  0  0  0  0
   -9.2194   36.3134  -13.2097 C   0  0  0  0  0  0  0  0  0  0  0  0
  -10.1640   36.5489  -12.2885 C   0  0  0  0  0  0  0  0  0  0  0  0
   -9.8049   36.9796  -11.0125 C   0  0  0  0  0  0  0  0  0  0  0  0
  -10.6962   37.2608   -9.9582 N   0  0  0  0  0  0  0  0  0  0  0  0
  -11.3650   36.3127  -12.8577 N   0  0  0  0  0  0  0  0  0  0  0  0
  -11.1483   35.9196  -14.1453 C   0  0  0  0  0  0  0  0  0  0  0  0
   -9.8278   35.9361  -14.3696 N   0  0  0  0  0  0  0  0  0  0  0  0
    0.5835   40.8209  -12.8941 N   0  0  0  0  0  0  0  0  0  0  0  0
    1.0966   39.5679  -12.7792 C   0  0  0  0  0  0  0  0  0  0  0  0
    0.4530   38.5183  -13.3719 N   0  0  0  0  0  0  0  0  0  0  0  0
   -0.6912   38.7263  -14.0775 C   0  0  0  0  0  0  0  0  0  0  0  0
   -1.2037   39.9675  -14.1996 C   0  0  0  0  0  0  0  0  0  0  0  0
   -0.5439   41.0303  -13.5894 C   0  0  0  0  0  0  0  0  0  0  0  0
   -0.9176   42.4214  -13.5731 N   0  0  0  0  0  0  0  0  0  0  0  0
   -2.3316   39.8687  -14.9432 N   0  0  0  0  0  0  0  0  0  0  0  0
   -2.5066   38.5594  -15.2824 C   0  0  0  0  0  0  0  0  0  0  0  0
   -1.4855   37.8617  -14.7450 N   0  0  0  0  0  0  0  0  0  0  0  0
  1  3  1  1  0  0  0
  1  5  2  0  0  0  0
  1  9  1  0  0  0  0
  1 18  1  0  0  0  0
  2  4  1  1  0  0  0
  2  6  2  0  0  0  0
  2 10  1  0  0  0  0
  2 17  1  0  0  0  0
  7  9  1  0  0  0  0
  8 10  1  0  0  0  0
 11  7  1  1  0  0  0
 11 13  1  0  0  0  0
 11 15  1  0  0  0  0
 12  8  1  6  0  0  0
 12 14  1  0  0  0  0
 12 16  1  0  0  0  0
 13 23  1  0  0  0  0
 14 24  1  0  0  0  0
 15 17  1  6  0  0  0
 15 19  1  0  0  0  0
 16 18  1  1  0  0  0
 16 20  1  0  0  0  0
 19 21  1  6  0  0  0
 19 23  1  0  0  0  0
 20 22  1  6  0  0  0
 20 24  1  0  0  0  0
 23 34  1  1  0  0  0
 24 44  1  1  0  0  0
 25 26  2  0  0  0  0
 25 30  1  0  0  0  0
 26 27  1  0  0  0  0
 27 28  2  0  0  0  0
 28 29  1  0  0  0  0
 28 34  1  0  0  0  0
 29 30  2  0  0  0  0
 29 32  1  0  0  0  0
 30 31  1  0  0  0  0
 32 33  2  0  0  0  0
 33 34  1  0  0  0  0
 35 36  2  0  0  0  0
 35 40  1  0  0  0  0
 36 37  1  0  0  0  0
 37 38  2  0  0  0  0
 38 39  1  0  0  0  0
 38 44  1  0  0  0  0
 39 40  2  0  0  0  0
 39 42  1  0  0  0  0
 40 41  1  0  0  0  0
 42 43  2  0  0  0  0
 43 44  1  0  0  0  0
M  CHG  2   3  -1   4  -1
M  END
>  <CHROM.1>
63.03224841,-146.13128488,-5.20371039,36.48522667,-14.71001430,-2.99627950
0.29430622,1.03350445

>  <Name>
ligand

>  <RI>
0

>  <Rbt.Current_Directory>
/home/itssahil/PROJECTS/Mol_Feturizer/New_Systems/rnas/4QLM

>  <Rbt.Executable>
rbdock ($Id: //depot/dev/client3/rdock/2013.1/src/exe/rbdock.cxx#4 $)

>  <Rbt.Library>
libRbt.so (2013.1, Build901 2013/11/27)

>  <Rbt.Parameter_File>
/export/apps/rDock/src/rDock_2013.1_src/data/scripts/dock_solv.prm

>  <Rbt.Receptor>
prm/pocket_docking_8.prm

>  <SCORE>
-12.8853

>  <SCORE.INTER>
-11.8899

>  <SCORE.INTER.CONST>
1

>  <SCORE.INTER.POLAR>
0

>  <SCORE.INTER.ROT>
2

>  <SCORE.INTER.SOLV>
27.1742

>  <SCORE.INTER.VDW>
-21.918

>  <SCORE.INTER.norm>
-0.270225

>  <SCORE.INTRA>
-0.995377

>  <SCORE.INTRA.DIHEDRAL>
0.0552294

>  <SCORE.INTRA.DIHEDRAL.0>
2.32994

>  <SCORE.INTRA.POLAR>
0

>  <SCORE.INTRA.POLAR.0>
0

>  <SCORE.INTRA.REPUL>
0

>  <SCORE.INTRA.REPUL.0>
0

>  <SCORE.INTRA.SOLV>
0.0441164

>  <SCORE.INTRA.SOLV.lig_0>
-117.703

>  <SCORE.INTRA.VDW>
-1.04505

>  <SCORE.INTRA.VDW.0>
-1.59997

>  <SCORE.INTRA.norm>
-0.0226222

>  <SCORE.RESTR>
0

>  <SCORE.RESTR.CAVITY>
0

>  <SCORE.RESTR.norm>
0

>  <SCORE.SYSTEM>
0

>  <SCORE.SYSTEM.CONST>
0

>  <SCORE.SYSTEM.DIHEDRAL>
0

>  <SCORE.SYSTEM.SOLV>
0

>  <SCORE.SYSTEM.norm>
0

>  <SCORE.heavy>
44

>  <SCORE.norm>
-0.292847

>  <RMSD>
6.720

$$$$
ligand
 OpenBabel11021811513D
libRbt.so/2013.1/901 2013/11/27
 44 50  0  0  0  0  0  0  0  0999 V2000
   -4.9126   33.3583  -13.9691 P   0  0  2  0  0  0  0  0  0  0  0  0
   -5.9324   36.8365  -17.9775 P   0  0  1  0  0  0  0  0  0  0  0  0
   -5.2639   31.8727  -13.9550 O   0  5  0  0  0  0  0  0  0  0  0  0
   -6.4292   38.0851  -17.2902 O   0  5  0  0  0  0  0  0  0  0  0  0
   -4.8552   33.7891  -12.5232 O   0  0  0  0  0  0  0  0  0  0  0  0
   -5.6274   37.2090  -19.4462 O   0  0  0  0  0  0  0  0  0  0  0  0
   -6.6652   33.2222  -15.7998 C   0  0  0  0  0  0  0  0  0  0  0  0
   -4.1520   35.0327  -17.4825 C   0  0  0  0  0  0  0  0  0  0  0  0
   -6.0574   34.0371  -14.7884 O   0  0  0  0  0  0  0  0  0  0  0  0
   -4.6940   36.3069  -17.0337 O   0  0  0  0  0  0  0  0  0  0  0  0
   -7.7914   33.9886  -16.4853 C   0  0  1  0  0  0  0  0  0  0  0  0
   -2.9016   34.7406  -16.5700 C   0  0  1  0  0  0  0  0  0  0  0  0
   -8.8663   33.8509  -15.7725 O   0  0  0  0  0  0  0  0  0  0  0  0
   -2.1959   35.7957  -16.6239 O   0  0  0  0  0  0  0  0  0  0  0  0
   -7.5264   35.4730  -16.5873 C   0  0  1  0  0  0  0  0  0  0  0  0
   -3.3051   34.6818  -15.0832 C   0  0  1  0  0  0  0  0  0  0  0  0
   -7.0908   35.7041  -17.8543 O   0  0  0  0  0  0  0  0  0  0  0  0
   -3.4021   33.4178  -14.6534 O   0  0  0  0  0  0  0  0  0  0  0  0
   -8.9410   36.1154  -16.3720 C   0  0  1  0  0  0  0  0  0  0  0  0
   -2.2279   35.4597  -14.2934 C   0  0  1  0  0  0  0  0  0  0  0  0
   -9.5201   36.5260  -17.6795 O   0  0  0  0  0  0  0  0  0  0  0  0
   -1.2847   34.5109  -13.6185 O   0  0  0  0  0  0  0  0  0  0  0  0
   -9.6744   35.2146  -15.8008 C   0  0  2  0  0  0  0  0  0  0  0  0
   -1.5915   36.1416  -15.1828 C   0  0  2  0  0  0  0  0  0  0  0  0
  -11.0706   38.7539  -12.0133 N   0  0  0  0  0  0  0  0  0  0  0  0
  -10.8823   39.0354  -13.3333 C   0  0  0  0  0  0  0  0  0  0  0  0
  -10.5262   38.0555  -14.2247 N   0  0  0  0  0  0  0  0  0  0  0  0
  -10.3566   36.7763  -13.7718 C   0  0  0  0  0  0  0  0  0  0  0  0
  -10.5312   36.4854  -12.4752 C   0  0  0  0  0  0  0  0  0  0  0  0
  -10.9022   37.4852  -11.5778 C   0  0  0  0  0  0  0  0  0  0  0  0
  -11.1166   37.3121  -10.1961 N   0  0  0  0  0  0  0  0  0  0  0  0
  -10.3059   35.1643  -12.3136 N   0  0  0  0  0  0  0  0  0  0  0  0
   -9.9816   34.6427  -13.5309 C   0  0  0  0  0  0  0  0  0  0  0  0
  -10.0291   35.6307  -14.4340 N   0  0  0  0  0  0  0  0  0  0  0  0
   -0.3982   40.3117  -12.3008 N   0  0  0  0  0  0  0  0  0  0  0  0
   -0.0382   39.0241  -12.0583 C   0  0  0  0  0  0  0  0  0  0  0  0
   -0.4414   38.0381  -12.9140 N   0  0  0  0  0  0  0  0  0  0  0  0
   -1.1940   38.3434  -14.0054 C   0  0  0  0  0  0  0  0  0  0  0  0
   -1.5511   39.6195  -14.2548 C   0  0  0  0  0  0  0  0  0  0  0  0
   -1.1394   40.6171  -13.3759 C   0  0  0  0  0  0  0  0  0  0  0  0
   -1.4178   42.0292  -13.4353 N   0  0  0  0  0  0  0  0  0  0  0  0
   -2.2889   39.6188  -15.3910 N   0  0  0  0  0  0  0  0  0  0  0  0
   -2.3785   38.3348  -15.8416 C   0  0  0  0  0  0  0  0  0  0  0  0
   -1.6957   37.5543  -14.9797 N   0  0  0  0  0  0  0  0  0  0  0  0
  1  3  1  1  0  0  0
  1  5  2  0  0  0  0
  1  9  1  0  0  0  0
  1 18  1  0  0  0  0
  2  4  1  1  0  0  0
  2  6  2  0  0  0  0
  2 10  1  0  0  0  0
  2 17  1  0  0  0  0
  7  9  1  0  0  0  0
  8 10  1  0  0  0  0
 11  7  1  1  0  0  0
 11 13  1  0  0  0  0
 11 15  1  0  0  0  0
 12  8  1  6  0  0  0
 12 14  1  0  0  0  0
 12 16  1  0  0  0  0
 13 23  1  0  0  0  0
 14 24  1  0  0  0  0
 15 17  1  6  0  0  0
 15 19  1  0  0  0  0
 16 18  1  1  0  0  0
 16 20  1  0  0  0  0
 19 21  1  6  0  0  0
 19 23  1  0  0  0  0
 20 22  1  6  0  0  0
 20 24  1  0  0  0  0
 23 34  1  1  0  0  0
 24 44  1  1  0  0  0
 25 26  2  0  0  0  0
 25 30  1  0  0  0  0
 26 27  1  0  0  0  0
 27 28  2  0  0  0  0
 28 29  1  0  0  0  0
 28 34  1  0  0  0  0
 29 30  2  0  0  0  0
 29 32  1  0  0  0  0
 30 31  1  0  0  0  0
 32 33  2  0  0  0  0
 33 34  1  0  0  0  0
 35 36  2  0  0  0  0
 35 40  1  0  0  0  0
 36 37  1  0  0  0  0
 37 38  2  0  0  0  0
 38 39  1  0  0  0  0
 38 44  1  0  0  0  0
 39 40  2  0  0  0  0
 39 42  1  0  0  0  0
 40 41  1  0  0  0  0
 42 43  2  0  0  0  0
 43 44  1  0  0  0  0
M  CHG  2   3  -1   4  -1
M  END
>  <CHROM.1>
157.46532341,-171.35862485,-5.63661785,36.30328865,-14.89228827,-0.15509614
-0.13955343,-2.52433047

>  <Name>
ligand

>  <RI>
0

>  <Rbt.Current_Directory>
/home/itssahil/PROJECTS/Mol_Feturizer/New_Systems/rnas/4QLM

>  <Rbt.Executable>
rbdock ($Id: //depot/dev/client3/rdock/2013.1/src/exe/rbdock.cxx#4 $)

>  <Rbt.Library>
libRbt.so (2013.1, Build901 2013/11/27)

>  <Rbt.Parameter_File>
/export/apps/rDock/src/rDock_2013.1_src/data/scripts/dock_solv.prm

>  <Rbt.Receptor>
prm/pocket_docking_7.prm

>  <SCORE>
-9.10318

>  <SCORE.INTER>
-9.62209

>  <SCORE.INTER.CONST>
1

>  <SCORE.INTER.POLAR>
0

>  <SCORE.INTER.ROT>
2

>  <SCORE.INTER.SOLV>
25.3053

>  <SCORE.INTER.VDW>
-19.7832

>  <SCORE.INTER.norm>
-0.218684

>  <SCORE.INTRA>
0.517155

>  <SCORE.INTRA.DIHEDRAL>
0.167632

>  <SCORE.INTRA.DIHEDRAL.0>
2.32994

>  <SCORE.INTRA.POLAR>
0

>  <SCORE.INTRA.POLAR.0>
0

>  <SCORE.INTRA.REPUL>
0

>  <SCORE.INTRA.REPUL.0>
0

>  <SCORE.INTRA.SOLV>
0.0522359

>  <SCORE.INTRA.SOLV.lig_0>
-117.703

>  <SCORE.INTRA.VDW>
0.407221

>  <SCORE.INTRA.VDW.0>
-1.59997

>  <SCORE.INTRA.norm>
0.0117535

>  <SCORE.RESTR>
0.00175414

>  <SCORE.RESTR.CAVITY>
0.00175414

>  <SCORE.RESTR.norm>
3.98669e-05

>  <SCORE.SYSTEM>
0

>  <SCORE.SYSTEM.CONST>
0

>  <SCORE.SYSTEM.DIHEDRAL>
0

>  <SCORE.SYSTEM.SOLV>
0

>  <SCORE.SYSTEM.norm>
0

>  <SCORE.heavy>
44

>  <SCORE.norm>
-0.20689

>  <RMSD>
6.764

$$$$
ligand
 OpenBabel11021811513D
libRbt.so/2013.1/901 2013/11/27
 44 50  0  0  0  0  0  0  0  0999 V2000
   -5.3810   37.2908  -17.9018 P   0  0  2  0  0  0  0  0  0  0  0  0
   -2.5708   35.6048  -13.6047 P   0  0  1  0  0  0  0  0  0  0  0  0
   -4.8405   38.1259  -19.0599 O   0  5  0  0  0  0  0  0  0  0  0  0
   -3.4892   35.8300  -12.4283 O   0  5  0  0  0  0  0  0  0  0  0  0
   -6.8622   37.5758  -17.8351 O   0  0  0  0  0  0  0  0  0  0  0  0
   -1.4070   34.7124  -13.1167 O   0  0  0  0  0  0  0  0  0  0  0  0
   -3.2562   38.2522  -16.9008 C   0  0  0  0  0  0  0  0  0  0  0  0
   -2.8538   34.8530  -16.0588 C   0  0  0  0  0  0  0  0  0  0  0  0
   -4.5845   37.7750  -16.6473 O   0  0  0  0  0  0  0  0  0  0  0  0
   -3.5507   35.0282  -14.7930 O   0  0  0  0  0  0  0  0  0  0  0  0
   -2.6149   38.7344  -15.6039 C   0  0  1  0  0  0  0  0  0  0  0  0
   -3.8834   34.1716  -17.0372 C   0  0  1  0  0  0  0  0  0  0  0  0
   -2.9838   39.9615  -15.4025 O   0  0  0  0  0  0  0  0  0  0  0  0
   -4.3300   33.1654  -16.4031 O   0  0  0  0  0  0  0  0  0  0  0  0
   -3.0546   37.9454  -14.3921 C   0  0  1  0  0  0  0  0  0  0  0  0
   -5.1417   35.0455  -17.2102 C   0  0  1  0  0  0  0  0  0  0  0  0
   -2.0608   37.0569  -14.1251 O   0  0  0  0  0  0  0  0  0  0  0  0
   -5.1121   35.7204  -18.3658 O   0  0  0  0  0  0  0  0  0  0  0  0
   -3.1375   39.0266  -13.2588 C   0  0  1  0  0  0  0  0  0  0  0  0
   -6.3605   34.0968  -17.1480 C   0  0  1  0  0  0  0  0  0  0  0  0
   -1.9341   38.9470  -12.3876 O   0  0  0  0  0  0  0  0  0  0  0  0
   -6.8924   33.8351  -18.5242 O   0  0  0  0  0  0  0  0  0  0  0  0
   -3.2099   40.1768  -13.8482 C   0  0  2  0  0  0  0  0  0  0  0  0
   -5.9034   33.0012  -16.6462 C   0  0  2  0  0  0  0  0  0  0  0  0
   -8.5649   40.4754  -14.0845 N   0  0  0  0  0  0  0  0  0  0  0  0
   -7.8046   39.4482  -14.5578 C   0  0  0  0  0  0  0  0  0  0  0  0
   -6.4376   39.4669  -14.4471 N   0  0  0  0  0  0  0  0  0  0  0  0
   -5.8345   40.5404  -13.8521 C   0  0  0  0  0  0  0  0  0  0  0  0
   -6.5685   41.5615  -13.3882 C   0  0  0  0  0  0  0  0  0  0  0  0
   -7.9577   41.5303  -13.4962 C   0  0  0  0  0  0  0  0  0  0  0  0
   -8.8401   42.5344  -13.0509 N   0  0  0  0  0  0  0  0  0  0  0  0
   -5.7239   42.4690  -12.8540 N   0  0  0  0  0  0  0  0  0  0  0  0
   -4.4534   41.9964  -13.0014 C   0  0  0  0  0  0  0  0  0  0  0  0
   -4.5203   40.8003  -13.6005 N   0  0  0  0  0  0  0  0  0  0  0  0
   -9.7315   30.5520  -14.1031 N   0  0  0  0  0  0  0  0  0  0  0  0
   -9.5512   30.6043  -15.4489 C   0  0  0  0  0  0  0  0  0  0  0  0
   -8.4928   31.3003  -15.9614 N   0  0  0  0  0  0  0  0  0  0  0  0
   -7.6213   31.9325  -15.1299 C   0  0  0  0  0  0  0  0  0  0  0  0
   -7.7914   31.8811  -13.7932 C   0  0  0  0  0  0  0  0  0  0  0  0
   -8.8744   31.1733  -13.2800 C   0  0  0  0  0  0  0  0  0  0  0  0
   -9.2566   31.0031  -11.9016 N   0  0  0  0  0  0  0  0  0  0  0  0
   -6.7870   32.5941  -13.2294 N   0  0  0  0  0  0  0  0  0  0  0  0
   -5.9949   33.0797  -14.2278 C   0  0  0  0  0  0  0  0  0  0  0  0
   -6.5175   32.6626  -15.3987 N   0  0  0  0  0  0  0  0  0  0  0  0
  1  3  1  6  0  0  0
  1  5  2  0  0  0  0
  1  9  1  0  0  0  0
  1 18  1  0  0  0  0
  2  4  1  1  0  0  0
  2  6  2  0  0  0  0
  2 10  1  0  0  0  0
  2 17  1  0  0  0  0
  7  9  1  0  0  0  0
  8 10  1  0  0  0  0
 11  7  1  6  0  0  0
 11 13  1  0  0  0  0
 11 15  1  0  0  0  0
 12  8  1  1  0  0  0
 12 14  1  0  0  0  0
 12 16  1  0  0  0  0
 13 23  1  0  0  0  0
 14 24  1  0  0  0  0
 15 17  1  1  0  0  0
 15 19  1  0  0  0  0
 16 18  1  6  0  0  0
 16 20  1  0  0  0  0
 19 21  1  1  0  0  0
 19 23  1  0  0  0  0
 20 22  1  6  0  0  0
 20 24  1  0  0  0  0
 23 34  1  6  0  0  0
 24 44  1  1  0  0  0
 25 26  2  0  0  0  0
 25 30  1  0  0  0  0
 26 27  1  0  0  0  0
 27 28  2  0  0  0  0
 28 29  1  0  0  0  0
 28 34  1  0  0  0  0
 29 30  2  0  0  0  0
 29 32  1  0  0  0  0
 30 31  1  0  0  0  0
 32 33  2  0  0  0  0
 33 34  1  0  0  0  0
 35 36  2  0  0  0  0
 35 40  1  0  0  0  0
 36 37  1  0  0  0  0
 37 38  2  0  0  0  0
 38 39  1  0  0  0  0
 38 44  1  0  0  0  0
 39 40  2  0  0  0  0
 39 42  1  0  0  0  0
 40 41  1  0  0  0  0
 42 43  2  0  0  0  0
 43 44  1  0  0  0  0
M  CHG  2   3  -1   4  -1
M  END
>  <CHROM.1>
58.02644572,-150.12768646,-5.34294962,36.44666210,-15.03609491,-1.27768501
-0.19829507,-2.95815115

>  <Name>
ligand

>  <RI>
0

>  <Rbt.Current_Directory>
/home/itssahil/PROJECTS/Mol_Feturizer/New_Systems/rnas/4QLM

>  <Rbt.Executable>
rbdock ($Id: //depot/dev/client3/rdock/2013.1/src/exe/rbdock.cxx#4 $)

>  <Rbt.Library>
libRbt.so (2013.1, Build901 2013/11/27)

>  <Rbt.Parameter_File>
/export/apps/rDock/src/rDock_2013.1_src/data/scripts/dock_solv.prm

>  <Rbt.Receptor>
prm/pocket_docking_7.prm

>  <SCORE>
-16.5093

>  <SCORE.INTER>
-15.5247

>  <SCORE.INTER.CONST>
1

>  <SCORE.INTER.POLAR>
0

>  <SCORE.INTER.ROT>
2

>  <SCORE.INTER.SOLV>
26.5836

>  <SCORE.INTER.VDW>
-24.1444

>  <SCORE.INTER.norm>
-0.352835

>  <SCORE.INTRA>
-0.98456

>  <SCORE.INTRA.DIHEDRAL>
0.0826006

>  <SCORE.INTRA.DIHEDRAL.0>
2.32994

>  <SCORE.INTRA.POLAR>
0

>  <SCORE.INTRA.POLAR.0>
0

>  <SCORE.INTRA.REPUL>
0

>  <SCORE.INTRA.REPUL.0>
0

>  <SCORE.INTRA.SOLV>
0.130631

>  <SCORE.INTRA.SOLV.lig_0>
-117.703

>  <SCORE.INTRA.VDW>
-1.09118

>  <SCORE.INTRA.VDW.0>
-1.59997

>  <SCORE.INTRA.norm>
-0.0223764

>  <SCORE.RESTR>
0

>  <SCORE.RESTR.CAVITY>
0

>  <SCORE.RESTR.norm>
0

>  <SCORE.SYSTEM>
0

>  <SCORE.SYSTEM.CONST>
0

>  <SCORE.SYSTEM.DIHEDRAL>
0

>  <SCORE.SYSTEM.SOLV>
0

>  <SCORE.SYSTEM.norm>
0

>  <SCORE.heavy>
44

>  <SCORE.norm>
-0.375211

>  <RMSD>
6.771

$$$$
ligand
 OpenBabel11021811513D
libRbt.so/2013.1/901 2013/11/27
 44 50  0  0  0  0  0  0  0  0999 V2000
   -8.3871   32.4305  -12.6935 P   0  0  2  0  0  0  0  0  0  0  0  0
  -11.1621   34.0790  -17.0280 P   0  0  1  0  0  0  0  0  0  0  0  0
   -8.8615   31.4208  -11.6513 O   0  5  0  0  0  0  0  0  0  0  0  0
  -10.9413   35.5710  -17.0851 O   0  5  0  0  0  0  0  0  0  0  0  0
   -7.3851   33.3164  -11.9931 O   0  0  0  0  0  0  0  0  0  0  0  0
  -11.7838   33.6529  -18.3774 O   0  0  0  0  0  0  0  0  0  0  0  0
  -10.8936   32.4125  -13.0918 C   0  0  0  0  0  0  0  0  0  0  0  0
   -9.7388   32.0182  -16.3988 C   0  0  0  0  0  0  0  0  0  0  0  0
   -9.6814   33.1763  -13.1530 O   0  0  0  0  0  0  0  0  0  0  0  0
   -9.6970   33.4573  -16.6132 O   0  0  0  0  0  0  0  0  0  0  0  0
  -12.0781   33.2719  -13.5204 C   0  0  1  0  0  0  0  0  0  0  0  0
   -8.2500   31.5668  -16.1512 C   0  0  1  0  0  0  0  0  0  0  0  0
  -12.4855   33.9428  -12.4878 O   0  0  0  0  0  0  0  0  0  0  0  0
   -7.5883   32.0549  -17.1196 O   0  0  0  0  0  0  0  0  0  0  0  0
  -11.7250   34.2860  -14.5841 C   0  0  1  0  0  0  0  0  0  0  0  0
   -7.6483   32.2945  -14.9324 C   0  0  1  0  0  0  0  0  0  0  0  0
  -12.1413   33.7669  -15.7697 O   0  0  0  0  0  0  0  0  0  0  0  0
   -7.6371   31.5068  -13.8502 O   0  0  0  0  0  0  0  0  0  0  0  0
  -12.5916   35.5366  -14.2029 C   0  0  1  0  0  0  0  0  0  0  0  0
   -6.2165   32.7237  -15.3263 C   0  0  1  0  0  0  0  0  0  0  0  0
  -13.7902   35.6145  -15.0808 O   0  0  0  0  0  0  0  0  0  0  0  0
   -5.2058   31.8003  -14.7171 O   0  0  0  0  0  0  0  0  0  0  0  0
  -12.9320   35.3879  -12.9629 C   0  0  2  0  0  0  0  0  0  0  0  0
   -6.1794   32.6180  -16.6102 C   0  0  2  0  0  0  0  0  0  0  0  0
   -9.3225   39.2105  -11.8763 N   0  0  0  0  0  0  0  0  0  0  0  0
   -9.4172   38.5161  -13.0451 C   0  0  0  0  0  0  0  0  0  0  0  0
  -10.3801   37.5558  -13.2246 N   0  0  0  0  0  0  0  0  0  0  0  0
  -11.2551   37.2950  -12.2065 C   0  0  0  0  0  0  0  0  0  0  0  0
  -11.1699   37.9646  -11.0486 C   0  0  0  0  0  0  0  0  0  0  0  0
  -10.1944   38.9455  -10.8779 C   0  0  0  0  0  0  0  0  0  0  0  0
   -9.9992   39.7177   -9.7158 N   0  0  0  0  0  0  0  0  0  0  0  0
  -12.1484   37.5123  -10.2361 N   0  0  0  0  0  0  0  0  0  0  0  0
  -12.8369   36.5456  -10.9075 C   0  0  0  0  0  0  0  0  0  0  0  0
  -12.2992   36.4223  -12.1281 N   0  0  0  0  0  0  0  0  0  0  0  0
   -2.8054   36.3831  -17.8593 N   0  0  0  0  0  0  0  0  0  0  0  0
   -2.5466   35.2675  -17.1281 C   0  0  0  0  0  0  0  0  0  0  0  0
   -3.5509   34.3743  -16.8814 N   0  0  0  0  0  0  0  0  0  0  0  0
   -4.8011   34.5971  -17.3692 C   0  0  0  0  0  0  0  0  0  0  0  0
   -5.0642   35.6997  -18.0994 C   0  0  0  0  0  0  0  0  0  0  0  0
   -4.0363   36.6062  -18.3426 C   0  0  0  0  0  0  0  0  0  0  0  0
   -4.0945   37.8463  -19.0732 N   0  0  0  0  0  0  0  0  0  0  0  0
   -6.3740   35.6555  -18.4422 N   0  0  0  0  0  0  0  0  0  0  0  0
   -6.9134   34.5158  -17.9228 C   0  0  0  0  0  0  0  0  0  0  0  0
   -5.9323   33.8669  -17.2638 N   0  0  0  0  0  0  0  0  0  0  0  0
  1  3  1  1  0  0  0
  1  5  2  0  0  0  0
  1  9  1  0  0  0  0
  1 18  1  0  0  0  0
  2  4  1  6  0  0  0
  2  6  2  0  0  0  0
  2 10  1  0  0  0  0
  2 17  1  0  0  0  0
  7  9  1  0  0  0  0
  8 10  1  0  0  0  0
 11  7  1  1  0  0  0
 11 13  1  0  0  0  0
 11 15  1  0  0  0  0
 12  8  1  6  0  0  0
 12 14  1  0  0  0  0
 12 16  1  0  0  0  0
 13 23  1  0  0  0  0
 14 24  1  0  0  0  0
 15 17  1  6  0  0  0
 15 19  1  0  0  0  0
 16 18  1  1  0  0  0
 16 20  1  0  0  0  0
 19 21  1  6  0  0  0
 19 23  1  0  0  0  0
 20 22  1  1  0  0  0
 20 24  1  0  0  0  0
 23 34  1  1  0  0  0
 24 44  1  6  0  0  0
 25 26  2  0  0  0  0
 25 30  1  0  0  0  0
 26 27  1  0  0  0  0
 27 28  2  0  0  0  0
 28 29  1  0  0  0  0
 28 34  1  0  0  0  0
 29 30  2  0  0  0  0
 29 32  1  0  0  0  0
 30 31  1  0  0  0  0
 32 33  2  0  0  0  0
 33 34  1  0  0  0  0
 35 36  2  0  0  0  0
 35 40  1  0  0  0  0
 36 37  1  0  0  0  0
 37 38  2  0  0  0  0
 38 39  1  0  0  0  0
 38 44  1  0  0  0  0
 39 40  2  0  0  0  0
 39 42  1  0  0  0  0
 40 41  1  0  0  0  0
 42 43  2  0  0  0  0
 43 44  1  0  0  0  0
M  CHG  2   3  -1   4  -1
M  END
>  <CHROM.1>
101.49949051,-165.89954470,-8.96990860,34.64925774,-14.76091463,2.65684977
0.50150930,0.48584376

>  <Name>
ligand

>  <RI>
0

>  <Rbt.Current_Directory>
/home/itssahil/PROJECTS/Mol_Feturizer/New_Systems/rnas/4QLM

>  <Rbt.Executable>
rbdock ($Id: //depot/dev/client3/rdock/2013.1/src/exe/rbdock.cxx#4 $)

>  <Rbt.Library>
libRbt.so (2013.1, Build901 2013/11/27)

>  <Rbt.Parameter_File>
/export/apps/rDock/src/rDock_2013.1_src/data/scripts/dock_solv.prm

>  <Rbt.Receptor>
prm/pocket_docking_6.prm

>  <SCORE>
-10.4621

>  <SCORE.INTER>
-10.5488

>  <SCORE.INTER.CONST>
1

>  <SCORE.INTER.POLAR>
0

>  <SCORE.INTER.ROT>
2

>  <SCORE.INTER.SOLV>
25.5681

>  <SCORE.INTER.VDW>
-20.4886

>  <SCORE.INTER.norm>
-0.239745

>  <SCORE.INTRA>
-0.263944

>  <SCORE.INTRA.DIHEDRAL>
-0.00344844

>  <SCORE.INTRA.DIHEDRAL.0>
2.32994

>  <SCORE.INTRA.POLAR>
0

>  <SCORE.INTRA.POLAR.0>
0

>  <SCORE.INTRA.REPUL>
0

>  <SCORE.INTRA.REPUL.0>
0

>  <SCORE.INTRA.SOLV>
0.0341636

>  <SCORE.INTRA.SOLV.lig_0>
-117.703

>  <SCORE.INTRA.VDW>
-0.279302

>  <SCORE.INTRA.VDW.0>
-1.59997

>  <SCORE.INTRA.norm>
-0.00599873

>  <SCORE.RESTR>
0.350664

>  <SCORE.RESTR.CAVITY>
0.350664

>  <SCORE.RESTR.norm>
0.00796964

>  <SCORE.SYSTEM>
0

>  <SCORE.SYSTEM.CONST>
0

>  <SCORE.SYSTEM.DIHEDRAL>
0

>  <SCORE.SYSTEM.SOLV>
0

>  <SCORE.SYSTEM.norm>
0

>  <SCORE.heavy>
44

>  <SCORE.norm>
-0.237774

>  <RMSD>
6.781

$$$$
ligand
 OpenBabel11021811513D
libRbt.so/2013.1/901 2013/11/27
 44 50  0  0  0  0  0  0  0  0999 V2000
   -5.0256   32.9506  -13.7260 P   0  0  2  0  0  0  0  0  0  0  0  0
   -4.0361   36.9725  -17.1975 P   0  0  1  0  0  0  0  0  0  0  0  0
   -5.2088   31.4777  -14.0832 O   0  5  0  0  0  0  0  0  0  0  0  0
   -4.9216   38.1059  -16.7401 O   0  5  0  0  0  0  0  0  0  0  0  0
   -5.7809   33.1663  -12.4367 O   0  0  0  0  0  0  0  0  0  0  0  0
   -3.0281   37.5560  -18.2137 O   0  0  0  0  0  0  0  0  0  0  0  0
   -5.5186   33.0771  -16.2124 C   0  0  0  0  0  0  0  0  0  0  0  0
   -2.6521   35.1216  -16.0454 C   0  0  0  0  0  0  0  0  0  0  0  0
   -5.6102   33.7379  -14.9431 O   0  0  0  0  0  0  0  0  0  0  0  0
   -3.4510   36.3150  -15.8081 O   0  0  0  0  0  0  0  0  0  0  0  0
   -6.1657   33.9314  -17.2973 C   0  0  1  0  0  0  0  0  0  0  0  0
   -2.0594   34.7038  -14.6469 C   0  0  1  0  0  0  0  0  0  0  0  0
   -7.4397   33.6878  -17.2975 O   0  0  0  0  0  0  0  0  0  0  0  0
   -1.5214   35.7577  -14.1846 O   0  0  0  0  0  0  0  0  0  0  0  0
   -6.0084   35.4158  -17.0601 C   0  0  1  0  0  0  0  0  0  0  0  0
   -3.1854   34.4276  -13.6306 C   0  0  1  0  0  0  0  0  0  0  0  0
   -4.9863   35.8304  -17.8549 O   0  0  0  0  0  0  0  0  0  0  0  0
   -3.3932   33.1142  -13.4773 O   0  0  0  0  0  0  0  0  0  0  0  0
   -7.3675   36.0153  -17.5636 C   0  0  1  0  0  0  0  0  0  0  0  0
   -2.7603   35.0857  -12.2981 C   0  0  1  0  0  0  0  0  0  0  0  0
   -7.1938   36.6101  -18.9162 O   0  0  0  0  0  0  0  0  0  0  0  0
   -2.2471   34.0518  -11.3427 O   0  0  0  0  0  0  0  0  0  0  0  0
   -8.2165   35.0384  -17.5906 C   0  0  2  0  0  0  0  0  0  0  0  0
   -1.8062   35.8919  -12.6153 C   0  0  2  0  0  0  0  0  0  0  0  0
  -10.1949   36.7549  -12.9043 N   0  0  0  0  0  0  0  0  0  0  0  0
   -8.9086   36.9080  -13.3278 C   0  0  0  0  0  0  0  0  0  0  0  0
   -8.5013   36.4325  -14.5482 N   0  0  0  0  0  0  0  0  0  0  0  0
   -9.4080   35.7922  -15.3471 C   0  0  0  0  0  0  0  0  0  0  0  0
  -10.6747   35.6277  -14.9413 C   0  0  0  0  0  0  0  0  0  0  0  0
  -11.0827   36.1222  -13.7037 C   0  0  0  0  0  0  0  0  0  0  0  0
  -12.3790   36.0160  -13.1623 N   0  0  0  0  0  0  0  0  0  0  0  0
  -11.3406   34.9756  -15.9178 N   0  0  0  0  0  0  0  0  0  0  0  0
  -10.4631   34.7322  -16.9327 C   0  0  0  0  0  0  0  0  0  0  0  0
   -9.2760   35.2499  -16.5906 N   0  0  0  0  0  0  0  0  0  0  0  0
   -5.0126   39.9438  -13.2647 N   0  0  0  0  0  0  0  0  0  0  0  0
   -5.1446   38.7055  -13.8084 C   0  0  0  0  0  0  0  0  0  0  0  0
   -4.2059   37.7485  -13.5434 N   0  0  0  0  0  0  0  0  0  0  0  0
   -3.1484   38.0312  -12.7357 C   0  0  0  0  0  0  0  0  0  0  0  0
   -3.0133   39.2564  -12.1890 C   0  0  0  0  0  0  0  0  0  0  0  0
   -3.9720   40.2263  -12.4674 C   0  0  0  0  0  0  0  0  0  0  0  0
   -4.0176   41.5923  -12.0124 N   0  0  0  0  0  0  0  0  0  0  0  0
   -1.8814   39.2453  -11.4449 N   0  0  0  0  0  0  0  0  0  0  0  0
   -1.3242   38.0037  -11.5330 C   0  0  0  0  0  0  0  0  0  0  0  0
   -2.1166   37.2597  -12.3308 N   0  0  0  0  0  0  0  0  0  0  0  0
  1  3  1  6  0  0  0
  1  5  2  0  0  0  0
  1  9  1  0  0  0  0
  1 18  1  0  0  0  0
  2  4  1  1  0  0  0
  2  6  2  0  0  0  0
  2 10  1  0  0  0  0
  2 17  1  0  0  0  0
  7  9  1  0  0  0  0
  8 10  1  0  0  0  0
 11  7  1  1  0  0  0
 11 13  1  0  0  0  0
 11 15  1  0  0  0  0
 12  8  1  6  0  0  0
 12 14  1  0  0  0  0
 12 16  1  0  0  0  0
 13 23  1  0  0  0  0
 14 24  1  0  0  0  0
 15 17  1  6  0  0  0
 15 19  1  0  0  0  0
 16 18  1  1  0  0  0
 16 20  1  0  0  0  0
 19 21  1  6  0  0  0
 19 23  1  0  0  0  0
 20 22  1  1  0  0  0
 20 24  1  0  0  0  0
 23 34  1  1  0  0  0
 24 44  1  6  0  0  0
 25 26  2  0  0  0  0
 25 30  1  0  0  0  0
 26 27  1  0  0  0  0
 27 28  2  0  0  0  0
 28 29  1  0  0  0  0
 28 34  1  0  0  0  0
 29 30  2  0  0  0  0
 29 32  1  0  0  0  0
 30 31  1  0  0  0  0
 32 33  2  0  0  0  0
 33 34  1  0  0  0  0
 35 36  2  0  0  0  0
 35 40  1  0  0  0  0
 36 37  1  0  0  0  0
 37 38  2  0  0  0  0
 38 39  1  0  0  0  0
 38 44  1  0  0  0  0
 39 40  2  0  0  0  0
 39 42  1  0  0  0  0
 40 41  1  0  0  0  0
 42 43  2  0  0  0  0
 43 44  1  0  0  0  0
M  CHG  2   3  -1   4  -1
M  END
>  <CHROM.1>
86.03627284,64.08270990,-5.46586279,35.93438234,-14.72752461,-0.40941150
0.21566369,-2.63496822

>  <Name>
ligand

>  <RI>
0

>  <Rbt.Current_Directory>
/home/itssahil/PROJECTS/Mol_Feturizer/New_Systems/rnas/4QLM

>  <Rbt.Executable>
rbdock ($Id: //depot/dev/client3/rdock/2013.1/src/exe/rbdock.cxx#4 $)

>  <Rbt.Library>
libRbt.so (2013.1, Build901 2013/11/27)

>  <Rbt.Parameter_File>
/export/apps/rDock/src/rDock_2013.1_src/data/scripts/dock_solv.prm

>  <Rbt.Receptor>
prm/pocket_docking_6.prm

>  <SCORE>
-6.38245

>  <SCORE.INTER>
-4.75774

>  <SCORE.INTER.CONST>
1

>  <SCORE.INTER.POLAR>
0

>  <SCORE.INTER.ROT>
2

>  <SCORE.INTER.SOLV>
21.1322

>  <SCORE.INTER.VDW>
-15.1492

>  <SCORE.INTER.norm>
-0.108131

>  <SCORE.INTRA>
-1.62471

>  <SCORE.INTRA.DIHEDRAL>
-0.0316255

>  <SCORE.INTRA.DIHEDRAL.0>
2.32994

>  <SCORE.INTRA.POLAR>
0

>  <SCORE.INTRA.POLAR.0>
0

>  <SCORE.INTRA.REPUL>
0

>  <SCORE.INTRA.REPUL.0>
0

>  <SCORE.INTRA.SOLV>
0.819974

>  <SCORE.INTRA.SOLV.lig_0>
-117.703

>  <SCORE.INTRA.VDW>
-2.01888

>  <SCORE.INTRA.VDW.0>
-1.59997

>  <SCORE.INTRA.norm>
-0.0369252

>  <SCORE.RESTR>
0

>  <SCORE.RESTR.CAVITY>
0

>  <SCORE.RESTR.norm>
0

>  <SCORE.SYSTEM>
0

>  <SCORE.SYSTEM.CONST>
0

>  <SCORE.SYSTEM.DIHEDRAL>
0

>  <SCORE.SYSTEM.SOLV>
0

>  <SCORE.SYSTEM.norm>
0

>  <SCORE.heavy>
44

>  <SCORE.norm>
-0.145056

>  <RMSD>
6.785

$$$$
ligand
 OpenBabel11021811513D
libRbt.so/2013.1/901 2013/11/27
 44 50  0  0  0  0  0  0  0  0999 V2000
   -5.9186   36.9065  -18.1360 P   0  0  2  0  0  0  0  0  0  0  0  0
   -4.9390   33.3659  -14.1724 P   0  0  1  0  0  0  0  0  0  0  0  0
   -5.2677   36.9148  -19.5169 O   0  5  0  0  0  0  0  0  0  0  0  0
   -4.8555   34.2014  -12.9182 O   0  5  0  0  0  0  0  0  0  0  0  0
   -6.3332   38.3317  -17.8594 O   0  0  0  0  0  0  0  0  0  0  0  0
   -5.0390   31.8867  -13.7353 O   0  0  0  0  0  0  0  0  0  0  0  0
   -3.8694   35.4591  -17.7524 C   0  0  0  0  0  0  0  0  0  0  0  0
   -6.3544   33.4019  -16.3320 C   0  0  0  0  0  0  0  0  0  0  0  0
   -4.8132   36.3686  -17.1708 O   0  0  0  0  0  0  0  0  0  0  0  0
   -6.1889   34.0145  -15.0220 O   0  0  0  0  0  0  0  0  0  0  0  0
   -2.8252   35.0529  -16.7179 C   0  0  1  0  0  0  0  0  0  0  0  0
   -7.6607   34.0295  -16.9493 C   0  0  1  0  0  0  0  0  0  0  0  0
   -1.8967   35.9584  -16.7036 O   0  0  0  0  0  0  0  0  0  0  0  0
   -8.5525   33.8893  -16.0554 O   0  0  0  0  0  0  0  0  0  0  0  0
   -3.3768   34.9756  -15.3129 C   0  0  1  0  0  0  0  0  0  0  0  0
   -7.5364   35.5621  -17.0624 C   0  0  1  0  0  0  0  0  0  0  0  0
   -3.6092   33.6605  -15.0582 O   0  0  0  0  0  0  0  0  0  0  0  0
   -7.2537   35.9376  -18.3158 O   0  0  0  0  0  0  0  0  0  0  0  0
   -2.1964   35.5021  -14.4243 C   0  0  1  0  0  0  0  0  0  0  0  0
   -8.8817   36.1589  -16.5901 C   0  0  1  0  0  0  0  0  0  0  0  0
   -1.4862   34.3597  -13.7888 O   0  0  0  0  0  0  0  0  0  0  0  0
   -9.7094   36.5821  -17.7652 O   0  0  0  0  0  0  0  0  0  0  0  0
   -1.4067   36.1620  -15.2096 C   0  0  2  0  0  0  0  0  0  0  0  0
   -9.4728   35.1960  -15.9700 C   0  0  2  0  0  0  0  0  0  0  0  0
    0.4869   40.5691  -12.7985 N   0  0  0  0  0  0  0  0  0  0  0  0
    1.0542   39.3309  -12.7503 C   0  0  0  0  0  0  0  0  0  0  0  0
    0.4904   38.2654  -13.4049 N   0  0  0  0  0  0  0  0  0  0  0  0
   -0.6630   38.4571  -14.1141 C   0  0  0  0  0  0  0  0  0  0  0  0
   -1.2366   39.6674  -14.1648 C   0  0  0  0  0  0  0  0  0  0  0  0
   -0.6520   40.7469  -13.5047 C   0  0  0  0  0  0  0  0  0  0  0  0
   -1.1516   42.0640  -13.4795 N   0  0  0  0  0  0  0  0  0  0  0  0
   -2.3451   39.5682  -14.9287 N   0  0  0  0  0  0  0  0  0  0  0  0
   -2.4529   38.2741  -15.3445 C   0  0  0  0  0  0  0  0  0  0  0  0
   -1.4081   37.5915  -14.8581 N   0  0  0  0  0  0  0  0  0  0  0  0
  -10.7414   38.6943  -12.3268 N   0  0  0  0  0  0  0  0  0  0  0  0
  -10.6153   38.9174  -13.6612 C   0  0  0  0  0  0  0  0  0  0  0  0
  -10.2664   37.8867  -14.4877 N   0  0  0  0  0  0  0  0  0  0  0  0
  -10.0520   36.6433  -13.9794 C   0  0  0  0  0  0  0  0  0  0  0  0
  -10.1798   36.4134  -12.6569 C   0  0  0  0  0  0  0  0  0  0  0  0
  -10.5316   37.4698  -11.8218 C   0  0  0  0  0  0  0  0  0  0  0  0
  -10.7037   37.4575  -10.3916 N   0  0  0  0  0  0  0  0  0  0  0  0
   -9.9070   35.1035  -12.4452 N   0  0  0  0  0  0  0  0  0  0  0  0
   -9.6160   34.5280  -13.6469 C   0  0  0  0  0  0  0  0  0  0  0  0
   -9.7114   35.4875  -14.5894 N   0  0  0  0  0  0  0  0  0  0  0  0
  1  3  1  6  0  0  0
  1  5  2  0  0  0  0
  1  9  1  0  0  0  0
  1 18  1  0  0  0  0
  2  4  1  1  0  0  0
  2  6  2  0  0  0  0
  2 10  1  0  0  0  0
  2 17  1  0  0  0  0
  7  9  1  0  0  0  0
  8 10  1  0  0  0  0
 11  7  1  6  0  0  0
 11 13  1  0  0  0  0
 11 15  1  0  0  0  0
 12  8  1  1  0  0  0
 12 14  1  0  0  0  0
 12 16  1  0  0  0  0
 13 23  1  0  0  0  0
 14 24  1  0  0  0  0
 15 17  1  1  0  0  0
 15 19  1  0  0  0  0
 16 18  1  6  0  0  0
 16 20  1  0  0  0  0
 19 21  1  6  0  0  0
 19 23  1  0  0  0  0
 20 22  1  6  0  0  0
 20 24  1  0  0  0  0
 23 34  1  1  0  0  0
 24 44  1  1  0  0  0
 25 26  2  0  0  0  0
 25 30  1  0  0  0  0
 26 27  1  0  0  0  0
 27 28  2  0  0  0  0
 28 29  1  0  0  0  0
 28 34  1  0  0  0  0
 29 30  2  0  0  0  0
 29 32  1  0  0  0  0
 30 31  1  0  0  0  0
 32 33  2  0  0  0  0
 33 34  1  0  0  0  0
 35 36  2  0  0  0  0
 35 40  1  0  0  0  0
 36 37  1  0  0  0  0
 37 38  2  0  0  0  0
 38 39  1  0  0  0  0
 38 44  1  0  0  0  0
 39 40  2  0  0  0  0
 39 42  1  0  0  0  0
 40 41  1  0  0  0  0
 42 43  2  0  0  0  0
 43 44  1  0  0  0  0
M  CHG  2   3  -1   4  -1
M  END
>  <CHROM.1>
-143.93780121,157.12975238,-5.44330007,36.36782992,-15.08971233,-2.92673506
0.14214305,0.67313469

>  <Name>
ligand

>  <RI>
0

>  <Rbt.Current_Directory>
/home/itssahil/PROJECTS/Mol_Feturizer/New_Systems/rnas/4QLM

>  <Rbt.Executable>
rbdock ($Id: //depot/dev/client3/rdock/2013.1/src/exe/rbdock.cxx#4 $)

>  <Rbt.Library>
libRbt.so (2013.1, Build901 2013/11/27)

>  <Rbt.Parameter_File>
/export/apps/rDock/src/rDock_2013.1_src/data/scripts/dock_solv.prm

>  <Rbt.Receptor>
prm/pocket_docking_8.prm

>  <SCORE>
-13.2993

>  <SCORE.INTER>
-13.7444

>  <SCORE.INTER.CONST>
1

>  <SCORE.INTER.POLAR>
0

>  <SCORE.INTER.ROT>
2

>  <SCORE.INTER.SOLV>
27.4746

>  <SCORE.INTER.VDW>
-23.2545

>  <SCORE.INTER.norm>
-0.312373

>  <SCORE.INTRA>
0.44505

>  <SCORE.INTRA.DIHEDRAL>
-0.0362882

>  <SCORE.INTRA.DIHEDRAL.0>
2.32994

>  <SCORE.INTRA.POLAR>
0

>  <SCORE.INTRA.POLAR.0>
0

>  <SCORE.INTRA.REPUL>
0

>  <SCORE.INTRA.REPUL.0>
0

>  <SCORE.INTRA.SOLV>
0.0709677

>  <SCORE.INTRA.SOLV.lig_0>
-117.703

>  <SCORE.INTRA.VDW>
0.42771

>  <SCORE.INTRA.VDW.0>
-1.59997

>  <SCORE.INTRA.norm>
0.0101148

>  <SCORE.RESTR>
0

>  <SCORE.RESTR.CAVITY>
0

>  <SCORE.RESTR.norm>
0

>  <SCORE.SYSTEM>
0

>  <SCORE.SYSTEM.CONST>
0

>  <SCORE.SYSTEM.DIHEDRAL>
0

>  <SCORE.SYSTEM.SOLV>
0

>  <SCORE.SYSTEM.norm>
0

>  <SCORE.heavy>
44

>  <SCORE.norm>
-0.302258

>  <RMSD>
6.790

$$$$
ligand
 OpenBabel11021811513D
libRbt.so/2013.1/901 2013/11/27
 44 50  0  0  0  0  0  0  0  0999 V2000
   -2.9578   35.9239  -16.4463 P   0  0  2  0  0  0  0  0  0  0  0  0
   -6.0758   33.4981  -12.7586 P   0  0  1  0  0  0  0  0  0  0  0  0
   -1.4987   35.5928  -16.7497 O   0  5  0  0  0  0  0  0  0  0  0  0
   -6.8259   34.6217  -12.0857 O   0  5  0  0  0  0  0  0  0  0  0  0
   -3.1504   37.3687  -16.8399 O   0  0  0  0  0  0  0  0  0  0  0  0
   -6.7561   32.1745  -12.3410 O   0  0  0  0  0  0  0  0  0  0  0  0
   -2.2741   34.6392  -14.3670 C   0  0  0  0  0  0  0  0  0  0  0  0
   -5.2804   32.9783  -15.1597 C   0  0  0  0  0  0  0  0  0  0  0  0
   -3.1238   35.6558  -14.9155 O   0  0  0  0  0  0  0  0  0  0  0  0
   -6.0659   33.9008  -14.3531 O   0  0  0  0  0  0  0  0  0  0  0  0
   -2.5055   34.5153  -12.8648 C   0  0  1  0  0  0  0  0  0  0  0  0
   -5.4870   33.4182  -16.6581 C   0  0  1  0  0  0  0  0  0  0  0  0
   -1.7738   35.4049  -12.2684 O   0  0  0  0  0  0  0  0  0  0  0  0
   -6.7457   33.4973  -16.8118 O   0  0  0  0  0  0  0  0  0  0  0  0
   -3.9355   34.7867  -12.4575 C   0  0  1  0  0  0  0  0  0  0  0  0
   -5.0300   34.8749  -16.8736 C   0  0  1  0  0  0  0  0  0  0  0  0
   -4.5255   33.5750  -12.2789 O   0  0  0  0  0  0  0  0  0  0  0  0
   -3.8238   34.9275  -17.4517 O   0  0  0  0  0  0  0  0  0  0  0  0
   -3.7925   35.5307  -11.0841 C   0  0  1  0  0  0  0  0  0  0  0  0
   -6.1020   35.5573  -17.7536 C   0  0  1  0  0  0  0  0  0  0  0  0
   -4.0638   34.5908   -9.9632 O   0  0  0  0  0  0  0  0  0  0  0  0
   -5.6269   35.6646  -19.1706 O   0  0  0  0  0  0  0  0  0  0  0  0
   -2.5799   35.9808  -11.0306 C   0  0  2  0  0  0  0  0  0  0  0  0
   -7.1243   34.7744  -17.6990 C   0  0  2  0  0  0  0  0  0  0  0  0
   -2.6514   40.7973  -13.4009 N   0  0  0  0  0  0  0  0  0  0  0  0
   -2.7134   39.5957  -14.0407 C   0  0  0  0  0  0  0  0  0  0  0  0
   -2.6896   38.4162  -13.3409 N   0  0  0  0  0  0  0  0  0  0  0  0
   -2.5991   38.4557  -11.9769 C   0  0  0  0  0  0  0  0  0  0  0  0
   -2.5300   39.6297  -11.3339 C   0  0  0  0  0  0  0  0  0  0  0  0
   -2.5644   40.8237  -12.0521 C   0  0  0  0  0  0  0  0  0  0  0  0
   -2.5000   42.1181  -11.4993 N   0  0  0  0  0  0  0  0  0  0  0  0
   -2.4535   39.3729  -10.0109 N   0  0  0  0  0  0  0  0  0  0  0  0
   -2.4689   38.0196   -9.8453 C   0  0  0  0  0  0  0  0  0  0  0  0
   -2.5760   37.4528  -11.0541 N   0  0  0  0  0  0  0  0  0  0  0  0
  -10.7675   34.7847  -13.9778 N   0  0  0  0  0  0  0  0  0  0  0  0
   -9.7765   33.8701  -14.1447 C   0  0  0  0  0  0  0  0  0  0  0  0
   -8.8992   34.0077  -15.1834 N   0  0  0  0  0  0  0  0  0  0  0  0
   -9.0131   35.0565  -16.0421 C   0  0  0  0  0  0  0  0  0  0  0  0
   -9.9912   35.9704  -15.8800 C   0  0  0  0  0  0  0  0  0  0  0  0
  -10.8828   35.8205  -14.8217 C   0  0  0  0  0  0  0  0  0  0  0  0
  -12.0028   36.6567  -14.4734 N   0  0  0  0  0  0  0  0  0  0  0  0
   -9.8601   36.8842  -16.8713 N   0  0  0  0  0  0  0  0  0  0  0  0
   -8.7916   36.5295  -17.6410 C   0  0  0  0  0  0  0  0  0  0  0  0
   -8.2730   35.3999  -17.1183 N   0  0  0  0  0  0  0  0  0  0  0  0
  1  3  1  6  0  0  0
  1  5  2  0  0  0  0
  1  9  1  0  0  0  0
  1 18  1  0  0  0  0
  2  4  1  1  0  0  0
  2  6  2  0  0  0  0
  2 10  1  0  0  0  0
  2 17  1  0  0  0  0
  7  9  1  0  0  0  0
  8 10  1  0  0  0  0
 11  7  1  6  0  0  0
 11 13  1  0  0  0  0
 11 15  1  0  0  0  0
 12  8  1  1  0  0  0
 12 14  1  0  0  0  0
 12 16  1  0  0  0  0
 13 23  1  0  0  0  0
 14 24  1  0  0  0  0
 15 17  1  1  0  0  0
 15 19  1  0  0  0  0
 16 18  1  6  0  0  0
 16 20  1  0  0  0  0
 19 21  1  1  0  0  0
 19 23  1  0  0  0  0
 20 22  1  6  0  0  0
 20 24  1  0  0  0  0
 23 34  1  6  0  0  0
 24 44  1  1  0  0  0
 25 26  2  0  0  0  0
 25 30  1  0  0  0  0
 26 27  1  0  0  0  0
 27 28  2  0  0  0  0
 28 29  1  0  0  0  0
 28 34  1  0  0  0  0
 29 30  2  0  0  0  0
 29 32  1  0  0  0  0
 30 31  1  0  0  0  0
 32 33  2  0  0  0  0
 33 34  1  0  0  0  0
 35 36  2  0  0  0  0
 35 40  1  0  0  0  0
 36 37  1  0  0  0  0
 37 38  2  0  0  0  0
 38 39  1  0  0  0  0
 38 44  1  0  0  0  0
 39 40  2  0  0  0  0
 39 42  1  0  0  0  0
 40 41  1  0  0  0  0
 42 43  2  0  0  0  0
 43 44  1  0  0  0  0
M  CHG  2   3  -1   4  -1
M  END
>  <CHROM.1>
34.55787142,-1.57354031,-5.16744706,35.83721008,-14.25108622,-0.53821639
-0.47564677,-1.60917190

>  <Name>
ligand

>  <RI>
0

>  <Rbt.Current_Directory>
/home/itssahil/PROJECTS/Mol_Feturizer/New_Systems/rnas/4QLM

>  <Rbt.Executable>
rbdock ($Id: //depot/dev/client3/rdock/2013.1/src/exe/rbdock.cxx#4 $)

>  <Rbt.Library>
libRbt.so (2013.1, Build901 2013/11/27)

>  <Rbt.Parameter_File>
/export/apps/rDock/src/rDock_2013.1_src/data/scripts/dock_solv.prm

>  <Rbt.Receptor>
prm/pocket_docking_7.prm

>  <SCORE>
-9.27719

>  <SCORE.INTER>
-8.08596

>  <SCORE.INTER.CONST>
1

>  <SCORE.INTER.POLAR>
0

>  <SCORE.INTER.ROT>
2

>  <SCORE.INTER.SOLV>
18.1012

>  <SCORE.INTER.VDW>
-16.3577

>  <SCORE.INTER.norm>
-0.183772

>  <SCORE.INTRA>
-1.20988

>  <SCORE.INTRA.DIHEDRAL>
0.170191

>  <SCORE.INTRA.DIHEDRAL.0>
2.32994

>  <SCORE.INTRA.POLAR>
0

>  <SCORE.INTRA.POLAR.0>
0

>  <SCORE.INTRA.REPUL>
0

>  <SCORE.INTRA.REPUL.0>
0

>  <SCORE.INTRA.SOLV>
0.957516

>  <SCORE.INTRA.SOLV.lig_0>
-117.703

>  <SCORE.INTRA.VDW>
-1.77374

>  <SCORE.INTRA.VDW.0>
-1.59997

>  <SCORE.INTRA.norm>
-0.0274973

>  <SCORE.RESTR>
0.0186527

>  <SCORE.RESTR.CAVITY>
0.0186527

>  <SCORE.RESTR.norm>
0.000423924

>  <SCORE.SYSTEM>
0

>  <SCORE.SYSTEM.CONST>
0

>  <SCORE.SYSTEM.DIHEDRAL>
0

>  <SCORE.SYSTEM.SOLV>
0

>  <SCORE.SYSTEM.norm>
0

>  <SCORE.heavy>
44

>  <SCORE.norm>
-0.210845

>  <RMSD>
6.796

$$$$
ligand
 OpenBabel11021811513D
libRbt.so/2013.1/901 2013/11/27
 44 50  0  0  0  0  0  0  0  0999 V2000
  -10.2736   35.1361  -17.0577 P   0  0  2  0  0  0  0  0  0  0  0  0
   -8.1895   32.7662  -12.6707 P   0  0  1  0  0  0  0  0  0  0  0  0
  -10.6911   34.4342  -18.3475 O   0  5  0  0  0  0  0  0  0  0  0  0
   -7.0680   33.6770  -12.2341 O   0  5  0  0  0  0  0  0  0  0  0  0
   -9.9366   36.5563  -17.4435 O   0  0  0  0  0  0  0  0  0  0  0  0
   -8.4520   31.7720  -11.5167 O   0  0  0  0  0  0  0  0  0  0  0  0
   -9.0482   32.9221  -16.8636 C   0  0  0  0  0  0  0  0  0  0  0  0
  -10.5468   33.0811  -13.6771 C   0  0  0  0  0  0  0  0  0  0  0  0
   -9.0534   34.3161  -16.5275 O   0  0  0  0  0  0  0  0  0  0  0  0
   -9.4029   33.7839  -13.1147 O   0  0  0  0  0  0  0  0  0  0  0  0
   -7.7851   32.2570  -16.3273 C   0  0  1  0  0  0  0  0  0  0  0  0
  -11.6587   34.1710  -13.9160 C   0  0  1  0  0  0  0  0  0  0  0  0
   -6.8351   32.4371  -17.1918 O   0  0  0  0  0  0  0  0  0  0  0  0
  -11.7622   34.7894  -12.8111 O   0  0  0  0  0  0  0  0  0  0  0  0
   -7.3043   32.8539  -15.0246 C   0  0  1  0  0  0  0  0  0  0  0  0
  -11.1562   35.2717  -14.8715 C   0  0  1  0  0  0  0  0  0  0  0  0
   -7.7237   32.0197  -14.0364 O   0  0  0  0  0  0  0  0  0  0  0  0
  -11.6350   35.0992  -16.1096 O   0  0  0  0  0  0  0  0  0  0  0  0
   -5.7417   32.8053  -15.1517 C   0  0  1  0  0  0  0  0  0  0  0  0
  -11.6126   36.6246  -14.2791 C   0  0  1  0  0  0  0  0  0  0  0  0
   -5.2011   31.6585  -14.3733 O   0  0  0  0  0  0  0  0  0  0  0  0
  -12.8075   37.1447  -15.0186 O   0  0  0  0  0  0  0  0  0  0  0  0
   -5.4758   32.6784  -16.4123 C   0  0  2  0  0  0  0  0  0  0  0  0
  -11.9401   36.3603  -13.0610 C   0  0  2  0  0  0  0  0  0  0  0  0
   -5.2505   37.4516  -18.8592 N   0  0  0  0  0  0  0  0  0  0  0  0
   -6.3812   36.7225  -18.6419 C   0  0  0  0  0  0  0  0  0  0  0  0
   -6.3324   35.5095  -18.0034 N   0  0  0  0  0  0  0  0  0  0  0  0
   -5.1230   35.0292  -17.5828 C   0  0  0  0  0  0  0  0  0  0  0  0
   -4.0014   35.7314  -17.7957 C   0  0  0  0  0  0  0  0  0  0  0  0
   -4.0610   36.9676  -18.4369 C   0  0  0  0  0  0  0  0  0  0  0  0
   -2.9610   37.8011  -18.7201 N   0  0  0  0  0  0  0  0  0  0  0  0
   -2.9700   35.0305  -17.2788 N   0  0  0  0  0  0  0  0  0  0  0  0
   -3.4706   33.8784  -16.7485 C   0  0  0  0  0  0  0  0  0  0  0  0
   -4.7991   33.8835  -16.9192 N   0  0  0  0  0  0  0  0  0  0  0  0
   -8.2916   39.9526  -12.1104 N   0  0  0  0  0  0  0  0  0  0  0  0
   -8.7771   39.5868  -13.3256 C   0  0  0  0  0  0  0  0  0  0  0  0
   -9.7350   38.6155  -13.4050 N   0  0  0  0  0  0  0  0  0  0  0  0
  -10.2043   38.0219  -12.2746 C   0  0  0  0  0  0  0  0  0  0  0  0
   -9.7304   38.3831  -11.0649 C   0  0  0  0  0  0  0  0  0  0  0  0
   -8.7521   39.3705  -10.9935 C   0  0  0  0  0  0  0  0  0  0  0  0
   -8.0962   39.8937   -9.8225 N   0  0  0  0  0  0  0  0  0  0  0  0
  -10.3711   37.6312  -10.1380 N   0  0  0  0  0  0  0  0  0  0  0  0
  -11.2461   36.8092  -10.7849 C   0  0  0  0  0  0  0  0  0  0  0  0
  -11.1375   37.0605  -12.1052 N   0  0  0  0  0  0  0  0  0  0  0  0
  1  3  1  6  0  0  0
  1  5  2  0  0  0  0
  1  9  1  0  0  0  0
  1 18  1  0  0  0  0
  2  4  1  1  0  0  0
  2  6  2  0  0  0  0
  2 10  1  0  0  0  0
  2 17  1  0  0  0  0
  7  9  1  0  0  0  0
  8 10  1  0  0  0  0
 11  7  1  6  0  0  0
 11 13  1  0  0  0  0
 11 15  1  0  0  0  0
 12  8  1  1  0  0  0
 12 14  1  0  0  0  0
 12 16  1  0  0  0  0
 13 23  1  0  0  0  0
 14 24  1  0  0  0  0
 15 17  1  1  0  0  0
 15 19  1  0  0  0  0
 16 18  1  6  0  0  0
 16 20  1  0  0  0  0
 19 21  1  1  0  0  0
 19 23  1  0  0  0  0
 20 22  1  6  0  0  0
 20 24  1  0  0  0  0
 23 34  1  6  0  0  0
 24 44  1  1  0  0  0
 25 26  2  0  0  0  0
 25 30  1  0  0  0  0
 26 27  1  0  0  0  0
 27 28  2  0  0  0  0
 28 29  1  0  0  0  0
 28 34  1  0  0  0  0
 29 30  2  0  0  0  0
 29 32  1  0  0  0  0
 30 31  1  0  0  0  0
 32 33  2  0  0  0  0
 33 34  1  0  0  0  0
 35 36  2  0  0  0  0
 35 40  1  0  0  0  0
 36 37  1  0  0  0  0
 37 38  2  0  0  0  0
 38 39  1  0  0  0  0
 38 44  1  0  0  0  0
 39 40  2  0  0  0  0
 39 42  1  0  0  0  0
 40 41  1  0  0  0  0
 42 43  2  0  0  0  0
 43 44  1  0  0  0  0
M  CHG  2   3  -1   4  -1
M  END
>  <CHROM.1>
22.50607213,127.36628815,-8.36015636,35.24311798,-14.84702791,0.42185874
-0.71793178,-2.99437014

>  <Name>
ligand

>  <RI>
0

>  <Rbt.Current_Directory>
/home/itssahil/PROJECTS/Mol_Feturizer/New_Systems/rnas/4QLM

>  <Rbt.Executable>
rbdock ($Id: //depot/dev/client3/rdock/2013.1/src/exe/rbdock.cxx#4 $)

>  <Rbt.Library>
libRbt.so (2013.1, Build901 2013/11/27)

>  <Rbt.Parameter_File>
/export/apps/rDock/src/rDock_2013.1_src/data/scripts/dock_solv.prm

>  <Rbt.Receptor>
prm/pocket_docking_7.prm

>  <SCORE>
-11.7917

>  <SCORE.INTER>
-11.7087

>  <SCORE.INTER.CONST>
1

>  <SCORE.INTER.POLAR>
0

>  <SCORE.INTER.ROT>
2

>  <SCORE.INTER.SOLV>
26.8237

>  <SCORE.INTER.VDW>
-21.6804

>  <SCORE.INTER.norm>
-0.266108

>  <SCORE.INTRA>
-0.0830006

>  <SCORE.INTRA.DIHEDRAL>
0.165881

>  <SCORE.INTRA.DIHEDRAL.0>
2.32994

>  <SCORE.INTRA.POLAR>
0

>  <SCORE.INTRA.POLAR.0>
0

>  <SCORE.INTRA.REPUL>
0

>  <SCORE.INTRA.REPUL.0>
0

>  <SCORE.INTRA.SOLV>
0.325877

>  <SCORE.INTRA.SOLV.lig_0>
-117.703

>  <SCORE.INTRA.VDW>
-0.328879

>  <SCORE.INTRA.VDW.0>
-1.59997

>  <SCORE.INTRA.norm>
-0.00188638

>  <SCORE.RESTR>
0

>  <SCORE.RESTR.CAVITY>
0

>  <SCORE.RESTR.norm>
0

>  <SCORE.SYSTEM>
0

>  <SCORE.SYSTEM.CONST>
0

>  <SCORE.SYSTEM.DIHEDRAL>
0

>  <SCORE.SYSTEM.SOLV>
0

>  <SCORE.SYSTEM.norm>
0

>  <SCORE.heavy>
44

>  <SCORE.norm>
-0.267994

>  <RMSD>
6.800

$$$$
ligand
 OpenBabel11021811513D
libRbt.so/2013.1/901 2013/11/27
 44 50  0  0  0  0  0  0  0  0999 V2000
   -6.1305   33.1801  -13.3490 P   0  0  2  0  0  0  0  0  0  0  0  0
   -5.9286   36.3180  -17.7442 P   0  0  1  0  0  0  0  0  0  0  0  0
   -6.8373   31.8316  -13.2373 O   0  5  0  0  0  0  0  0  0  0  0  0
   -6.1568   37.7189  -17.2311 O   0  5  0  0  0  0  0  0  0  0  0  0
   -6.0873   33.7478  -11.9506 O   0  0  0  0  0  0  0  0  0  0  0  0
   -5.4217   36.4369  -19.1995 O   0  0  0  0  0  0  0  0  0  0  0  0
   -7.7063   33.2539  -15.3372 C   0  0  0  0  0  0  0  0  0  0  0  0
   -4.6950   34.2130  -16.8984 C   0  0  0  0  0  0  0  0  0  0  0  0
   -7.0014   34.0122  -14.3449 O   0  0  0  0  0  0  0  0  0  0  0  0
   -4.9408   35.6220  -16.6285 O   0  0  0  0  0  0  0  0  0  0  0  0
   -8.5485   34.1813  -16.2067 C   0  0  1  0  0  0  0  0  0  0  0  0
   -3.6344   33.7397  -15.8341 C   0  0  1  0  0  0  0  0  0  0  0  0
   -9.6789   34.3846  -15.6039 O   0  0  0  0  0  0  0  0  0  0  0  0
   -2.6883   34.5844  -15.9080 O   0  0  0  0  0  0  0  0  0  0  0  0
   -7.9181   35.5391  -16.4147 C   0  0  1  0  0  0  0  0  0  0  0  0
   -4.1605   33.9489  -14.4001 C   0  0  1  0  0  0  0  0  0  0  0  0
   -7.3367   35.5137  -17.6433 O   0  0  0  0  0  0  0  0  0  0  0  0
   -4.6011   32.8016  -13.8697 O   0  0  0  0  0  0  0  0  0  0  0  0
   -9.1433   36.5184  -16.4121 C   0  0  1  0  0  0  0  0  0  0  0  0
   -2.9932   34.5349  -13.5735 C   0  0  1  0  0  0  0  0  0  0  0  0
   -9.4940   36.9018  -17.8061 O   0  0  0  0  0  0  0  0  0  0  0  0
   -2.3718   33.4736  -12.7175 O   0  0  0  0  0  0  0  0  0  0  0  0
  -10.1205   35.8884  -15.8431 C   0  0  2  0  0  0  0  0  0  0  0  0
   -2.1375   34.9402  -14.4479 C   0  0  2  0  0  0  0  0  0  0  0  0
  -11.6180   39.9944  -12.7255 N   0  0  0  0  0  0  0  0  0  0  0  0
  -11.4636   40.0392  -14.0788 C   0  0  0  0  0  0  0  0  0  0  0  0
  -11.0769   38.9297  -14.7866 N   0  0  0  0  0  0  0  0  0  0  0  0
  -10.8417   37.7623  -14.1142 C   0  0  0  0  0  0  0  0  0  0  0  0
  -10.9824   37.7047  -12.7825 C   0  0  0  0  0  0  0  0  0  0  0  0
  -11.3848   38.8342  -12.0720 C   0  0  0  0  0  0  0  0  0  0  0  0
  -11.5693   38.9060  -10.6771 N   0  0  0  0  0  0  0  0  0  0  0  0
  -10.6944   36.4456  -12.3902 N   0  0  0  0  0  0  0  0  0  0  0  0
  -10.3655   35.7257  -13.5005 C   0  0  0  0  0  0  0  0  0  0  0  0
  -10.4725   36.5305  -14.5659 N   0  0  0  0  0  0  0  0  0  0  0  0
   -4.0616   39.7704  -14.7429 N   0  0  0  0  0  0  0  0  0  0  0  0
   -4.7494   38.6089  -14.8989 C   0  0  0  0  0  0  0  0  0  0  0  0
   -4.0908   37.4159  -14.7976 N   0  0  0  0  0  0  0  0  0  0  0  0
   -2.7560   37.3901  -14.5364 C   0  0  0  0  0  0  0  0  0  0  0  0
   -2.0680   38.5386  -14.3758 C   0  0  0  0  0  0  0  0  0  0  0  0
   -2.7459   39.7493  -14.4846 C   0  0  0  0  0  0  0  0  0  0  0  0
   -2.2140   41.0831  -14.3702 N   0  0  0  0  0  0  0  0  0  0  0  0
   -0.7773   38.2069  -14.1329 N   0  0  0  0  0  0  0  0  0  0  0  0
   -0.6770   36.8468  -14.1396 C   0  0  0  0  0  0  0  0  0  0  0  0
   -1.9063   36.3512  -14.3869 N   0  0  0  0  0  0  0  0  0  0  0  0
  1  3  1  1  0  0  0
  1  5  2  0  0  0  0
  1  9  1  0  0  0  0
  1 18  1  0  0  0  0
  2  4  1  1  0  0  0
  2  6  2  0  0  0  0
  2 10  1  0  0  0  0
  2 17  1  0  0  0  0
  7  9  1  0  0  0  0
  8 10  1  0  0  0  0
 11  7  1  1  0  0  0
 11 13  1  0  0  0  0
 11 15  1  0  0  0  0
 12  8  1  6  0  0  0
 12 14  1  0  0  0  0
 12 16  1  0  0  0  0
 13 23  1  0  0  0  0
 14 24  1  0  0  0  0
 15 17  1  6  0  0  0
 15 19  1  0  0  0  0
 16 18  1  1  0  0  0
 16 20  1  0  0  0  0
 19 21  1  6  0  0  0
 19 23  1  0  0  0  0
 20 22  1  1  0  0  0
 20 24  1  0  0  0  0
 23 34  1  1  0  0  0
 24 44  1  6  0  0  0
 25 26  2  0  0  0  0
 25 30  1  0  0  0  0
 26 27  1  0  0  0  0
 27 28  2  0  0  0  0
 28 29  1  0  0  0  0
 28 34  1  0  0  0  0
 29 30  2  0  0  0  0
 29 32  1  0  0  0  0
 30 31  1  0  0  0  0
 32 33  2  0  0  0  0
 33 34  1  0  0  0  0
 35 36  2  0  0  0  0
 35 40  1  0  0  0  0
 36 37  1  0  0  0  0
 37 38  2  0  0  0  0
 38 39  1  0  0  0  0
 38 44  1  0  0  0  0
 39 40  2  0  0  0  0
 39 42  1  0  0  0  0
 40 41  1  0  0  0  0
 42 43  2  0  0  0  0
 43 44  1  0  0  0  0
M  CHG  2   3  -1   4  -1
M  END
>  <CHROM.1>
175.84581930,60.81620016,-6.37311267,36.14183004,-14.84202582,0.18760216
-0.09250945,-3.10889250

>  <Name>
ligand

>  <RI>
0

>  <Rbt.Current_Directory>
/home/itssahil/PROJECTS/Mol_Feturizer/New_Systems/rnas/4QLM

>  <Rbt.Executable>
rbdock ($Id: //depot/dev/client3/rdock/2013.1/src/exe/rbdock.cxx#4 $)

>  <Rbt.Library>
libRbt.so (2013.1, Build901 2013/11/27)

>  <Rbt.Parameter_File>
/export/apps/rDock/src/rDock_2013.1_src/data/scripts/dock_solv.prm

>  <Rbt.Receptor>
prm/pocket_docking_6.prm

>  <SCORE>
-9.16211

>  <SCORE.INTER>
-8.69261

>  <SCORE.INTER.CONST>
1

>  <SCORE.INTER.POLAR>
0

>  <SCORE.INTER.ROT>
2

>  <SCORE.INTER.SOLV>
24.3709

>  <SCORE.INTER.VDW>
-18.852

>  <SCORE.INTER.norm>
-0.197559

>  <SCORE.INTRA>
-0.469501

>  <SCORE.INTRA.DIHEDRAL>
0.0840117

>  <SCORE.INTRA.DIHEDRAL.0>
2.32994

>  <SCORE.INTRA.POLAR>
0

>  <SCORE.INTRA.POLAR.0>
0

>  <SCORE.INTRA.REPUL>
0

>  <SCORE.INTRA.REPUL.0>
0

>  <SCORE.INTRA.SOLV>
0.977358

>  <SCORE.INTRA.SOLV.lig_0>
-117.703

>  <SCORE.INTRA.VDW>
-1.00019

>  <SCORE.INTRA.VDW.0>
-1.59997

>  <SCORE.INTRA.norm>
-0.0106705

>  <SCORE.RESTR>
0

>  <SCORE.RESTR.CAVITY>
0

>  <SCORE.RESTR.norm>
0

>  <SCORE.SYSTEM>
0

>  <SCORE.SYSTEM.CONST>
0

>  <SCORE.SYSTEM.DIHEDRAL>
0

>  <SCORE.SYSTEM.SOLV>
0

>  <SCORE.SYSTEM.norm>
0

>  <SCORE.heavy>
44

>  <SCORE.norm>
-0.20823

>  <RMSD>
6.802

$$$$
ligand
 OpenBabel11021811513D
libRbt.so/2013.1/901 2013/11/27
 44 50  0  0  0  0  0  0  0  0999 V2000
   -6.1652   33.2001  -13.3303 P   0  0  2  0  0  0  0  0  0  0  0  0
   -5.9918   36.3203  -17.7393 P   0  0  1  0  0  0  0  0  0  0  0  0
   -6.8714   31.8521  -13.2085 O   0  5  0  0  0  0  0  0  0  0  0  0
   -6.2164   37.7233  -17.2303 O   0  5  0  0  0  0  0  0  0  0  0  0
   -6.1126   33.7734  -11.9345 O   0  0  0  0  0  0  0  0  0  0  0  0
   -5.4946   36.4332  -19.1984 O   0  0  0  0  0  0  0  0  0  0  0  0
   -7.7540   33.2662  -15.3083 C   0  0  0  0  0  0  0  0  0  0  0  0
   -4.7529   34.2184  -16.8933 C   0  0  0  0  0  0  0  0  0  0  0  0
   -7.0424   34.0283  -14.3238 O   0  0  0  0  0  0  0  0  0  0  0  0
   -4.9968   35.6286  -16.6274 O   0  0  0  0  0  0  0  0  0  0  0  0
   -8.6018   34.1902  -16.1759 C   0  0  1  0  0  0  0  0  0  0  0  0
   -3.6854   33.7493  -15.8341 C   0  0  1  0  0  0  0  0  0  0  0  0
   -9.7281   34.3962  -15.5665 O   0  0  0  0  0  0  0  0  0  0  0  0
   -2.7397   34.5935  -15.9176 O   0  0  0  0  0  0  0  0  0  0  0  0
   -7.9726   35.5471  -16.3936 C   0  0  1  0  0  0  0  0  0  0  0  0
   -4.2019   33.9643  -14.3975 C   0  0  1  0  0  0  0  0  0  0  0  0
   -7.3993   35.5167  -17.6259 O   0  0  0  0  0  0  0  0  0  0  0  0
   -4.6393   32.8192  -13.8596 O   0  0  0  0  0  0  0  0  0  0  0  0
   -9.1976   36.5266  -16.3868 C   0  0  1  0  0  0  0  0  0  0  0  0
   -3.0291   34.5534  -13.5810 C   0  0  1  0  0  0  0  0  0  0  0  0
   -9.5574   36.9045  -17.7800 O   0  0  0  0  0  0  0  0  0  0  0  0
   -2.4023   33.4954  -12.7249 O   0  0  0  0  0  0  0  0  0  0  0  0
  -10.1711   35.8990  -15.8088 C   0  0  2  0  0  0  0  0  0  0  0  0
   -2.1792   34.9550  -14.4627 C   0  0  2  0  0  0  0  0  0  0  0  0
  -11.6907   40.0065  -12.7039 N   0  0  0  0  0  0  0  0  0  0  0  0
  -11.5575   40.0420  -14.0597 C   0  0  0  0  0  0  0  0  0  0  0  0
  -11.1629   38.9330  -14.7638 N   0  0  0  0  0  0  0  0  0  0  0  0
  -10.8977   37.7757  -14.0851 C   0  0  0  0  0  0  0  0  0  0  0  0
  -11.0172   37.7274  -12.7510 C   0  0  0  0  0  0  0  0  0  0  0  0
  -11.4280   38.8562  -12.0441 C   0  0  0  0  0  0  0  0  0  0  0  0
  -11.5925   38.9371  -10.6472 N   0  0  0  0  0  0  0  0  0  0  0  0
  -10.7020   36.4768  -12.3524 N   0  0  0  0  0  0  0  0  0  0  0  0
  -10.3778   35.7529  -13.4615 C   0  0  0  0  0  0  0  0  0  0  0  0
  -10.5145   36.5463  -14.5320 N   0  0  0  0  0  0  0  0  0  0  0  0
   -4.1123   39.7839  -14.7185 N   0  0  0  0  0  0  0  0  0  0  0  0
   -4.8029   38.6219  -14.8570 C   0  0  0  0  0  0  0  0  0  0  0  0
   -4.1415   37.4293  -14.7696 N   0  0  0  0  0  0  0  0  0  0  0  0
   -2.8010   37.4045  -14.5397 C   0  0  0  0  0  0  0  0  0  0  0  0
   -2.1100   38.5536  -14.3967 C   0  0  0  0  0  0  0  0  0  0  0  0
   -2.7908   39.7638  -14.4912 C   0  0  0  0  0  0  0  0  0  0  0  0
   -2.2571   41.0980  -14.3909 N   0  0  0  0  0  0  0  0  0  0  0  0
   -0.8137   38.2228  -14.1837 N   0  0  0  0  0  0  0  0  0  0  0  0
   -0.7129   36.8628  -14.1911 C   0  0  0  0  0  0  0  0  0  0  0  0
   -1.9474   36.3662  -14.4089 N   0  0  0  0  0  0  0  0  0  0  0  0
  1  3  1  1  0  0  0
  1  5  2  0  0  0  0
  1  9  1  0  0  0  0
  1 18  1  0  0  0  0
  2  4  1  1  0  0  0
  2  6  2  0  0  0  0
  2 10  1  0  0  0  0
  2 17  1  0  0  0  0
  7  9  1  0  0  0  0
  8 10  1  0  0  0  0
 11  7  1  1  0  0  0
 11 13  1  0  0  0  0
 11 15  1  0  0  0  0
 12  8  1  6  0  0  0
 12 14  1  0  0  0  0
 12 16  1  0  0  0  0
 13 23  1  0  0  0  0
 14 24  1  0  0  0  0
 15 17  1  6  0  0  0
 15 19  1  0  0  0  0
 16 18  1  1  0  0  0
 16 20  1  0  0  0  0
 19 21  1  6  0  0  0
 19 23  1  0  0  0  0
 20 22  1  1  0  0  0
 20 24  1  0  0  0  0
 23 34  1  1  0  0  0
 24 44  1  6  0  0  0
 25 26  2  0  0  0  0
 25 30  1  0  0  0  0
 26 27  1  0  0  0  0
 27 28  2  0  0  0  0
 28 29  1  0  0  0  0
 28 34  1  0  0  0  0
 29 30  2  0  0  0  0
 29 32  1  0  0  0  0
 30 31  1  0  0  0  0
 32 33  2  0  0  0  0
 33 34  1  0  0  0  0
 35 36  2  0  0  0  0
 35 40  1  0  0  0  0
 36 37  1  0  0  0  0
 37 38  2  0  0  0  0
 38 39  1  0  0  0  0
 38 44  1  0  0  0  0
 39 40  2  0  0  0  0
 39 42  1  0  0  0  0
 40 41  1  0  0  0  0
 42 43  2  0  0  0  0
 43 44  1  0  0  0  0
M  CHG  2   3  -1   4  -1
M  END
>  <CHROM.1>
176.97309585,61.79286303,-6.42066171,36.15511432,-14.83052199,0.18919273
-0.09707343,-3.10762731

>  <Name>
ligand

>  <RI>
0

>  <Rbt.Current_Directory>
/home/itssahil/PROJECTS/Mol_Feturizer/New_Systems/rnas/4QLM

>  <Rbt.Executable>
rbdock ($Id: //depot/dev/client3/rdock/2013.1/src/exe/rbdock.cxx#4 $)

>  <Rbt.Library>
libRbt.so (2013.1, Build901 2013/11/27)

>  <Rbt.Parameter_File>
/export/apps/rDock/src/rDock_2013.1_src/data/scripts/dock_solv.prm

>  <Rbt.Receptor>
prm/pocket_docking_6.prm

>  <SCORE>
-9.13003

>  <SCORE.INTER>
-8.62195

>  <SCORE.INTER.CONST>
1

>  <SCORE.INTER.POLAR>
0

>  <SCORE.INTER.ROT>
2

>  <SCORE.INTER.SOLV>
24.4171

>  <SCORE.INTER.VDW>
-18.8203

>  <SCORE.INTER.norm>
-0.195953

>  <SCORE.INTRA>
-0.508084

>  <SCORE.INTRA.DIHEDRAL>
0.0784217

>  <SCORE.INTRA.DIHEDRAL.0>
2.32994

>  <SCORE.INTRA.POLAR>
0

>  <SCORE.INTRA.POLAR.0>
0

>  <SCORE.INTRA.REPUL>
0

>  <SCORE.INTRA.REPUL.0>
0

>  <SCORE.INTRA.SOLV>
0.934758

>  <SCORE.INTRA.SOLV.lig_0>
-117.703

>  <SCORE.INTRA.VDW>
-1.01467

>  <SCORE.INTRA.VDW.0>
-1.59997

>  <SCORE.INTRA.norm>
-0.0115474

>  <SCORE.RESTR>
0

>  <SCORE.RESTR.CAVITY>
0

>  <SCORE.RESTR.norm>
0

>  <SCORE.SYSTEM>
0

>  <SCORE.SYSTEM.CONST>
0

>  <SCORE.SYSTEM.DIHEDRAL>
0

>  <SCORE.SYSTEM.SOLV>
0

>  <SCORE.SYSTEM.norm>
0

>  <SCORE.heavy>
44

>  <SCORE.norm>
-0.207501

>  <RMSD>
6.806

$$$$
ligand
 OpenBabel11021811513D
libRbt.so/2013.1/901 2013/11/27
 44 50  0  0  0  0  0  0  0  0999 V2000
   -5.3851   33.6671  -13.2452 P   0  0  2  0  0  0  0  0  0  0  0  0
   -3.3198   36.7730  -17.1559 P   0  0  1  0  0  0  0  0  0  0  0  0
   -5.8203   32.2108  -13.3875 O   0  5  0  0  0  0  0  0  0  0  0  0
   -4.0036   38.1085  -16.9920 O   0  5  0  0  0  0  0  0  0  0  0  0
   -6.1961   34.2376  -12.1066 O   0  0  0  0  0  0  0  0  0  0  0  0
   -2.1301   36.9795  -18.1208 O   0  0  0  0  0  0  0  0  0  0  0  0
   -5.6187   33.4391  -15.7620 C   0  0  0  0  0  0  0  0  0  0  0  0
   -2.4341   34.9379  -15.5696 C   0  0  0  0  0  0  0  0  0  0  0  0
   -5.6926   34.3189  -14.6320 O   0  0  0  0  0  0  0  0  0  0  0  0
   -3.0018   36.2772  -15.6203 O   0  0  0  0  0  0  0  0  0  0  0  0
   -5.9860   34.1902  -17.0374 C   0  0  1  0  0  0  0  0  0  0  0  0
   -2.0626   34.6743  -14.0616 C   0  0  1  0  0  0  0  0  0  0  0  0
   -7.2777   34.1811  -17.1541 O   0  0  0  0  0  0  0  0  0  0  0  0
   -1.3723   35.6804  -13.7076 O   0  0  0  0  0  0  0  0  0  0  0  0
   -5.5630   35.6411  -17.0175 C   0  0  1  0  0  0  0  0  0  0  0  0
   -3.3074   34.7864  -13.1589 C   0  0  1  0  0  0  0  0  0  0  0  0
   -4.4124   35.7205  -17.7373 O   0  0  0  0  0  0  0  0  0  0  0  0
   -3.7812   33.5788  -12.8288 O   0  0  0  0  0  0  0  0  0  0  0  0
   -6.7276   36.3747  -17.7696 C   0  0  1  0  0  0  0  0  0  0  0  0
   -2.8829   35.5826  -11.9039 C   0  0  1  0  0  0  0  0  0  0  0  0
   -6.3202   36.6813  -19.1672 O   0  0  0  0  0  0  0  0  0  0  0  0
   -2.6699   34.6587  -10.7436 O   0  0  0  0  0  0  0  0  0  0  0  0
   -7.7456   35.5753  -17.7465 C   0  0  2  0  0  0  0  0  0  0  0  0
   -1.7648   36.1375  -12.2249 C   0  0  2  0  0  0  0  0  0  0  0  0
  -10.2667   36.7137  -13.1455 N   0  0  0  0  0  0  0  0  0  0  0  0
   -9.0708   36.0700  -13.2582 C   0  0  0  0  0  0  0  0  0  0  0  0
   -8.5077   35.8273  -14.4853 N   0  0  0  0  0  0  0  0  0  0  0  0
   -9.1661   36.2396  -15.6108 C   0  0  0  0  0  0  0  0  0  0  0  0
  -10.3465   36.8675  -15.5162 C   0  0  0  0  0  0  0  0  0  0  0  0
  -10.9071   37.1186  -14.2651 C   0  0  0  0  0  0  0  0  0  0  0  0
  -12.1358   37.7666  -14.0295 N   0  0  0  0  0  0  0  0  0  0  0  0
  -10.7605   37.1606  -16.7672 N   0  0  0  0  0  0  0  0  0  0  0  0
   -9.8201   36.6971  -17.6390 C   0  0  0  0  0  0  0  0  0  0  0  0
   -8.8285   36.1447  -16.9279 N   0  0  0  0  0  0  0  0  0  0  0  0
   -1.5506   40.6409  -14.8315 N   0  0  0  0  0  0  0  0  0  0  0  0
   -1.4096   39.3926  -15.3495 C   0  0  0  0  0  0  0  0  0  0  0  0
   -1.4856   38.3067  -14.5235 N   0  0  0  0  0  0  0  0  0  0  0  0
   -1.7066   38.4731  -13.1916 C   0  0  0  0  0  0  0  0  0  0  0  0
   -1.8521   39.7085  -12.6713 C   0  0  0  0  0  0  0  0  0  0  0  0
   -1.7693   40.8092  -13.5191 C   0  0  0  0  0  0  0  0  0  0  0  0
   -1.8742   42.2056  -13.1813 N   0  0  0  0  0  0  0  0  0  0  0  0
   -2.0547   39.5658  -11.3395 N   0  0  0  0  0  0  0  0  0  0  0  0
   -2.0385   38.2343  -11.0450 C   0  0  0  0  0  0  0  0  0  0  0  0
   -1.8257   37.5671  -12.1972 N   0  0  0  0  0  0  0  0  0  0  0  0
  1  3  1  6  0  0  0
  1  5  2  0  0  0  0
  1  9  1  0  0  0  0
  1 18  1  0  0  0  0
  2  4  1  1  0  0  0
  2  6  2  0  0  0  0
  2 10  1  0  0  0  0
  2 17  1  0  0  0  0
  7  9  1  0  0  0  0
  8 10  1  0  0  0  0
 11  7  1  1  0  0  0
 11 13  1  0  0  0  0
 11 15  1  0  0  0  0
 12  8  1  6  0  0  0
 12 14  1  0  0  0  0
 12 16  1  0  0  0  0
 13 23  1  0  0  0  0
 14 24  1  0  0  0  0
 15 17  1  6  0  0  0
 15 19  1  0  0  0  0
 16 18  1  1  0  0  0
 16 20  1  0  0  0  0
 19 21  1  6  0  0  0
 19 23  1  0  0  0  0
 20 22  1  1  0  0  0
 20 24  1  0  0  0  0
 23 34  1  1  0  0  0
 24 44  1  6  0  0  0
 25 26  2  0  0  0  0
 25 30  1  0  0  0  0
 26 27  1  0  0  0  0
 27 28  2  0  0  0  0
 28 29  1  0  0  0  0
 28 34  1  0  0  0  0
 29 30  2  0  0  0  0
 29 32  1  0  0  0  0
 30 31  1  0  0  0  0
 32 33  2  0  0  0  0
 33 34  1  0  0  0  0
 35 36  2  0  0  0  0
 35 40  1  0  0  0  0
 36 37  1  0  0  0  0
 37 38  2  0  0  0  0
 38 39  1  0  0  0  0
 38 44  1  0  0  0  0
 39 40  2  0  0  0  0
 39 42  1  0  0  0  0
 40 41  1  0  0  0  0
 42 43  2  0  0  0  0
 43 44  1  0  0  0  0
M  CHG  2   3  -1   4  -1
M  END
>  <CHROM.1>
38.54593390,5.35374928,-4.98625718,36.35227892,-14.78786240,3.07327569,-0.40736721
-0.85976756

>  <Name>
ligand

>  <RI>
0

>  <Rbt.Current_Directory>
/home/itssahil/PROJECTS/Mol_Feturizer/New_Systems/rnas/4QLM

>  <Rbt.Executable>
rbdock ($Id: //depot/dev/client3/rdock/2013.1/src/exe/rbdock.cxx#4 $)

>  <Rbt.Library>
libRbt.so (2013.1, Build901 2013/11/27)

>  <Rbt.Parameter_File>
/export/apps/rDock/src/rDock_2013.1_src/data/scripts/dock_solv.prm

>  <Rbt.Receptor>
prm/pocket_docking_7.prm

>  <SCORE>
-12.2046

>  <SCORE.INTER>
-10.8603

>  <SCORE.INTER.CONST>
1

>  <SCORE.INTER.POLAR>
0

>  <SCORE.INTER.ROT>
2

>  <SCORE.INTER.SOLV>
18.2653

>  <SCORE.INTER.VDW>
-18.2619

>  <SCORE.INTER.norm>
-0.246824

>  <SCORE.INTRA>
-1.34432

>  <SCORE.INTRA.DIHEDRAL>
0.157186

>  <SCORE.INTRA.DIHEDRAL.0>
2.32994

>  <SCORE.INTRA.POLAR>
0

>  <SCORE.INTRA.POLAR.0>
0

>  <SCORE.INTRA.REPUL>
0

>  <SCORE.INTRA.REPUL.0>
0

>  <SCORE.INTRA.SOLV>
1.33981

>  <SCORE.INTRA.SOLV.lig_0>
-117.703

>  <SCORE.INTRA.VDW>
-2.09282

>  <SCORE.INTRA.VDW.0>
-1.59997

>  <SCORE.INTRA.norm>
-0.0305527

>  <SCORE.RESTR>
0

>  <SCORE.RESTR.CAVITY>
0

>  <SCORE.RESTR.norm>
0

>  <SCORE.SYSTEM>
0

>  <SCORE.SYSTEM.CONST>
0

>  <SCORE.SYSTEM.DIHEDRAL>
0

>  <SCORE.SYSTEM.SOLV>
0

>  <SCORE.SYSTEM.norm>
0

>  <SCORE.heavy>
44

>  <SCORE.norm>
-0.277377

>  <RMSD>
6.808

$$$$
ligand
 OpenBabel11021811513D
libRbt.so/2013.1/901 2013/11/27
 44 50  0  0  0  0  0  0  0  0999 V2000
   -8.4660   31.9592  -12.5722 P   0  0  2  0  0  0  0  0  0  0  0  0
  -11.0355   34.3585  -16.6766 P   0  0  1  0  0  0  0  0  0  0  0  0
   -8.9968   30.8004  -11.7319 O   0  5  0  0  0  0  0  0  0  0  0  0
  -10.7928   35.8346  -16.4760 O   0  5  0  0  0  0  0  0  0  0  0  0
   -7.4824   32.6965  -11.6957 O   0  0  0  0  0  0  0  0  0  0  0  0
  -11.6060   34.1745  -18.1013 O   0  0  0  0  0  0  0  0  0  0  0  0
  -10.9536   32.0577  -13.0653 C   0  0  0  0  0  0  0  0  0  0  0  0
   -9.6672   32.1939  -16.3443 C   0  0  0  0  0  0  0  0  0  0  0  0
   -9.7300   32.7966  -12.9512 O   0  0  0  0  0  0  0  0  0  0  0  0
   -9.5975   33.6475  -16.3144 O   0  0  0  0  0  0  0  0  0  0  0  0
  -12.1078   32.9997  -13.3907 C   0  0  1  0  0  0  0  0  0  0  0  0
   -8.1962   31.6781  -16.1174 C   0  0  1  0  0  0  0  0  0  0  0  0
  -12.5489   33.4982  -12.2775 O   0  0  0  0  0  0  0  0  0  0  0  0
   -7.4882   32.3066  -16.9646 O   0  0  0  0  0  0  0  0  0  0  0  0
  -11.6972   34.1688  -14.2562 C   0  0  1  0  0  0  0  0  0  0  0  0
   -7.6362   32.1815  -14.7721 C   0  0  1  0  0  0  0  0  0  0  0  0
  -12.0704   33.8618  -15.5269 O   0  0  0  0  0  0  0  0  0  0  0  0
   -7.6806   31.2252  -13.8364 O   0  0  0  0  0  0  0  0  0  0  0  0
  -12.5622   35.3560  -13.7062 C   0  0  1  0  0  0  0  0  0  0  0  0
   -6.1837   32.6412  -15.0329 C   0  0  1  0  0  0  0  0  0  0  0  0
  -13.7221   35.6023  -14.6049 O   0  0  0  0  0  0  0  0  0  0  0  0
   -5.2116   31.6096  -14.5471 O   0  0  0  0  0  0  0  0  0  0  0  0
  -12.9561   35.0107  -12.5224 C   0  0  2  0  0  0  0  0  0  0  0  0
   -6.0944   32.7491  -16.3141 C   0  0  2  0  0  0  0  0  0  0  0  0
  -13.0287   38.5182   -8.4587 N   0  0  0  0  0  0  0  0  0  0  0  0
  -14.1247   37.9741   -9.0586 C   0  0  0  0  0  0  0  0  0  0  0  0
  -13.9989   37.0821  -10.0930 N   0  0  0  0  0  0  0  0  0  0  0  0
  -12.7475   36.7399  -10.5257 C   0  0  0  0  0  0  0  0  0  0  0  0
  -11.6602   37.2721   -9.9504 C   0  0  0  0  0  0  0  0  0  0  0  0
  -11.7968   38.1706   -8.8936 C   0  0  0  0  0  0  0  0  0  0  0  0
  -10.7394   38.7982   -8.2058 N   0  0  0  0  0  0  0  0  0  0  0  0
  -10.5737   36.7598  -10.5661 N   0  0  0  0  0  0  0  0  0  0  0  0
  -11.0063   35.9065  -11.5377 C   0  0  0  0  0  0  0  0  0  0  0  0
  -12.3450   35.8794  -11.5031 N   0  0  0  0  0  0  0  0  0  0  0  0
   -2.5753   36.2139  -17.9669 N   0  0  0  0  0  0  0  0  0  0  0  0
   -2.3475   34.9152  -17.6386 C   0  0  0  0  0  0  0  0  0  0  0  0
   -3.3852   34.1349  -17.2123 N   0  0  0  0  0  0  0  0  0  0  0  0
   -4.6399   34.6528  -17.1223 C   0  0  0  0  0  0  0  0  0  0  0  0
   -4.8742   35.9394  -17.4507 C   0  0  0  0  0  0  0  0  0  0  0  0
   -3.8108   36.7281  -17.8801 C   0  0  0  0  0  0  0  0  0  0  0  0
   -3.8267   38.1176  -18.2597 N   0  0  0  0  0  0  0  0  0  0  0  0
   -6.1954   36.1714  -17.2620 N   0  0  0  0  0  0  0  0  0  0  0  0
   -6.7732   35.0176  -16.8208 C   0  0  0  0  0  0  0  0  0  0  0  0
   -5.8037   34.0839  -16.7406 N   0  0  0  0  0  0  0  0  0  0  0  0
  1  3  1  1  0  0  0
  1  5  2  0  0  0  0
  1  9  1  0  0  0  0
  1 18  1  0  0  0  0
  2  4  1  1  0  0  0
  2  6  2  0  0  0  0
  2 10  1  0  0  0  0
  2 17  1  0  0  0  0
  7  9  1  0  0  0  0
  8 10  1  0  0  0  0
 11  7  1  1  0  0  0
 11 13  1  0  0  0  0
 11 15  1  0  0  0  0
 12  8  1  6  0  0  0
 12 14  1  0  0  0  0
 12 16  1  0  0  0  0
 13 23  1  0  0  0  0
 14 24  1  0  0  0  0
 15 17  1  6  0  0  0
 15 19  1  0  0  0  0
 16 18  1  1  0  0  0
 16 20  1  0  0  0  0
 19 21  1  6  0  0  0
 19 23  1  0  0  0  0
 20 22  1  6  0  0  0
 20 24  1  0  0  0  0
 23 34  1  1  0  0  0
 24 44  1  1  0  0  0
 25 26  2  0  0  0  0
 25 30  1  0  0  0  0
 26 27  1  0  0  0  0
 27 28  2  0  0  0  0
 28 29  1  0  0  0  0
 28 34  1  0  0  0  0
 29 30  2  0  0  0  0
 29 32  1  0  0  0  0
 30 31  1  0  0  0  0
 32 33  2  0  0  0  0
 33 34  1  0  0  0  0
 35 36  2  0  0  0  0
 35 40  1  0  0  0  0
 36 37  1  0  0  0  0
 37 38  2  0  0  0  0
 38 39  1  0  0  0  0
 38 44  1  0  0  0  0
 39 40  2  0  0  0  0
 39 42  1  0  0  0  0
 40 41  1  0  0  0  0
 42 43  2  0  0  0  0
 43 44  1  0  0  0  0
M  CHG  2   3  -1   4  -1
M  END
>  <CHROM.1>
-119.44253449,-139.51992266,-9.18057198,34.47831190,-14.20836399,0.48336797
-0.55994526,-2.66479879

>  <Name>
ligand

>  <RI>
0

>  <Rbt.Current_Directory>
/home/itssahil/PROJECTS/Mol_Feturizer/New_Systems/rnas/4QLM

>  <Rbt.Executable>
rbdock ($Id: //depot/dev/client3/rdock/2013.1/src/exe/rbdock.cxx#4 $)

>  <Rbt.Library>
libRbt.so (2013.1, Build901 2013/11/27)

>  <Rbt.Parameter_File>
/export/apps/rDock/src/rDock_2013.1_src/data/scripts/dock_solv.prm

>  <Rbt.Receptor>
prm/pocket_docking_8.prm

>  <SCORE>
-13.4226

>  <SCORE.INTER>
-14.1281

>  <SCORE.INTER.CONST>
1

>  <SCORE.INTER.POLAR>
0

>  <SCORE.INTER.ROT>
2

>  <SCORE.INTER.SOLV>
26.8511

>  <SCORE.INTER.VDW>
-23.3024

>  <SCORE.INTER.norm>
-0.321093

>  <SCORE.INTRA>
0.705439

>  <SCORE.INTRA.DIHEDRAL>
0.0915465

>  <SCORE.INTRA.DIHEDRAL.0>
2.32994

>  <SCORE.INTRA.POLAR>
0

>  <SCORE.INTRA.POLAR.0>
0

>  <SCORE.INTRA.REPUL>
0

>  <SCORE.INTRA.REPUL.0>
0

>  <SCORE.INTRA.SOLV>
-0.00198403

>  <SCORE.INTRA.SOLV.lig_0>
-117.703

>  <SCORE.INTRA.VDW>
0.660658

>  <SCORE.INTRA.VDW.0>
-1.59997

>  <SCORE.INTRA.norm>
0.0160327

>  <SCORE.RESTR>
0

>  <SCORE.RESTR.CAVITY>
0

>  <SCORE.RESTR.norm>
0

>  <SCORE.SYSTEM>
0

>  <SCORE.SYSTEM.CONST>
0

>  <SCORE.SYSTEM.DIHEDRAL>
0

>  <SCORE.SYSTEM.SOLV>
0

>  <SCORE.SYSTEM.norm>
0

>  <SCORE.heavy>
44

>  <SCORE.norm>
-0.30506

>  <RMSD>
6.821

$$$$
ligand
 OpenBabel11021811513D
libRbt.so/2013.1/901 2013/11/27
 44 50  0  0  0  0  0  0  0  0999 V2000
   -7.9215   31.7975  -12.7311 P   0  0  2  0  0  0  0  0  0  0  0  0
   -7.7663   35.0444  -17.0484 P   0  0  1  0  0  0  0  0  0  0  0  0
   -7.9255   30.2710  -12.7523 O   0  5  0  0  0  0  0  0  0  0  0  0
   -8.7629   36.1372  -16.7475 O   0  5  0  0  0  0  0  0  0  0  0  0
   -8.5989   32.2005  -11.4434 O   0  0  0  0  0  0  0  0  0  0  0  0
   -6.9294   35.5053  -18.2634 O   0  0  0  0  0  0  0  0  0  0  0  0
   -8.6153   31.3137  -15.1240 C   0  0  0  0  0  0  0  0  0  0  0  0
   -6.0555   33.6707  -15.6866 C   0  0  0  0  0  0  0  0  0  0  0  0
   -8.7006   32.2221  -14.0178 O   0  0  0  0  0  0  0  0  0  0  0  0
   -6.9916   34.7834  -15.6213 O   0  0  0  0  0  0  0  0  0  0  0  0
   -9.4553   31.8250  -16.2895 C   0  0  1  0  0  0  0  0  0  0  0  0
   -5.3058   33.6446  -14.3014 C   0  0  1  0  0  0  0  0  0  0  0  0
  -10.6796   31.4377  -16.1060 O   0  0  0  0  0  0  0  0  0  0  0  0
   -4.8853   34.8308  -14.1276 O   0  0  0  0  0  0  0  0  0  0  0  0
   -9.4876   33.3330  -16.3847 C   0  0  1  0  0  0  0  0  0  0  0  0
   -6.3019   33.4673  -13.1381 C   0  0  1  0  0  0  0  0  0  0  0  0
   -8.5964   33.6809  -17.3506 O   0  0  0  0  0  0  0  0  0  0  0  0
   -6.3133   32.2047  -12.6936 O   0  0  0  0  0  0  0  0  0  0  0  0
  -10.9511   33.6410  -16.8575 C   0  0  1  0  0  0  0  0  0  0  0  0
   -5.8717   34.4484  -12.0238 C   0  0  1  0  0  0  0  0  0  0  0  0
  -10.9651   33.9397  -18.3149 O   0  0  0  0  0  0  0  0  0  0  0  0
   -5.1489   33.7188  -10.9327 O   0  0  0  0  0  0  0  0  0  0  0  0
  -11.6561   32.5884  -16.5915 C   0  0  2  0  0  0  0  0  0  0  0  0
   -5.0655   35.2725  -12.5998 C   0  0  2  0  0  0  0  0  0  0  0  0
  -13.2991   34.4335  -11.8252 N   0  0  0  0  0  0  0  0  0  0  0  0
  -12.0199   34.4703  -12.2936 C   0  0  0  0  0  0  0  0  0  0  0  0
  -11.7021   33.9715  -13.5312 N   0  0  0  0  0  0  0  0  0  0  0  0
  -12.6922   33.4268  -14.3015 C   0  0  0  0  0  0  0  0  0  0  0  0
  -13.9537   33.3769  -13.8515 C   0  0  0  0  0  0  0  0  0  0  0  0
  -14.2698   33.8946  -12.5966 C   0  0  0  0  0  0  0  0  0  0  0  0
  -15.5506   33.9041  -12.0096 N   0  0  0  0  0  0  0  0  0  0  0  0
  -14.7116   32.7999  -14.8079 N   0  0  0  0  0  0  0  0  0  0  0  0
  -13.8970   32.4863  -15.8554 C   0  0  0  0  0  0  0  0  0  0  0  0
  -12.6554   32.8874  -15.5527 N   0  0  0  0  0  0  0  0  0  0  0  0
   -7.6888   39.0120  -10.0988 N   0  0  0  0  0  0  0  0  0  0  0  0
   -7.4934   37.7344   -9.6793 C   0  0  0  0  0  0  0  0  0  0  0  0
   -6.7829   36.8684  -10.4619 N   0  0  0  0  0  0  0  0  0  0  0  0
   -6.2691   37.2835  -11.6511 C   0  0  0  0  0  0  0  0  0  0  0  0
   -6.4551   38.5510  -12.0716 C   0  0  0  0  0  0  0  0  0  0  0  0
   -7.1834   39.4253  -11.2701 C   0  0  0  0  0  0  0  0  0  0  0  0
   -7.5177   40.8028  -11.5270 N   0  0  0  0  0  0  0  0  0  0  0  0
   -5.8417   38.6733  -13.2732 N   0  0  0  0  0  0  0  0  0  0  0  0
   -5.2725   37.4742  -13.5864 C   0  0  0  0  0  0  0  0  0  0  0  0
   -5.5399   36.6225  -12.5759 N   0  0  0  0  0  0  0  0  0  0  0  0
  1  3  1  6  0  0  0
  1  5  2  0  0  0  0
  1  9  1  0  0  0  0
  1 18  1  0  0  0  0
  2  4  1  1  0  0  0
  2  6  2  0  0  0  0
  2 10  1  0  0  0  0
  2 17  1  0  0  0  0
  7  9  1  0  0  0  0
  8 10  1  0  0  0  0
 11  7  1  1  0  0  0
 11 13  1  0  0  0  0
 11 15  1  0  0  0  0
 12  8  1  6  0  0  0
 12 14  1  0  0  0  0
 12 16  1  0  0  0  0
 13 23  1  0  0  0  0
 14 24  1  0  0  0  0
 15 17  1  6  0  0  0
 15 19  1  0  0  0  0
 16 18  1  1  0  0  0
 16 20  1  0  0  0  0
 19 21  1  6  0  0  0
 19 23  1  0  0  0  0
 20 22  1  1  0  0  0
 20 24  1  0  0  0  0
 23 34  1  1  0  0  0
 24 44  1  6  0  0  0
 25 26  2  0  0  0  0
 25 30  1  0  0  0  0
 26 27  1  0  0  0  0
 27 28  2  0  0  0  0
 28 29  1  0  0  0  0
 28 34  1  0  0  0  0
 29 30  2  0  0  0  0
 29 32  1  0  0  0  0
 30 31  1  0  0  0  0
 32 33  2  0  0  0  0
 33 34  1  0  0  0  0
 35 36  2  0  0  0  0
 35 40  1  0  0  0  0
 36 37  1  0  0  0  0
 37 38  2  0  0  0  0
 38 39  1  0  0  0  0
 38 44  1  0  0  0  0
 39 40  2  0  0  0  0
 39 42  1  0  0  0  0
 40 41  1  0  0  0  0
 42 43  2  0  0  0  0
 43 44  1  0  0  0  0
M  CHG  2   3  -1   4  -1
M  END
>  <CHROM.1>
67.55345825,153.63103568,-8.74478169,34.39763786,-13.97826545,-2.50150324
0.19888408,0.87993658

>  <Name>
ligand

>  <RI>
0

>  <Rbt.Current_Directory>
/home/itssahil/PROJECTS/Mol_Feturizer/New_Systems/rnas/4QLM

>  <Rbt.Executable>
rbdock ($Id: //depot/dev/client3/rdock/2013.1/src/exe/rbdock.cxx#4 $)

>  <Rbt.Library>
libRbt.so (2013.1, Build901 2013/11/27)

>  <Rbt.Parameter_File>
/export/apps/rDock/src/rDock_2013.1_src/data/scripts/dock_solv.prm

>  <Rbt.Receptor>
prm/pocket_docking_8.prm

>  <SCORE>
-9.5834

>  <SCORE.INTER>
-9.20173

>  <SCORE.INTER.CONST>
1

>  <SCORE.INTER.POLAR>
0

>  <SCORE.INTER.ROT>
2

>  <SCORE.INTER.SOLV>
26.9394

>  <SCORE.INTER.VDW>
-20.0476

>  <SCORE.INTER.norm>
-0.20913

>  <SCORE.INTRA>
-0.381671

>  <SCORE.INTRA.DIHEDRAL>
0.0107847

>  <SCORE.INTRA.DIHEDRAL.0>
2.32994

>  <SCORE.INTRA.POLAR>
0

>  <SCORE.INTRA.POLAR.0>
0

>  <SCORE.INTRA.REPUL>
0

>  <SCORE.INTRA.REPUL.0>
0

>  <SCORE.INTRA.SOLV>
0.066728

>  <SCORE.INTRA.SOLV.lig_0>
-117.703

>  <SCORE.INTRA.VDW>
-0.420428

>  <SCORE.INTRA.VDW.0>
-1.59997

>  <SCORE.INTRA.norm>
-0.00867435

>  <SCORE.RESTR>
0

>  <SCORE.RESTR.CAVITY>
0

>  <SCORE.RESTR.norm>
0

>  <SCORE.SYSTEM>
0

>  <SCORE.SYSTEM.CONST>
0

>  <SCORE.SYSTEM.DIHEDRAL>
0

>  <SCORE.SYSTEM.SOLV>
0

>  <SCORE.SYSTEM.norm>
0

>  <SCORE.heavy>
44

>  <SCORE.norm>
-0.217805

>  <RMSD>
6.828

$$$$
ligand
 OpenBabel11021811513D
libRbt.so/2013.1/901 2013/11/27
 44 50  0  0  0  0  0  0  0  0999 V2000
   -9.7220   32.1740  -13.7154 P   0  0  2  0  0  0  0  0  0  0  0  0
   -7.7452   35.6836  -17.3182 P   0  0  1  0  0  0  0  0  0  0  0  0
  -10.5196   30.9115  -14.0324 O   0  5  0  0  0  0  0  0  0  0  0  0
   -8.0368   37.0444  -16.7340 O   0  5  0  0  0  0  0  0  0  0  0  0
  -10.1357   32.5931  -12.3251 O   0  0  0  0  0  0  0  0  0  0  0  0
   -6.7481   35.8855  -18.4818 O   0  0  0  0  0  0  0  0  0  0  0  0
  -10.4807   32.6236  -16.0952 C   0  0  0  0  0  0  0  0  0  0  0  0
   -7.0497   33.3778  -16.3867 C   0  0  0  0  0  0  0  0  0  0  0  0
  -10.1196   33.1945  -14.8303 O   0  0  0  0  0  0  0  0  0  0  0  0
   -7.2710   34.7724  -16.0337 O   0  0  0  0  0  0  0  0  0  0  0  0
  -10.8894   33.7226  -17.0702 C   0  0  1  0  0  0  0  0  0  0  0  0
   -6.4731   32.6834  -15.0956 C   0  0  1  0  0  0  0  0  0  0  0  0
  -12.1418   33.9947  -16.8707 O   0  0  0  0  0  0  0  0  0  0  0  0
   -5.5029   33.4166  -14.7279 O   0  0  0  0  0  0  0  0  0  0  0  0
  -10.1282   35.0125  -16.8677 C   0  0  1  0  0  0  0  0  0  0  0  0
   -7.4565   32.8101  -13.9150 C   0  0  1  0  0  0  0  0  0  0  0  0
   -9.1526   35.0410  -17.8140 O   0  0  0  0  0  0  0  0  0  0  0  0
   -8.1396   31.6747  -13.7248 O   0  0  0  0  0  0  0  0  0  0  0  0
  -11.1993   36.1215  -17.1562 C   0  0  1  0  0  0  0  0  0  0  0  0
   -6.6183   33.1738  -12.6682 C   0  0  1  0  0  0  0  0  0  0  0  0
  -11.0039   36.6776  -18.5222 O   0  0  0  0  0  0  0  0  0  0  0  0
   -6.4205   31.9691  -11.7993 O   0  0  0  0  0  0  0  0  0  0  0  0
  -12.3583   35.5554  -17.0458 C   0  0  2  0  0  0  0  0  0  0  0  0
   -5.4810   33.5616  -13.1341 C   0  0  2  0  0  0  0  0  0  0  0  0
  -12.7935   38.0200  -12.2963 N   0  0  0  0  0  0  0  0  0  0  0  0
  -11.6310   37.7931  -12.9702 C   0  0  0  0  0  0  0  0  0  0  0  0
  -11.6267   37.1531  -14.1835 N   0  0  0  0  0  0  0  0  0  0  0  0
  -12.8145   36.7363  -14.7181 C   0  0  0  0  0  0  0  0  0  0  0  0
  -13.9652   36.9459  -14.0637 C   0  0  0  0  0  0  0  0  0  0  0  0
  -13.9616   37.6054  -12.8357 C   0  0  0  0  0  0  0  0  0  0  0  0
  -15.0968   37.8871  -12.0502 N   0  0  0  0  0  0  0  0  0  0  0  0
  -14.9665   36.4419  -14.8157 N   0  0  0  0  0  0  0  0  0  0  0  0
  -14.4160   35.9097  -15.9439 C   0  0  0  0  0  0  0  0  0  0  0  0
  -13.0919   36.1054  -15.8940 N   0  0  0  0  0  0  0  0  0  0  0  0
   -4.7684   38.4559  -14.7645 N   0  0  0  0  0  0  0  0  0  0  0  0
   -5.0567   37.3746  -15.5353 C   0  0  0  0  0  0  0  0  0  0  0  0
   -5.2069   36.1492  -14.9496 N   0  0  0  0  0  0  0  0  0  0  0  0
   -5.0744   36.0127  -13.6027 C   0  0  0  0  0  0  0  0  0  0  0  0
   -4.7929   37.0820  -12.8310 C   0  0  0  0  0  0  0  0  0  0  0  0
   -4.6376   38.3257  -13.4362 C   0  0  0  0  0  0  0  0  0  0  0  0
   -4.3197   39.5864  -12.8160 N   0  0  0  0  0  0  0  0  0  0  0  0
   -4.7185   36.6486  -11.5497 N   0  0  0  0  0  0  0  0  0  0  0  0
   -4.9616   35.3067  -11.5377 C   0  0  0  0  0  0  0  0  0  0  0  0
   -5.1834   34.9237  -12.8114 N   0  0  0  0  0  0  0  0  0  0  0  0
  1  3  1  6  0  0  0
  1  5  2  0  0  0  0
  1  9  1  0  0  0  0
  1 18  1  0  0  0  0
  2  4  1  1  0  0  0
  2  6  2  0  0  0  0
  2 10  1  0  0  0  0
  2 17  1  0  0  0  0
  7  9  1  0  0  0  0
  8 10  1  0  0  0  0
 11  7  1  1  0  0  0
 11 13  1  0  0  0  0
 11 15  1  0  0  0  0
 12  8  1  6  0  0  0
 12 14  1  0  0  0  0
 12 16  1  0  0  0  0
 13 23  1  0  0  0  0
 14 24  1  0  0  0  0
 15 17  1  6  0  0  0
 15 19  1  0  0  0  0
 16 18  1  1  0  0  0
 16 20  1  0  0  0  0
 19 21  1  6  0  0  0
 19 23  1  0  0  0  0
 20 22  1  1  0  0  0
 20 24  1  0  0  0  0
 23 34  1  1  0  0  0
 24 44  1  6  0  0  0
 25 26  2  0  0  0  0
 25 30  1  0  0  0  0
 26 27  1  0  0  0  0
 27 28  2  0  0  0  0
 28 29  1  0  0  0  0
 28 34  1  0  0  0  0
 29 30  2  0  0  0  0
 29 32  1  0  0  0  0
 30 31  1  0  0  0  0
 32 33  2  0  0  0  0
 33 34  1  0  0  0  0
 35 36  2  0  0  0  0
 35 40  1  0  0  0  0
 36 37  1  0  0  0  0
 37 38  2  0  0  0  0
 38 39  1  0  0  0  0
 38 44  1  0  0  0  0
 39 40  2  0  0  0  0
 39 42  1  0  0  0  0
 40 41  1  0  0  0  0
 42 43  2  0  0  0  0
 43 44  1  0  0  0  0
M  CHG  2   3  -1   4  -1
M  END
>  <CHROM.1>
96.60764115,7.42244052,-8.92942938,35.16278042,-14.77550662,3.06581306,-0.16055701
-0.02149444

>  <Name>
ligand

>  <RI>
0

>  <Rbt.Current_Directory>
/home/itssahil/PROJECTS/Mol_Feturizer/New_Systems/rnas/4QLM

>  <Rbt.Executable>
rbdock ($Id: //depot/dev/client3/rdock/2013.1/src/exe/rbdock.cxx#4 $)

>  <Rbt.Library>
libRbt.so (2013.1, Build901 2013/11/27)

>  <Rbt.Parameter_File>
/export/apps/rDock/src/rDock_2013.1_src/data/scripts/dock_solv.prm

>  <Rbt.Receptor>
prm/pocket_docking_7.prm

>  <SCORE>
-4.2881

>  <SCORE.INTER>
-3.42255

>  <SCORE.INTER.CONST>
1

>  <SCORE.INTER.POLAR>
0

>  <SCORE.INTER.ROT>
2

>  <SCORE.INTER.SOLV>
16.0972

>  <SCORE.INTER.VDW>
-12.5808

>  <SCORE.INTER.norm>
-0.0777851

>  <SCORE.INTRA>
-0.865557

>  <SCORE.INTRA.DIHEDRAL>
-0.0289452

>  <SCORE.INTRA.DIHEDRAL.0>
2.32994

>  <SCORE.INTRA.POLAR>
0

>  <SCORE.INTRA.POLAR.0>
0

>  <SCORE.INTRA.REPUL>
0

>  <SCORE.INTRA.REPUL.0>
0

>  <SCORE.INTRA.SOLV>
1.08646

>  <SCORE.INTRA.SOLV.lig_0>
-117.703

>  <SCORE.INTRA.VDW>
-1.39431

>  <SCORE.INTRA.VDW.0>
-1.59997

>  <SCORE.INTRA.norm>
-0.0196718

>  <SCORE.RESTR>
0

>  <SCORE.RESTR.CAVITY>
0

>  <SCORE.RESTR.norm>
0

>  <SCORE.SYSTEM>
0

>  <SCORE.SYSTEM.CONST>
0

>  <SCORE.SYSTEM.DIHEDRAL>
0

>  <SCORE.SYSTEM.SOLV>
0

>  <SCORE.SYSTEM.norm>
0

>  <SCORE.heavy>
44

>  <SCORE.norm>
-0.0974569

>  <RMSD>
6.845

$$$$
ligand
 OpenBabel11021811513D
libRbt.so/2013.1/901 2013/11/27
 44 50  0  0  0  0  0  0  0  0999 V2000
   -2.9304   35.4497  -13.5062 P   0  0  2  0  0  0  0  0  0  0  0  0
   -5.5300   37.3029  -17.8667 P   0  0  1  0  0  0  0  0  0  0  0  0
   -1.7899   34.4350  -13.5017 O   0  5  0  0  0  0  0  0  0  0  0  0
   -6.9873   37.3131  -17.4739 O   0  5  0  0  0  0  0  0  0  0  0  0
   -3.5991   35.3348  -12.1575 O   0  0  0  0  0  0  0  0  0  0  0  0
   -5.3995   38.1150  -19.1753 O   0  0  0  0  0  0  0  0  0  0  0  0
   -3.1731   34.3862  -15.7978 C   0  0  0  0  0  0  0  0  0  0  0  0
   -3.2886   37.7962  -16.6830 C   0  0  0  0  0  0  0  0  0  0  0  0
   -3.8418   35.0289  -14.7042 O   0  0  0  0  0  0  0  0  0  0  0  0
   -4.7355   37.8422  -16.5315 O   0  0  0  0  0  0  0  0  0  0  0  0
   -4.1821   33.9889  -16.8700 C   0  0  1  0  0  0  0  0  0  0  0  0
   -2.6892   38.4683  -15.3905 C   0  0  1  0  0  0  0  0  0  0  0  0
   -4.6869   32.8394  -16.5439 O   0  0  0  0  0  0  0  0  0  0  0  0
   -3.2908   39.5822  -15.2845 O   0  0  0  0  0  0  0  0  0  0  0  0
   -5.3399   34.9534  -16.9858 C   0  0  1  0  0  0  0  0  0  0  0  0
   -3.1405   37.7205  -14.1199 C   0  0  1  0  0  0  0  0  0  0  0  0
   -5.0734   35.7547  -18.0513 O   0  0  0  0  0  0  0  0  0  0  0  0
   -2.1739   36.9190  -13.6562 O   0  0  0  0  0  0  0  0  0  0  0  0
   -6.5643   34.0236  -17.2964 C   0  0  1  0  0  0  0  0  0  0  0  0
   -3.5236   38.7954  -13.0773 C   0  0  1  0  0  0  0  0  0  0  0  0
   -6.8877   34.0723  -18.7477 O   0  0  0  0  0  0  0  0  0  0  0  0
   -2.4328   38.9541  -12.0623 O   0  0  0  0  0  0  0  0  0  0  0  0
   -6.2231   32.8281  -16.9357 C   0  0  2  0  0  0  0  0  0  0  0  0
   -3.6460   39.8856  -13.7537 C   0  0  2  0  0  0  0  0  0  0  0  0
  -10.2722   30.1776  -14.6117 N   0  0  0  0  0  0  0  0  0  0  0  0
   -9.9790   30.1724  -15.9425 C   0  0  0  0  0  0  0  0  0  0  0  0
   -8.9171   30.8850  -16.4386 N   0  0  0  0  0  0  0  0  0  0  0  0
   -8.1454   31.6132  -15.5758 C   0  0  0  0  0  0  0  0  0  0  0  0
   -8.4257   31.6338  -14.2653 C   0  0  0  0  0  0  0  0  0  0  0  0
   -9.5008   30.8993  -13.7681 C   0  0  0  0  0  0  0  0  0  0  0  0
   -9.8998   30.8363  -12.4183 N   0  0  0  0  0  0  0  0  0  0  0  0
   -7.5101   32.4188  -13.6588 N   0  0  0  0  0  0  0  0  0  0  0  0
   -6.6621   32.8903  -14.6168 C   0  0  0  0  0  0  0  0  0  0  0  0
   -7.0412   32.3813  -15.7963 N   0  0  0  0  0  0  0  0  0  0  0  0
   -6.8652   43.5621  -11.9537 N   0  0  0  0  0  0  0  0  0  0  0  0
   -5.5373   43.4429  -11.6913 C   0  0  0  0  0  0  0  0  0  0  0  0
   -4.8312   42.4096  -12.2399 N   0  0  0  0  0  0  0  0  0  0  0  0
   -5.4518   41.5086  -13.0483 C   0  0  0  0  0  0  0  0  0  0  0  0
   -6.7682   41.6233  -13.3168 C   0  0  0  0  0  0  0  0  0  0  0  0
   -7.4806   42.6765  -12.7507 C   0  0  0  0  0  0  0  0  0  0  0  0
   -8.8828   42.9787  -12.8837 N   0  0  0  0  0  0  0  0  0  0  0  0
   -7.1055   40.5979  -14.1352 N   0  0  0  0  0  0  0  0  0  0  0  0
   -5.9868   39.8550  -14.3729 C   0  0  0  0  0  0  0  0  0  0  0  0
   -4.9692   40.4280  -13.6989 N   0  0  0  0  0  0  0  0  0  0  0  0
  1  3  1  1  0  0  0
  1  5  2  0  0  0  0
  1  9  1  0  0  0  0
  1 18  1  0  0  0  0
  2  4  1  1  0  0  0
  2  6  2  0  0  0  0
  2 10  1  0  0  0  0
  2 17  1  0  0  0  0
  7  9  1  0  0  0  0
  8 10  1  0  0  0  0
 11  7  1  1  0  0  0
 11 13  1  0  0  0  0
 11 15  1  0  0  0  0
 12  8  1  6  0  0  0
 12 14  1  0  0  0  0
 12 16  1  0  0  0  0
 13 23  1  0  0  0  0
 14 24  1  0  0  0  0
 15 17  1  6  0  0  0
 15 19  1  0  0  0  0
 16 18  1  1  0  0  0
 16 20  1  0  0  0  0
 19 21  1  6  0  0  0
 19 23  1  0  0  0  0
 20 22  1  1  0  0  0
 20 24  1  0  0  0  0
 23 34  1  1  0  0  0
 24 44  1  6  0  0  0
 25 26  2  0  0  0  0
 25 30  1  0  0  0  0
 26 27  1  0  0  0  0
 27 28  2  0  0  0  0
 28 29  1  0  0  0  0
 28 34  1  0  0  0  0
 29 30  2  0  0  0  0
 29 32  1  0  0  0  0
 30 31  1  0  0  0  0
 32 33  2  0  0  0  0
 33 34  1  0  0  0  0
 35 36  2  0  0  0  0
 35 40  1  0  0  0  0
 36 37  1  0  0  0  0
 37 38  2  0  0  0  0
 38 39  1  0  0  0  0
 38 44  1  0  0  0  0
 39 40  2  0  0  0  0
 39 42  1  0  0  0  0
 40 41  1  0  0  0  0
 42 43  2  0  0  0  0
 43 44  1  0  0  0  0
M  CHG  2   3  -1   4  -1
M  END
>  <CHROM.1>
-141.53698519,-132.59283567,-5.54429838,36.45944354,-14.94259072,-1.30443268
-0.27709713,-2.83163739

>  <Name>
ligand

>  <RI>
0

>  <Rbt.Current_Directory>
/home/itssahil/PROJECTS/Mol_Feturizer/New_Systems/rnas/4QLM

>  <Rbt.Executable>
rbdock ($Id: //depot/dev/client3/rdock/2013.1/src/exe/rbdock.cxx#4 $)

>  <Rbt.Library>
libRbt.so (2013.1, Build901 2013/11/27)

>  <Rbt.Parameter_File>
/export/apps/rDock/src/rDock_2013.1_src/data/scripts/dock_solv.prm

>  <Rbt.Receptor>
prm/pocket_docking_8.prm

>  <SCORE>
-13.4074

>  <SCORE.INTER>
-13.4078

>  <SCORE.INTER.CONST>
1

>  <SCORE.INTER.POLAR>
0

>  <SCORE.INTER.ROT>
2

>  <SCORE.INTER.SOLV>
25.0442

>  <SCORE.INTER.VDW>
-22.2199

>  <SCORE.INTER.norm>
-0.304722

>  <SCORE.INTRA>
0.000375045

>  <SCORE.INTRA.DIHEDRAL>
-0.0134749

>  <SCORE.INTRA.DIHEDRAL.0>
2.32994

>  <SCORE.INTRA.POLAR>
0

>  <SCORE.INTRA.POLAR.0>
0

>  <SCORE.INTRA.REPUL>
0

>  <SCORE.INTRA.REPUL.0>
0

>  <SCORE.INTRA.SOLV>
-0.000199909

>  <SCORE.INTRA.SOLV.lig_0>
-117.703

>  <SCORE.INTRA.VDW>
0.00721247

>  <SCORE.INTRA.VDW.0>
-1.59997

>  <SCORE.INTRA.norm>
8.52374e-06

>  <SCORE.RESTR>
0

>  <SCORE.RESTR.CAVITY>
0

>  <SCORE.RESTR.norm>
0

>  <SCORE.SYSTEM>
0

>  <SCORE.SYSTEM.CONST>
0

>  <SCORE.SYSTEM.DIHEDRAL>
0

>  <SCORE.SYSTEM.SOLV>
0

>  <SCORE.SYSTEM.norm>
0

>  <SCORE.heavy>
44

>  <SCORE.norm>
-0.304713

>  <RMSD>
6.846

$$$$
ligand
 OpenBabel11021811513D
libRbt.so/2013.1/901 2013/11/27
 44 50  0  0  0  0  0  0  0  0999 V2000
   -4.9570   32.9846  -13.7292 P   0  0  2  0  0  0  0  0  0  0  0  0
   -3.9117   37.0195  -17.1690 P   0  0  1  0  0  0  0  0  0  0  0  0
   -5.1263   31.5119  -14.0938 O   0  5  0  0  0  0  0  0  0  0  0  0
   -4.8114   38.1480  -16.7276 O   0  5  0  0  0  0  0  0  0  0  0  0
   -5.7401   33.1938  -12.4554 O   0  0  0  0  0  0  0  0  0  0  0  0
   -2.8851   37.6098  -18.1623 O   0  0  0  0  0  0  0  0  0  0  0  0
   -5.3981   33.1154  -16.2251 C   0  0  0  0  0  0  0  0  0  0  0  0
   -2.5444   35.1715  -15.9927 C   0  0  0  0  0  0  0  0  0  0  0  0
   -5.5191   33.7725  -14.9563 O   0  0  0  0  0  0  0  0  0  0  0  0
   -3.3532   36.3609  -15.7693 O   0  0  0  0  0  0  0  0  0  0  0  0
   -6.0259   33.9698  -17.3212 C   0  0  1  0  0  0  0  0  0  0  0  0
   -1.9795   34.7525  -14.5831 C   0  0  1  0  0  0  0  0  0  0  0  0
   -7.2986   33.7209  -17.3487 O   0  0  0  0  0  0  0  0  0  0  0  0
   -1.4558   35.8075  -14.1069 O   0  0  0  0  0  0  0  0  0  0  0  0
   -5.8799   35.4542  -17.0771 C   0  0  1  0  0  0  0  0  0  0  0  0
   -3.1254   34.4690  -13.5914 C   0  0  1  0  0  0  0  0  0  0  0  0
   -4.8431   35.8751  -17.8492 O   0  0  0  0  0  0  0  0  0  0  0  0
   -3.3308   33.1543  -13.4458 O   0  0  0  0  0  0  0  0  0  0  0  0
   -7.2307   36.0493  -17.6075 C   0  0  1  0  0  0  0  0  0  0  0  0
   -2.7312   35.1254  -12.2487 C   0  0  1  0  0  0  0  0  0  0  0  0
   -7.0311   36.6484  -18.9546 O   0  0  0  0  0  0  0  0  0  0  0  0
   -2.2338   34.0912  -11.2852 O   0  0  0  0  0  0  0  0  0  0  0  0
   -8.0748   35.0690  -17.6547 C   0  0  2  0  0  0  0  0  0  0  0  0
   -1.7741   35.9364  -12.5437 C   0  0  2  0  0  0  0  0  0  0  0  0
  -10.2544   37.0764  -13.1780 N   0  0  0  0  0  0  0  0  0  0  0  0
   -8.9913   37.3227  -13.6265 C   0  0  0  0  0  0  0  0  0  0  0  0
   -8.5278   36.7598  -14.7883 N   0  0  0  0  0  0  0  0  0  0  0  0
   -9.3535   35.9357  -15.5019 C   0  0  0  0  0  0  0  0  0  0  0  0
  -10.5958   35.6782  -15.0698 C   0  0  0  0  0  0  0  0  0  0  0  0
  -11.0622   36.2618  -13.8931 C   0  0  0  0  0  0  0  0  0  0  0  0
  -12.3412   36.0740  -13.3327 N   0  0  0  0  0  0  0  0  0  0  0  0
  -11.1801   34.8491  -15.9605 N   0  0  0  0  0  0  0  0  0  0  0  0
  -10.2762   34.5911  -16.9482 C   0  0  0  0  0  0  0  0  0  0  0  0
   -9.1560   35.2734  -16.6768 N   0  0  0  0  0  0  0  0  0  0  0  0
   -4.9371   40.0008  -13.3156 N   0  0  0  0  0  0  0  0  0  0  0  0
   -5.0436   38.7680  -13.8769 C   0  0  0  0  0  0  0  0  0  0  0  0
   -4.1210   37.8066  -13.5739 N   0  0  0  0  0  0  0  0  0  0  0  0
   -3.1050   38.0796  -12.7114 C   0  0  0  0  0  0  0  0  0  0  0  0
   -2.9957   39.2993  -12.1472 C   0  0  0  0  0  0  0  0  0  0  0  0
   -3.9375   40.2738  -12.4644 C   0  0  0  0  0  0  0  0  0  0  0  0
   -4.0037   41.6356  -11.9995 N   0  0  0  0  0  0  0  0  0  0  0  0
   -1.9027   39.2790  -11.3472 N   0  0  0  0  0  0  0  0  0  0  0  0
   -1.3437   38.0371  -11.4188 C   0  0  0  0  0  0  0  0  0  0  0  0
   -2.0962   37.3021  -12.2624 N   0  0  0  0  0  0  0  0  0  0  0  0
  1  3  1  6  0  0  0
  1  5  2  0  0  0  0
  1  9  1  0  0  0  0
  1 18  1  0  0  0  0
  2  4  1  1  0  0  0
  2  6  2  0  0  0  0
  2 10  1  0  0  0  0
  2 17  1  0  0  0  0
  7  9  1  0  0  0  0
  8 10  1  0  0  0  0
 11  7  1  1  0  0  0
 11 13  1  0  0  0  0
 11 15  1  0  0  0  0
 12  8  1  6  0  0  0
 12 14  1  0  0  0  0
 12 16  1  0  0  0  0
 13 23  1  0  0  0  0
 14 24  1  0  0  0  0
 15 17  1  6  0  0  0
 15 19  1  0  0  0  0
 16 18  1  1  0  0  0
 16 20  1  0  0  0  0
 19 21  1  6  0  0  0
 19 23  1  0  0  0  0
 20 22  1  1  0  0  0
 20 24  1  0  0  0  0
 23 34  1  1  0  0  0
 24 44  1  6  0  0  0
 25 26  2  0  0  0  0
 25 30  1  0  0  0  0
 26 27  1  0  0  0  0
 27 28  2  0  0  0  0
 28 29  1  0  0  0  0
 28 34  1  0  0  0  0
 29 30  2  0  0  0  0
 29 32  1  0  0  0  0
 30 31  1  0  0  0  0
 32 33  2  0  0  0  0
 33 34  1  0  0  0  0
 35 36  2  0  0  0  0
 35 40  1  0  0  0  0
 36 37  1  0  0  0  0
 37 38  2  0  0  0  0
 38 39  1  0  0  0  0
 38 44  1  0  0  0  0
 39 40  2  0  0  0  0
 39 42  1  0  0  0  0
 40 41  1  0  0  0  0
 42 43  2  0  0  0  0
 43 44  1  0  0  0  0
M  CHG  2   3  -1   4  -1
M  END
>  <CHROM.1>
95.23464633,62.32405244,-5.39116762,35.99231773,-14.74838548,-0.40382291
0.25256091,-2.66724079

>  <Name>
ligand

>  <RI>
0

>  <Rbt.Current_Directory>
/home/itssahil/PROJECTS/Mol_Feturizer/New_Systems/rnas/4QLM

>  <Rbt.Executable>
rbdock ($Id: //depot/dev/client3/rdock/2013.1/src/exe/rbdock.cxx#4 $)

>  <Rbt.Library>
libRbt.so (2013.1, Build901 2013/11/27)

>  <Rbt.Parameter_File>
/export/apps/rDock/src/rDock_2013.1_src/data/scripts/dock_solv.prm

>  <Rbt.Receptor>
prm/pocket_docking_6.prm

>  <SCORE>
-6.40162

>  <SCORE.INTER>
-5.01226

>  <SCORE.INTER.CONST>
1

>  <SCORE.INTER.POLAR>
0

>  <SCORE.INTER.ROT>
2

>  <SCORE.INTER.SOLV>
21.5644

>  <SCORE.INTER.VDW>
-15.463

>  <SCORE.INTER.norm>
-0.113915

>  <SCORE.INTRA>
-1.42542

>  <SCORE.INTRA.DIHEDRAL>
-0.0266083

>  <SCORE.INTRA.DIHEDRAL.0>
2.32994

>  <SCORE.INTRA.POLAR>
0

>  <SCORE.INTRA.POLAR.0>
0

>  <SCORE.INTRA.REPUL>
0

>  <SCORE.INTRA.REPUL.0>
0

>  <SCORE.INTRA.SOLV>
0.902188

>  <SCORE.INTRA.SOLV.lig_0>
-117.703

>  <SCORE.INTRA.VDW>
-1.86321

>  <SCORE.INTRA.VDW.0>
-1.59997

>  <SCORE.INTRA.norm>
-0.0323958

>  <SCORE.RESTR>
0.0360618

>  <SCORE.RESTR.CAVITY>
0.0360618

>  <SCORE.RESTR.norm>
0.000819586

>  <SCORE.SYSTEM>
0

>  <SCORE.SYSTEM.CONST>
0

>  <SCORE.SYSTEM.DIHEDRAL>
0

>  <SCORE.SYSTEM.SOLV>
0

>  <SCORE.SYSTEM.norm>
0

>  <SCORE.heavy>
44

>  <SCORE.norm>
-0.145491

>  <RMSD>
6.849

$$$$
ligand
 OpenBabel11021811513D
libRbt.so/2013.1/901 2013/11/27
 44 50  0  0  0  0  0  0  0  0999 V2000
   -5.0187   32.9606  -13.7123 P   0  0  2  0  0  0  0  0  0  0  0  0
   -3.9809   36.9859  -17.1656 P   0  0  1  0  0  0  0  0  0  0  0  0
   -5.1999   31.4885  -14.0738 O   0  5  0  0  0  0  0  0  0  0  0  0
   -4.8700   38.1202  -16.7172 O   0  5  0  0  0  0  0  0  0  0  0  0
   -5.7890   33.1756  -12.4317 O   0  0  0  0  0  0  0  0  0  0  0  0
   -2.9599   37.5693  -18.1687 O   0  0  0  0  0  0  0  0  0  0  0  0
   -5.4816   33.0916  -16.2043 C   0  0  0  0  0  0  0  0  0  0  0  0
   -2.6139   35.1311  -15.9997 C   0  0  0  0  0  0  0  0  0  0  0  0
   -5.5873   33.7506  -14.9351 O   0  0  0  0  0  0  0  0  0  0  0  0
   -3.4136   36.3255  -15.7703 O   0  0  0  0  0  0  0  0  0  0  0  0
   -6.1142   33.9486  -17.2955 C   0  0  1  0  0  0  0  0  0  0  0  0
   -2.0387   34.7102  -14.5949 C   0  0  1  0  0  0  0  0  0  0  0  0
   -7.3885   33.7071  -17.3113 O   0  0  0  0  0  0  0  0  0  0  0  0
   -1.5045   35.7625  -14.1246 O   0  0  0  0  0  0  0  0  0  0  0  0
   -5.9573   35.4323  -17.0542 C   0  0  1  0  0  0  0  0  0  0  0  0
   -3.1773   34.4344  -13.5926 C   0  0  1  0  0  0  0  0  0  0  0  0
   -4.9251   35.8464  -17.8361 O   0  0  0  0  0  0  0  0  0  0  0  0
   -3.3890   33.1211  -13.4438 O   0  0  0  0  0  0  0  0  0  0  0  0
   -7.3093   36.0349  -17.5731 C   0  0  1  0  0  0  0  0  0  0  0  0
   -2.7671   35.0897  -12.2541 C   0  0  1  0  0  0  0  0  0  0  0  0
   -7.1184   36.6314  -18.9226 O   0  0  0  0  0  0  0  0  0  0  0  0
   -2.2671   34.0536  -11.2942 O   0  0  0  0  0  0  0  0  0  0  0  0
   -8.1595   35.0595  -17.6117 C   0  0  2  0  0  0  0  0  0  0  0  0
   -1.8079   35.8949  -12.5587 C   0  0  2  0  0  0  0  0  0  0  0  0
  -10.3690   37.2697  -13.2465 N   0  0  0  0  0  0  0  0  0  0  0  0
   -9.1345   37.5594  -13.7457 C   0  0  0  0  0  0  0  0  0  0  0  0
   -8.6602   36.9376  -14.8726 N   0  0  0  0  0  0  0  0  0  0  0  0
   -9.4457   36.0096  -15.4989 C   0  0  0  0  0  0  0  0  0  0  0  0
  -10.6591   35.7089  -15.0157 C   0  0  0  0  0  0  0  0  0  0  0  0
  -11.1373   36.3522  -13.8755 C   0  0  0  0  0  0  0  0  0  0  0  0
  -12.3891   36.1285  -13.2689 N   0  0  0  0  0  0  0  0  0  0  0  0
  -11.2072   34.7773  -15.8244 N   0  0  0  0  0  0  0  0  0  0  0  0
  -10.3097   34.5004  -16.8129 C   0  0  0  0  0  0  0  0  0  0  0  0
   -9.2306   35.2712  -16.6242 N   0  0  0  0  0  0  0  0  0  0  0  0
   -4.9564   39.9757  -13.3027 N   0  0  0  0  0  0  0  0  0  0  0  0
   -5.0757   38.7427  -13.8610 C   0  0  0  0  0  0  0  0  0  0  0  0
   -4.1552   37.7767  -13.5665 N   0  0  0  0  0  0  0  0  0  0  0  0
   -3.1287   38.0451  -12.7152 C   0  0  0  0  0  0  0  0  0  0  0  0
   -3.0066   39.2650  -12.1539 C   0  0  0  0  0  0  0  0  0  0  0  0
   -3.9463   40.2443  -12.4624 C   0  0  0  0  0  0  0  0  0  0  0  0
   -4.0000   41.6071  -11.9988 N   0  0  0  0  0  0  0  0  0  0  0  0
   -1.9053   39.2397  -11.3655 N   0  0  0  0  0  0  0  0  0  0  0  0
   -1.3540   37.9946  -11.4413 C   0  0  0  0  0  0  0  0  0  0  0  0
   -2.1195   37.2627  -12.2758 N   0  0  0  0  0  0  0  0  0  0  0  0
  1  3  1  6  0  0  0
  1  5  2  0  0  0  0
  1  9  1  0  0  0  0
  1 18  1  0  0  0  0
  2  4  1  1  0  0  0
  2  6  2  0  0  0  0
  2 10  1  0  0  0  0
  2 17  1  0  0  0  0
  7  9  1  0  0  0  0
  8 10  1  0  0  0  0
 11  7  1  1  0  0  0
 11 13  1  0  0  0  0
 11 15  1  0  0  0  0
 12  8  1  6  0  0  0
 12 14  1  0  0  0  0
 12 16  1  0  0  0  0
 13 23  1  0  0  0  0
 14 24  1  0  0  0  0
 15 17  1  6  0  0  0
 15 19  1  0  0  0  0
 16 18  1  1  0  0  0
 16 20  1  0  0  0  0
 19 21  1  6  0  0  0
 19 23  1  0  0  0  0
 20 22  1  1  0  0  0
 20 24  1  0  0  0  0
 23 34  1  1  0  0  0
 24 44  1  6  0  0  0
 25 26  2  0  0  0  0
 25 30  1  0  0  0  0
 26 27  1  0  0  0  0
 27 28  2  0  0  0  0
 28 29  1  0  0  0  0
 28 34  1  0  0  0  0
 29 30  2  0  0  0  0
 29 32  1  0  0  0  0
 30 31  1  0  0  0  0
 32 33  2  0  0  0  0
 33 34  1  0  0  0  0
 35 36  2  0  0  0  0
 35 40  1  0  0  0  0
 36 37  1  0  0  0  0
 37 38  2  0  0  0  0
 38 39  1  0  0  0  0
 38 44  1  0  0  0  0
 39 40  2  0  0  0  0
 39 42  1  0  0  0  0
 40 41  1  0  0  0  0
 42 43  2  0  0  0  0
 43 44  1  0  0  0  0
M  CHG  2   3  -1   4  -1
M  END
>  <CHROM.1>
101.24557593,62.41709131,-5.44983666,35.98258085,-14.73879995,-0.38130990
0.25734040,-2.68609556

>  <Name>
ligand

>  <RI>
0

>  <Rbt.Current_Directory>
/home/itssahil/PROJECTS/Mol_Feturizer/New_Systems/rnas/4QLM

>  <Rbt.Executable>
rbdock ($Id: //depot/dev/client3/rdock/2013.1/src/exe/rbdock.cxx#4 $)

>  <Rbt.Library>
libRbt.so (2013.1, Build901 2013/11/27)

>  <Rbt.Parameter_File>
/export/apps/rDock/src/rDock_2013.1_src/data/scripts/dock_solv.prm

>  <Rbt.Receptor>
prm/pocket_docking_6.prm

>  <SCORE>
-6.3232

>  <SCORE.INTER>
-4.97302

>  <SCORE.INTER.CONST>
1

>  <SCORE.INTER.POLAR>
0

>  <SCORE.INTER.ROT>
2

>  <SCORE.INTER.SOLV>
21.2323

>  <SCORE.INTER.VDW>
-15.3261

>  <SCORE.INTER.norm>
-0.113023

>  <SCORE.INTRA>
-1.35832

>  <SCORE.INTRA.DIHEDRAL>
-0.0102927

>  <SCORE.INTRA.DIHEDRAL.0>
2.32994

>  <SCORE.INTRA.POLAR>
0

>  <SCORE.INTRA.POLAR.0>
0

>  <SCORE.INTRA.REPUL>
0

>  <SCORE.INTRA.REPUL.0>
0

>  <SCORE.INTRA.SOLV>
0.898747

>  <SCORE.INTRA.SOLV.lig_0>
-117.703

>  <SCORE.INTRA.VDW>
-1.80255

>  <SCORE.INTRA.VDW.0>
-1.59997

>  <SCORE.INTRA.norm>
-0.0308709

>  <SCORE.RESTR>
0.00814195

>  <SCORE.RESTR.CAVITY>
0.00814195

>  <SCORE.RESTR.norm>
0.000185044

>  <SCORE.SYSTEM>
0

>  <SCORE.SYSTEM.CONST>
0

>  <SCORE.SYSTEM.DIHEDRAL>
0

>  <SCORE.SYSTEM.SOLV>
0

>  <SCORE.SYSTEM.norm>
0

>  <SCORE.heavy>
44

>  <SCORE.norm>
-0.143709

>  <RMSD>
6.851

$$$$
ligand
 OpenBabel11021811513D
libRbt.so/2013.1/901 2013/11/27
 44 50  0  0  0  0  0  0  0  0999 V2000
   -2.8970   35.9061  -16.4151 P   0  0  2  0  0  0  0  0  0  0  0  0
   -5.9371   33.7846  -12.4829 P   0  0  1  0  0  0  0  0  0  0  0  0
   -1.4591   35.5177  -16.7502 O   0  5  0  0  0  0  0  0  0  0  0  0
   -6.6328   34.9656  -11.8509 O   0  5  0  0  0  0  0  0  0  0  0  0
   -3.0670   37.3305  -16.8859 O   0  0  0  0  0  0  0  0  0  0  0  0
   -6.6351   32.5068  -11.9644 O   0  0  0  0  0  0  0  0  0  0  0  0
   -2.1697   34.7252  -14.2896 C   0  0  0  0  0  0  0  0  0  0  0  0
   -5.2449   33.1052  -14.8761 C   0  0  0  0  0  0  0  0  0  0  0  0
   -3.0129   35.7316  -14.8663 O   0  0  0  0  0  0  0  0  0  0  0  0
   -5.9760   34.0942  -14.0977 O   0  0  0  0  0  0  0  0  0  0  0  0
   -2.3483   34.6947  -12.7755 C   0  0  1  0  0  0  0  0  0  0  0  0
   -5.4956   33.4634  -16.3895 C   0  0  1  0  0  0  0  0  0  0  0  0
   -1.5725   35.5966  -12.2587 O   0  0  0  0  0  0  0  0  0  0  0  0
   -6.7567   33.5683  -16.5027 O   0  0  0  0  0  0  0  0  0  0  0  0
   -3.7548   35.0287  -12.3343 C   0  0  1  0  0  0  0  0  0  0  0  0
   -5.0098   34.8920  -16.7062 C   0  0  1  0  0  0  0  0  0  0  0  0
   -4.3686   33.8461  -12.0639 O   0  0  0  0  0  0  0  0  0  0  0  0
   -3.8249   34.8777  -17.3289 O   0  0  0  0  0  0  0  0  0  0  0  0
   -3.5420   35.8465  -11.0129 C   0  0  1  0  0  0  0  0  0  0  0  0
   -6.0958   35.5519  -17.5861 C   0  0  1  0  0  0  0  0  0  0  0  0
   -3.7955   34.9808   -9.8298 O   0  0  0  0  0  0  0  0  0  0  0  0
   -5.6710   35.5640  -19.0230 O   0  0  0  0  0  0  0  0  0  0  0  0
   -2.3172   36.2652  -11.0290 C   0  0  2  0  0  0  0  0  0  0  0  0
   -7.1351   34.8021  -17.4494 C   0  0  2  0  0  0  0  0  0  0  0  0
   -2.2542   40.9337  -13.6790 N   0  0  0  0  0  0  0  0  0  0  0  0
   -2.3422   39.6983  -14.2475 C   0  0  0  0  0  0  0  0  0  0  0  0
   -2.3520   38.5620  -13.4793 N   0  0  0  0  0  0  0  0  0  0  0  0
   -2.2689   38.6797  -12.1194 C   0  0  0  0  0  0  0  0  0  0  0  0
   -2.1745   39.8875  -11.5461 C   0  0  0  0  0  0  0  0  0  0  0  0
   -2.1748   41.0376  -12.3335 C   0  0  0  0  0  0  0  0  0  0  0  0
   -2.0815   42.3603  -11.8574 N   0  0  0  0  0  0  0  0  0  0  0  0
   -2.1125   39.7074  -10.2097 N   0  0  0  0  0  0  0  0  0  0  0  0
   -2.1626   38.3670   -9.9649 C   0  0  0  0  0  0  0  0  0  0  0  0
   -2.2765   37.7326  -11.1391 N   0  0  0  0  0  0  0  0  0  0  0  0
  -10.4189   35.3387  -13.4433 N   0  0  0  0  0  0  0  0  0  0  0  0
   -9.4185   34.4266  -13.5597 C   0  0  0  0  0  0  0  0  0  0  0  0
   -8.6454   34.4130  -14.6863 N   0  0  0  0  0  0  0  0  0  0  0  0
   -8.8716   35.3104  -15.6834 C   0  0  0  0  0  0  0  0  0  0  0  0
   -9.8596   36.2213  -15.5728 C   0  0  0  0  0  0  0  0  0  0  0  0
  -10.6448   36.2255  -14.4236 C   0  0  0  0  0  0  0  0  0  0  0  0
  -11.7544   37.0868  -14.1042 N   0  0  0  0  0  0  0  0  0  0  0  0
   -9.8498   36.9686  -16.7026 N   0  0  0  0  0  0  0  0  0  0  0  0
   -8.8458   36.5149  -17.5064 C   0  0  0  0  0  0  0  0  0  0  0  0
   -8.2451   35.4917  -16.8659 N   0  0  0  0  0  0  0  0  0  0  0  0
  1  3  1  6  0  0  0
  1  5  2  0  0  0  0
  1  9  1  0  0  0  0
  1 18  1  0  0  0  0
  2  4  1  1  0  0  0
  2  6  2  0  0  0  0
  2 10  1  0  0  0  0
  2 17  1  0  0  0  0
  7  9  1  0  0  0  0
  8 10  1  0  0  0  0
 11  7  1  6  0  0  0
 11 13  1  0  0  0  0
 11 15  1  0  0  0  0
 12  8  1  1  0  0  0
 12 14  1  0  0  0  0
 12 16  1  0  0  0  0
 13 23  1  0  0  0  0
 14 24  1  0  0  0  0
 15 17  1  1  0  0  0
 15 19  1  0  0  0  0
 16 18  1  6  0  0  0
 16 20  1  0  0  0  0
 19 21  1  1  0  0  0
 19 23  1  0  0  0  0
 20 22  1  6  0  0  0
 20 24  1  0  0  0  0
 23 34  1  6  0  0  0
 24 44  1  1  0  0  0
 25 26  2  0  0  0  0
 25 30  1  0  0  0  0
 26 27  1  0  0  0  0
 27 28  2  0  0  0  0
 28 29  1  0  0  0  0
 28 34  1  0  0  0  0
 29 30  2  0  0  0  0
 29 32  1  0  0  0  0
 30 31  1  0  0  0  0
 32 33  2  0  0  0  0
 33 34  1  0  0  0  0
 35 36  2  0  0  0  0
 35 40  1  0  0  0  0
 36 37  1  0  0  0  0
 37 38  2  0  0  0  0
 38 39  1  0  0  0  0
 38 44  1  0  0  0  0
 39 40  2  0  0  0  0
 39 42  1  0  0  0  0
 40 41  1  0  0  0  0
 42 43  2  0  0  0  0
 43 44  1  0  0  0  0
M  CHG  2   3  -1   4  -1
M  END
>  <CHROM.1>
32.08145212,5.68023467,-5.00180573,36.02361243,-14.12907940,-0.51103490,-0.44173941
-1.66806153

>  <Name>
ligand

>  <RI>
0

>  <Rbt.Current_Directory>
/home/itssahil/PROJECTS/Mol_Feturizer/New_Systems/rnas/4QLM

>  <Rbt.Executable>
rbdock ($Id: //depot/dev/client3/rdock/2013.1/src/exe/rbdock.cxx#4 $)

>  <Rbt.Library>
libRbt.so (2013.1, Build901 2013/11/27)

>  <Rbt.Parameter_File>
/export/apps/rDock/src/rDock_2013.1_src/data/scripts/dock_solv.prm

>  <Rbt.Receptor>
prm/pocket_docking_8.prm

>  <SCORE>
-10.0296

>  <SCORE.INTER>
-8.74135

>  <SCORE.INTER.CONST>
1

>  <SCORE.INTER.POLAR>
0

>  <SCORE.INTER.ROT>
2

>  <SCORE.INTER.SOLV>
17.7691

>  <SCORE.INTER.VDW>
-16.6839

>  <SCORE.INTER.norm>
-0.198667

>  <SCORE.INTRA>
-1.2883

>  <SCORE.INTRA.DIHEDRAL>
0.169609

>  <SCORE.INTRA.DIHEDRAL.0>
2.32994

>  <SCORE.INTRA.POLAR>
0

>  <SCORE.INTRA.POLAR.0>
0

>  <SCORE.INTRA.REPUL>
0

>  <SCORE.INTRA.REPUL.0>
0

>  <SCORE.INTRA.SOLV>
1.35292

>  <SCORE.INTRA.SOLV.lig_0>
-117.703

>  <SCORE.INTRA.VDW>
-2.04956

>  <SCORE.INTRA.VDW.0>
-1.59997

>  <SCORE.INTRA.norm>
-0.0292796

>  <SCORE.RESTR>
0

>  <SCORE.RESTR.CAVITY>
0

>  <SCORE.RESTR.norm>
0

>  <SCORE.SYSTEM>
0

>  <SCORE.SYSTEM.CONST>
0

>  <SCORE.SYSTEM.DIHEDRAL>
0

>  <SCORE.SYSTEM.SOLV>
0

>  <SCORE.SYSTEM.norm>
0

>  <SCORE.heavy>
44

>  <SCORE.norm>
-0.227947

>  <RMSD>
6.851

$$$$
ligand
 OpenBabel11021811513D
libRbt.so/2013.1/901 2013/11/27
 44 50  0  0  0  0  0  0  0  0999 V2000
   -2.9743   36.0191  -16.4447 P   0  0  2  0  0  0  0  0  0  0  0  0
   -6.2038   33.3677  -13.0175 P   0  0  1  0  0  0  0  0  0  0  0  0
   -1.4919   35.7417  -16.6820 O   0  5  0  0  0  0  0  0  0  0  0  0
   -7.0220   34.4433  -12.3453 O   0  5  0  0  0  0  0  0  0  0  0  0
   -3.1904   37.4715  -16.7957 O   0  0  0  0  0  0  0  0  0  0  0  0
   -6.8639   32.0104  -12.6845 O   0  0  0  0  0  0  0  0  0  0  0  0
   -2.3604   34.6773  -14.3797 C   0  0  0  0  0  0  0  0  0  0  0  0
   -5.2691   32.9616  -15.3902 C   0  0  0  0  0  0  0  0  0  0  0  0
   -3.2112   35.6890  -14.9356 O   0  0  0  0  0  0  0  0  0  0  0  0
   -6.1234   33.8303  -14.5937 O   0  0  0  0  0  0  0  0  0  0  0  0
   -2.6657   34.4905  -12.8974 C   0  0  1  0  0  0  0  0  0  0  0  0
   -5.4110   33.4515  -16.8806 C   0  0  1  0  0  0  0  0  0  0  0  0
   -1.9936   35.3776  -12.2313 O   0  0  0  0  0  0  0  0  0  0  0  0
   -6.6618   33.5001  -17.0979 O   0  0  0  0  0  0  0  0  0  0  0  0
   -4.1225   34.7051  -12.5570 C   0  0  1  0  0  0  0  0  0  0  0  0
   -4.9883   34.9277  -17.0189 C   0  0  1  0  0  0  0  0  0  0  0  0
   -4.6836   33.4711  -12.4537 O   0  0  0  0  0  0  0  0  0  0  0  0
   -3.7559   35.0367  -17.5299 O   0  0  0  0  0  0  0  0  0  0  0  0
   -4.0740   35.4007  -11.1521 C   0  0  1  0  0  0  0  0  0  0  0  0
   -6.0335   35.6117  -17.9294 C   0  0  1  0  0  0  0  0  0  0  0  0
   -4.3742   34.4120  -10.0817 O   0  0  0  0  0  0  0  0  0  0  0  0
   -5.4889   35.7858  -19.3144 O   0  0  0  0  0  0  0  0  0  0  0  0
   -2.8803   35.8832  -11.0181 C   0  0  2  0  0  0  0  0  0  0  0  0
   -7.0328   34.7982  -17.9574 C   0  0  2  0  0  0  0  0  0  0  0  0
   -4.3874   40.7337  -12.7569 N   0  0  0  0  0  0  0  0  0  0  0  0
   -4.7786   39.5417  -13.2892 C   0  0  0  0  0  0  0  0  0  0  0  0
   -4.3362   38.3521  -12.7689 N   0  0  0  0  0  0  0  0  0  0  0  0
   -3.4854   38.3716  -11.6984 C   0  0  0  0  0  0  0  0  0  0  0  0
   -3.0861   39.5361  -11.1685 C   0  0  0  0  0  0  0  0  0  0  0  0
   -3.5478   40.7402  -11.6973 C   0  0  0  0  0  0  0  0  0  0  0  0
   -3.2062   42.0264  -11.2348 N   0  0  0  0  0  0  0  0  0  0  0  0
   -2.2641   39.2597  -10.1340 N   0  0  0  0  0  0  0  0  0  0  0  0
   -2.1549   37.9041  -10.0364 C   0  0  0  0  0  0  0  0  0  0  0  0
   -2.9203   37.3545  -10.9883 N   0  0  0  0  0  0  0  0  0  0  0  0
  -11.9097   34.1056  -16.2676 N   0  0  0  0  0  0  0  0  0  0  0  0
  -11.0738   33.1519  -16.7554 C   0  0  0  0  0  0  0  0  0  0  0  0
   -9.8184   33.5013  -17.1668 N   0  0  0  0  0  0  0  0  0  0  0  0
   -9.4054   34.7947  -17.0837 C   0  0  0  0  0  0  0  0  0  0  0  0
  -10.2279   35.7457  -16.5964 C   0  0  0  0  0  0  0  0  0  0  0  0
  -11.5062   35.3817  -16.1833 C   0  0  0  0  0  0  0  0  0  0  0  0
  -12.5470   36.2254  -15.6542 N   0  0  0  0  0  0  0  0  0  0  0  0
   -9.5561   36.9213  -16.6359 N   0  0  0  0  0  0  0  0  0  0  0  0
   -8.3131   36.6863  -17.1454 C   0  0  0  0  0  0  0  0  0  0  0  0
   -8.2287   35.3682  -17.4162 N   0  0  0  0  0  0  0  0  0  0  0  0
  1  3  1  6  0  0  0
  1  5  2  0  0  0  0
  1  9  1  0  0  0  0
  1 18  1  0  0  0  0
  2  4  1  1  0  0  0
  2  6  2  0  0  0  0
  2 10  1  0  0  0  0
  2 17  1  0  0  0  0
  7  9  1  0  0  0  0
  8 10  1  0  0  0  0
 11  7  1  6  0  0  0
 11 13  1  0  0  0  0
 11 15  1  0  0  0  0
 12  8  1  1  0  0  0
 12 14  1  0  0  0  0
 12 16  1  0  0  0  0
 13 23  1  0  0  0  0
 14 24  1  0  0  0  0
 15 17  1  1  0  0  0
 15 19  1  0  0  0  0
 16 18  1  6  0  0  0
 16 20  1  0  0  0  0
 19 21  1  1  0  0  0
 19 23  1  0  0  0  0
 20 22  1  6  0  0  0
 20 24  1  0  0  0  0
 23 34  1  6  0  0  0
 24 44  1  1  0  0  0
 25 26  2  0  0  0  0
 25 30  1  0  0  0  0
 26 27  1  0  0  0  0
 27 28  2  0  0  0  0
 28 29  1  0  0  0  0
 28 34  1  0  0  0  0
 29 30  2  0  0  0  0
 29 32  1  0  0  0  0
 30 31  1  0  0  0  0
 32 33  2  0  0  0  0
 33 34  1  0  0  0  0
 35 36  2  0  0  0  0
 35 40  1  0  0  0  0
 36 37  1  0  0  0  0
 37 38  2  0  0  0  0
 38 39  1  0  0  0  0
 38 44  1  0  0  0  0
 39 40  2  0  0  0  0
 39 42  1  0  0  0  0
 40 41  1  0  0  0  0
 42 43  2  0  0  0  0
 43 44  1  0  0  0  0
M  CHG  2   3  -1   4  -1
M  END
>  <CHROM.1>
72.29354771,-48.25875632,-5.46791653,35.74761778,-14.48689434,-0.76705506
-0.06557783,-2.08021737

>  <Name>
ligand

>  <RI>
0

>  <Rbt.Current_Directory>
/home/itssahil/PROJECTS/Mol_Feturizer/New_Systems/rnas/4QLM

>  <Rbt.Executable>
rbdock ($Id: //depot/dev/client3/rdock/2013.1/src/exe/rbdock.cxx#4 $)

>  <Rbt.Library>
libRbt.so (2013.1, Build901 2013/11/27)

>  <Rbt.Parameter_File>
/export/apps/rDock/src/rDock_2013.1_src/data/scripts/dock_solv.prm

>  <Rbt.Receptor>
prm/pocket_docking_8.prm

>  <SCORE>
-7.87178

>  <SCORE.INTER>
-8.87956

>  <SCORE.INTER.CONST>
1

>  <SCORE.INTER.POLAR>
0

>  <SCORE.INTER.ROT>
2

>  <SCORE.INTER.SOLV>
18.1663

>  <SCORE.INTER.VDW>
-16.9085

>  <SCORE.INTER.norm>
-0.201808

>  <SCORE.INTRA>
1.00778

>  <SCORE.INTRA.DIHEDRAL>
0.00638028

>  <SCORE.INTRA.DIHEDRAL.0>
2.32994

>  <SCORE.INTRA.POLAR>
0

>  <SCORE.INTRA.POLAR.0>
0

>  <SCORE.INTRA.REPUL>
0

>  <SCORE.INTRA.REPUL.0>
0

>  <SCORE.INTRA.SOLV>
0.0675461

>  <SCORE.INTRA.SOLV.lig_0>
-117.703

>  <SCORE.INTRA.VDW>
0.970815

>  <SCORE.INTRA.VDW.0>
-1.59997

>  <SCORE.INTRA.norm>
0.022904

>  <SCORE.RESTR>
0

>  <SCORE.RESTR.CAVITY>
0

>  <SCORE.RESTR.norm>
0

>  <SCORE.SYSTEM>
0

>  <SCORE.SYSTEM.CONST>
0

>  <SCORE.SYSTEM.DIHEDRAL>
0

>  <SCORE.SYSTEM.SOLV>
0

>  <SCORE.SYSTEM.norm>
0

>  <SCORE.heavy>
44

>  <SCORE.norm>
-0.178904

>  <RMSD>
6.870

$$$$
ligand
 OpenBabel11021811513D
libRbt.so/2013.1/901 2013/11/27
 44 50  0  0  0  0  0  0  0  0999 V2000
   -3.2349   35.8703  -16.5085 P   0  0  2  0  0  0  0  0  0  0  0  0
   -5.9663   33.8294  -12.3157 P   0  0  1  0  0  0  0  0  0  0  0  0
   -1.7757   35.5870  -16.8562 O   0  5  0  0  0  0  0  0  0  0  0  0
   -6.7537   34.9923  -11.7630 O   0  5  0  0  0  0  0  0  0  0  0  0
   -3.5489   37.2271  -17.0915 O   0  0  0  0  0  0  0  0  0  0  0  0
   -6.5288   32.5430  -11.6694 O   0  0  0  0  0  0  0  0  0  0  0  0
   -2.3487   34.9491  -14.3160 C   0  0  0  0  0  0  0  0  0  0  0  0
   -5.2722   33.0110  -14.6646 C   0  0  0  0  0  0  0  0  0  0  0  0
   -3.2961   35.8208  -14.9476 O   0  0  0  0  0  0  0  0  0  0  0  0
   -6.0734   33.9930  -13.9487 O   0  0  0  0  0  0  0  0  0  0  0  0
   -2.4866   35.0338  -12.7996 C   0  0  1  0  0  0  0  0  0  0  0  0
   -5.5923   33.2125  -16.1938 C   0  0  1  0  0  0  0  0  0  0  0  0
   -1.7862   36.0440  -12.3858 O   0  0  0  0  0  0  0  0  0  0  0  0
   -6.8600   33.1919  -16.2745 O   0  0  0  0  0  0  0  0  0  0  0  0
   -3.9069   35.2752  -12.3428 C   0  0  1  0  0  0  0  0  0  0  0  0
   -5.2501   34.6465  -16.6449 C   0  0  1  0  0  0  0  0  0  0  0  0
   -4.4007   34.0695  -11.9543 O   0  0  0  0  0  0  0  0  0  0  0  0
   -4.0846   34.6863  -17.3022 O   0  0  0  0  0  0  0  0  0  0  0  0
   -3.7393   36.2204  -11.1024 C   0  0  1  0  0  0  0  0  0  0  0  0
   -6.4142   35.1261  -17.5416 C   0  0  1  0  0  0  0  0  0  0  0  0
   -3.8818   35.4410   -9.8431 O   0  0  0  0  0  0  0  0  0  0  0  0
   -6.0277   35.0522  -18.9874 O   0  0  0  0  0  0  0  0  0  0  0  0
   -2.5598   36.7460  -11.1932 C   0  0  2  0  0  0  0  0  0  0  0  0
   -7.3752   34.2994  -17.3088 C   0  0  2  0  0  0  0  0  0  0  0  0
   -2.8882   41.1606  -14.2305 N   0  0  0  0  0  0  0  0  0  0  0  0
   -2.8424   39.8794  -14.6928 C   0  0  0  0  0  0  0  0  0  0  0  0
   -2.7599   38.8157  -13.8307 N   0  0  0  0  0  0  0  0  0  0  0  0
   -2.7206   39.0540  -12.4846 C   0  0  0  0  0  0  0  0  0  0  0  0
   -2.7575   40.3088  -12.0151 C   0  0  0  0  0  0  0  0  0  0  0  0
   -2.8510   41.3836  -12.8977 C   0  0  0  0  0  0  0  0  0  0  0  0
   -2.8979   42.7442  -12.5347 N   0  0  0  0  0  0  0  0  0  0  0  0
   -2.7098   40.2479  -10.6674 N   0  0  0  0  0  0  0  0  0  0  0  0
   -2.6352   38.9341  -10.3100 C   0  0  0  0  0  0  0  0  0  0  0  0
   -2.6592   38.1960  -11.4274 N   0  0  0  0  0  0  0  0  0  0  0  0
   -9.4473   37.1951  -13.5086 N   0  0  0  0  0  0  0  0  0  0  0  0
   -8.1527   36.7963  -13.6147 C   0  0  0  0  0  0  0  0  0  0  0  0
   -7.7683   36.0278  -14.6772 N   0  0  0  0  0  0  0  0  0  0  0  0
   -8.6742   35.6684  -15.6263 C   0  0  0  0  0  0  0  0  0  0  0  0
   -9.9596   36.0643  -15.5299 C   0  0  0  0  0  0  0  0  0  0  0  0
  -10.3433   36.8436  -14.4424 C   0  0  0  0  0  0  0  0  0  0  0  0
  -11.6525   37.3575  -14.1306 N   0  0  0  0  0  0  0  0  0  0  0  0
  -10.6197   35.5613  -16.6005 N   0  0  0  0  0  0  0  0  0  0  0  0
   -9.7308   34.8580  -17.3589 C   0  0  0  0  0  0  0  0  0  0  0  0
   -8.5302   34.9329  -16.7497 N   0  0  0  0  0  0  0  0  0  0  0  0
  1  3  1  6  0  0  0
  1  5  2  0  0  0  0
  1  9  1  0  0  0  0
  1 18  1  0  0  0  0
  2  4  1  1  0  0  0
  2  6  2  0  0  0  0
  2 10  1  0  0  0  0
  2 17  1  0  0  0  0
  7  9  1  0  0  0  0
  8 10  1  0  0  0  0
 11  7  1  6  0  0  0
 11 13  1  0  0  0  0
 11 15  1  0  0  0  0
 12  8  1  1  0  0  0
 12 14  1  0  0  0  0
 12 16  1  0  0  0  0
 13 23  1  0  0  0  0
 14 24  1  0  0  0  0
 15 17  1  1  0  0  0
 15 19  1  0  0  0  0
 16 18  1  6  0  0  0
 16 20  1  0  0  0  0
 19 21  1  1  0  0  0
 19 23  1  0  0  0  0
 20 22  1  6  0  0  0
 20 24  1  0  0  0  0
 23 34  1  6  0  0  0
 24 44  1  1  0  0  0
 25 26  2  0  0  0  0
 25 30  1  0  0  0  0
 26 27  1  0  0  0  0
 27 28  2  0  0  0  0
 28 29  1  0  0  0  0
 28 34  1  0  0  0  0
 29 30  2  0  0  0  0
 29 32  1  0  0  0  0
 30 31  1  0  0  0  0
 32 33  2  0  0  0  0
 33 34  1  0  0  0  0
 35 36  2  0  0  0  0
 35 40  1  0  0  0  0
 36 37  1  0  0  0  0
 37 38  2  0  0  0  0
 38 39  1  0  0  0  0
 38 44  1  0  0  0  0
 39 40  2  0  0  0  0
 39 42  1  0  0  0  0
 40 41  1  0  0  0  0
 42 43  2  0  0  0  0
 43 44  1  0  0  0  0
M  CHG  2   3  -1   4  -1
M  END
>  <CHROM.1>
29.31905203,62.63332484,-5.18969823,36.17141882,-14.19344297,-0.75069490
-0.18235411,-2.19781404

>  <Name>
ligand

>  <RI>
0

>  <Rbt.Current_Directory>
/home/itssahil/PROJECTS/Mol_Feturizer/New_Systems/rnas/4QLM

>  <Rbt.Executable>
rbdock ($Id: //depot/dev/client3/rdock/2013.1/src/exe/rbdock.cxx#4 $)

>  <Rbt.Library>
libRbt.so (2013.1, Build901 2013/11/27)

>  <Rbt.Parameter_File>
/export/apps/rDock/src/rDock_2013.1_src/data/scripts/dock_solv.prm

>  <Rbt.Receptor>
prm/pocket_docking_7.prm

>  <SCORE>
-9.14718

>  <SCORE.INTER>
-7.47135

>  <SCORE.INTER.CONST>
1

>  <SCORE.INTER.POLAR>
0

>  <SCORE.INTER.ROT>
2

>  <SCORE.INTER.SOLV>
16.9878

>  <SCORE.INTER.VDW>
-15.5768

>  <SCORE.INTER.norm>
-0.169803

>  <SCORE.INTRA>
-1.67583

>  <SCORE.INTRA.DIHEDRAL>
0.175965

>  <SCORE.INTRA.DIHEDRAL.0>
2.32994

>  <SCORE.INTRA.POLAR>
0

>  <SCORE.INTRA.POLAR.0>
0

>  <SCORE.INTRA.REPUL>
0

>  <SCORE.INTRA.REPUL.0>
0

>  <SCORE.INTRA.SOLV>
1.23229

>  <SCORE.INTRA.SOLV.lig_0>
-117.703

>  <SCORE.INTRA.VDW>
-2.37996

>  <SCORE.INTRA.VDW.0>
-1.59997

>  <SCORE.INTRA.norm>
-0.0380871

>  <SCORE.RESTR>
0

>  <SCORE.RESTR.CAVITY>
0

>  <SCORE.RESTR.norm>
0

>  <SCORE.SYSTEM>
0

>  <SCORE.SYSTEM.CONST>
0

>  <SCORE.SYSTEM.DIHEDRAL>
0

>  <SCORE.SYSTEM.SOLV>
0

>  <SCORE.SYSTEM.norm>
0

>  <SCORE.heavy>
44

>  <SCORE.norm>
-0.20789

>  <RMSD>
6.882

$$$$
ligand
 OpenBabel11021811513D
libRbt.so/2013.1/901 2013/11/27
 44 50  0  0  0  0  0  0  0  0999 V2000
   -7.9554   34.8939  -17.5211 P   0  0  2  0  0  0  0  0  0  0  0  0
   -9.7349   32.2728  -13.1430 P   0  0  1  0  0  0  0  0  0  0  0  0
   -6.9912   34.3445  -18.5694 O   0  5  0  0  0  0  0  0  0  0  0  0
   -9.6781   33.2920  -12.0313 O   0  5  0  0  0  0  0  0  0  0  0  0
   -7.7988   36.3952  -17.5536 O   0  0  0  0  0  0  0  0  0  0  0  0
  -10.5642   31.0745  -12.6279 O   0  0  0  0  0  0  0  0  0  0  0  0
   -6.9040   32.9417  -16.2864 C   0  0  0  0  0  0  0  0  0  0  0  0
  -10.3140   32.3061  -15.6593 C   0  0  0  0  0  0  0  0  0  0  0  0
   -7.5067   34.2381  -16.1753 O   0  0  0  0  0  0  0  0  0  0  0  0
  -10.2956   33.1076  -14.4444 O   0  0  0  0  0  0  0  0  0  0  0  0
   -6.4733   32.4431  -14.9111 C   0  0  1  0  0  0  0  0  0  0  0  0
  -10.9992   33.1966  -16.7635 C   0  0  1  0  0  0  0  0  0  0  0  0
   -5.3000   32.9321  -14.6530 O   0  0  0  0  0  0  0  0  0  0  0  0
  -12.0849   33.5990  -16.2407 O   0  0  0  0  0  0  0  0  0  0  0  0
   -7.3877   32.9003  -13.7979 C   0  0  1  0  0  0  0  0  0  0  0  0
  -10.2206   34.5104  -16.9744 C   0  0  1  0  0  0  0  0  0  0  0  0
   -8.2098   31.8549  -13.5159 O   0  0  0  0  0  0  0  0  0  0  0  0
   -9.4575   34.4546  -18.0727 O   0  0  0  0  0  0  0  0  0  0  0  0
   -6.4085   33.1616  -12.6008 C   0  0  1  0  0  0  0  0  0  0  0  0
  -11.2679   35.6425  -17.0783 C   0  0  1  0  0  0  0  0  0  0  0  0
   -6.4568   32.0237  -11.6435 O   0  0  0  0  0  0  0  0  0  0  0  0
  -11.4643   36.0459  -18.5079 O   0  0  0  0  0  0  0  0  0  0  0  0
   -5.2257   33.2908  -13.1105 C   0  0  2  0  0  0  0  0  0  0  0  0
  -12.3581   35.1295  -16.6207 C   0  0  2  0  0  0  0  0  0  0  0  0
   -4.7716   37.9778  -10.5323 N   0  0  0  0  0  0  0  0  0  0  0  0
   -5.4799   36.8974  -10.0983 C   0  0  0  0  0  0  0  0  0  0  0  0
   -5.5323   35.7406  -10.8335 N   0  0  0  0  0  0  0  0  0  0  0  0
   -4.8610   35.6795  -12.0234 C   0  0  0  0  0  0  0  0  0  0  0  0
   -4.1660   36.7363  -12.4667 C   0  0  0  0  0  0  0  0  0  0  0  0
   -4.1101   37.9048  -11.7090 C   0  0  0  0  0  0  0  0  0  0  0  0
   -3.4181   39.0806  -12.0604 N   0  0  0  0  0  0  0  0  0  0  0  0
   -3.6080   36.3982  -13.6485 N   0  0  0  0  0  0  0  0  0  0  0  0
   -3.9751   35.1163  -13.9336 C   0  0  0  0  0  0  0  0  0  0  0  0
   -4.7329   34.6656  -12.9253 N   0  0  0  0  0  0  0  0  0  0  0  0
  -13.4849   34.9493  -11.5396 N   0  0  0  0  0  0  0  0  0  0  0  0
  -13.0015   33.9345  -12.3030 C   0  0  0  0  0  0  0  0  0  0  0  0
  -12.7637   34.1441  -13.6322 N   0  0  0  0  0  0  0  0  0  0  0  0
  -13.0039   35.3626  -14.1873 C   0  0  0  0  0  0  0  0  0  0  0  0
  -13.4793   36.3755  -13.4350 C   0  0  0  0  0  0  0  0  0  0  0  0
  -13.7224   36.1521  -12.0828 C   0  0  0  0  0  0  0  0  0  0  0  0
  -14.2422   37.0740  -11.1055 N   0  0  0  0  0  0  0  0  0  0  0  0
  -13.6212   37.4509  -14.2465 N   0  0  0  0  0  0  0  0  0  0  0  0
  -13.2246   37.0943  -15.5017 C   0  0  0  0  0  0  0  0  0  0  0  0
  -12.8420   35.8022  -15.4540 N   0  0  0  0  0  0  0  0  0  0  0  0
  1  3  1  6  0  0  0
  1  5  2  0  0  0  0
  1  9  1  0  0  0  0
  1 18  1  0  0  0  0
  2  4  1  1  0  0  0
  2  6  2  0  0  0  0
  2 10  1  0  0  0  0
  2 17  1  0  0  0  0
  7  9  1  0  0  0  0
  8 10  1  0  0  0  0
 11  7  1  6  0  0  0
 11 13  1  0  0  0  0
 11 15  1  0  0  0  0
 12  8  1  1  0  0  0
 12 14  1  0  0  0  0
 12 16  1  0  0  0  0
 13 23  1  0  0  0  0
 14 24  1  0  0  0  0
 15 17  1  1  0  0  0
 15 19  1  0  0  0  0
 16 18  1  6  0  0  0
 16 20  1  0  0  0  0
 19 21  1  1  0  0  0
 19 23  1  0  0  0  0
 20 22  1  6  0  0  0
 20 24  1  0  0  0  0
 23 34  1  6  0  0  0
 24 44  1  1  0  0  0
 25 26  2  0  0  0  0
 25 30  1  0  0  0  0
 26 27  1  0  0  0  0
 27 28  2  0  0  0  0
 28 29  1  0  0  0  0
 28 34  1  0  0  0  0
 29 30  2  0  0  0  0
 29 32  1  0  0  0  0
 30 31  1  0  0  0  0
 32 33  2  0  0  0  0
 33 34  1  0  0  0  0
 35 36  2  0  0  0  0
 35 40  1  0  0  0  0
 36 37  1  0  0  0  0
 37 38  2  0  0  0  0
 38 39  1  0  0  0  0
 38 44  1  0  0  0  0
 39 40  2  0  0  0  0
 39 42  1  0  0  0  0
 40 41  1  0  0  0  0
 42 43  2  0  0  0  0
 43 44  1  0  0  0  0
M  CHG  2   3  -1   4  -1
M  END
>  <CHROM.1>
151.29853704,3.96419830,-8.84105748,34.65031567,-14.27711383,-0.27711159
0.00680073,-1.82618647

>  <Name>
ligand

>  <RI>
0

>  <Rbt.Current_Directory>
/home/itssahil/PROJECTS/Mol_Feturizer/New_Systems/rnas/4QLM

>  <Rbt.Executable>
rbdock ($Id: //depot/dev/client3/rdock/2013.1/src/exe/rbdock.cxx#4 $)

>  <Rbt.Library>
libRbt.so (2013.1, Build901 2013/11/27)

>  <Rbt.Parameter_File>
/export/apps/rDock/src/rDock_2013.1_src/data/scripts/dock_solv.prm

>  <Rbt.Receptor>
prm/pocket_docking_8.prm

>  <SCORE>
-8.33914

>  <SCORE.INTER>
-8.21929

>  <SCORE.INTER.CONST>
1

>  <SCORE.INTER.POLAR>
0

>  <SCORE.INTER.ROT>
2

>  <SCORE.INTER.SOLV>
22.0612

>  <SCORE.INTER.VDW>
-17.7666

>  <SCORE.INTER.norm>
-0.186802

>  <SCORE.INTRA>
-0.119848

>  <SCORE.INTRA.DIHEDRAL>
0.171307

>  <SCORE.INTRA.DIHEDRAL.0>
2.32994

>  <SCORE.INTRA.POLAR>
0

>  <SCORE.INTRA.POLAR.0>
0

>  <SCORE.INTRA.REPUL>
0

>  <SCORE.INTRA.REPUL.0>
0

>  <SCORE.INTRA.SOLV>
0.915157

>  <SCORE.INTRA.SOLV.lig_0>
-117.703

>  <SCORE.INTRA.VDW>
-0.663079

>  <SCORE.INTRA.VDW.0>
-1.59997

>  <SCORE.INTRA.norm>
-0.00272381

>  <SCORE.RESTR>
0

>  <SCORE.RESTR.CAVITY>
0

>  <SCORE.RESTR.norm>
0

>  <SCORE.SYSTEM>
0

>  <SCORE.SYSTEM.CONST>
0

>  <SCORE.SYSTEM.DIHEDRAL>
0

>  <SCORE.SYSTEM.SOLV>
0

>  <SCORE.SYSTEM.norm>
0

>  <SCORE.heavy>
44

>  <SCORE.norm>
-0.189526

>  <RMSD>
6.885

$$$$
ligand
 OpenBabel11021811513D
libRbt.so/2013.1/901 2013/11/27
 44 50  0  0  0  0  0  0  0  0999 V2000
   -3.9341   34.9251  -13.0051 P   0  0  2  0  0  0  0  0  0  0  0  0
   -5.9536   37.1504  -17.4967 P   0  0  1  0  0  0  0  0  0  0  0  0
   -2.7683   33.9420  -12.9331 O   0  5  0  0  0  0  0  0  0  0  0  0
   -7.4514   37.0866  -17.3213 O   0  5  0  0  0  0  0  0  0  0  0  0
   -4.7834   34.6582  -11.7857 O   0  0  0  0  0  0  0  0  0  0  0  0
   -5.6687   38.0940  -18.6873 O   0  0  0  0  0  0  0  0  0  0  0  0
   -3.8072   34.0945  -15.3999 C   0  0  0  0  0  0  0  0  0  0  0  0
   -3.9241   37.5732  -15.9570 C   0  0  0  0  0  0  0  0  0  0  0  0
   -4.6488   34.6070  -14.3581 O   0  0  0  0  0  0  0  0  0  0  0  0
   -5.3786   37.5697  -16.0140 O   0  0  0  0  0  0  0  0  0  0  0  0
   -4.6373   33.7846  -16.6411 C   0  0  1  0  0  0  0  0  0  0  0  0
   -3.5410   38.1242  -14.5319 C   0  0  1  0  0  0  0  0  0  0  0  0
   -5.1396   32.5966  -16.5052 O   0  0  0  0  0  0  0  0  0  0  0  0
   -4.1931   39.2073  -14.4070 O   0  0  0  0  0  0  0  0  0  0  0  0
   -5.8024   34.7287  -16.8300 C   0  0  1  0  0  0  0  0  0  0  0  0
   -4.1401   37.2409  -13.4193 C   0  0  1  0  0  0  0  0  0  0  0  0
   -5.4172   35.6400  -17.7624 O   0  0  0  0  0  0  0  0  0  0  0  0
   -3.2199   36.4192  -12.8998 O   0  0  0  0  0  0  0  0  0  0  0  0
   -6.9340   33.8069  -17.4044 C   0  0  1  0  0  0  0  0  0  0  0  0
   -4.7083   38.1951  -12.3442 C   0  0  1  0  0  0  0  0  0  0  0  0
   -7.0488   33.9952  -18.8757 O   0  0  0  0  0  0  0  0  0  0  0  0
   -3.7801   38.2753  -11.1706 O   0  0  0  0  0  0  0  0  0  0  0  0
   -6.6028   32.5892  -17.1157 C   0  0  2  0  0  0  0  0  0  0  0  0
   -4.7742   39.3452  -12.9220 C   0  0  2  0  0  0  0  0  0  0  0  0
   -8.3080   31.1519  -12.2323 N   0  0  0  0  0  0  0  0  0  0  0  0
   -7.1349   31.7877  -12.5092 C   0  0  0  0  0  0  0  0  0  0  0  0
   -6.7905   32.1141  -13.7961 N   0  0  0  0  0  0  0  0  0  0  0  0
   -7.6440   31.7895  -14.8142 C   0  0  0  0  0  0  0  0  0  0  0  0
   -8.7980   31.1576  -14.5583 C   0  0  0  0  0  0  0  0  0  0  0  0
   -9.1448   30.8382  -13.2467 C   0  0  0  0  0  0  0  0  0  0  0  0
  -10.3229   30.1781  -12.8449 N   0  0  0  0  0  0  0  0  0  0  0  0
   -9.4358   30.9692  -15.7330 N   0  0  0  0  0  0  0  0  0  0  0  0
   -8.6540   31.4885  -16.7221 C   0  0  0  0  0  0  0  0  0  0  0  0
   -7.5575   32.0099  -16.1565 N   0  0  0  0  0  0  0  0  0  0  0  0
   -9.3369   40.2471  -10.5793 N   0  0  0  0  0  0  0  0  0  0  0  0
   -8.2378   39.6700  -10.0268 C   0  0  0  0  0  0  0  0  0  0  0  0
   -7.1135   39.4974  -10.7840 N   0  0  0  0  0  0  0  0  0  0  0  0
   -7.0919   39.9057  -12.0814 C   0  0  0  0  0  0  0  0  0  0  0  0
   -8.1772   40.4834  -12.6350 C   0  0  0  0  0  0  0  0  0  0  0  0
   -9.3195   40.6517  -11.8577 C   0  0  0  0  0  0  0  0  0  0  0  0
  -10.5854   41.2206  -12.2435 N   0  0  0  0  0  0  0  0  0  0  0  0
   -7.8676   40.7787  -13.9203 N   0  0  0  0  0  0  0  0  0  0  0  0
   -6.5830   40.3839  -14.1520 C   0  0  0  0  0  0  0  0  0  0  0  0
   -6.1112   39.8482  -13.0081 N   0  0  0  0  0  0  0  0  0  0  0  0
  1  3  1  1  0  0  0
  1  5  2  0  0  0  0
  1  9  1  0  0  0  0
  1 18  1  0  0  0  0
  2  4  1  1  0  0  0
  2  6  2  0  0  0  0
  2 10  1  0  0  0  0
  2 17  1  0  0  0  0
  7  9  1  0  0  0  0
  8 10  1  0  0  0  0
 11  7  1  1  0  0  0
 11 13  1  0  0  0  0
 11 15  1  0  0  0  0
 12  8  1  6  0  0  0
 12 14  1  0  0  0  0
 12 16  1  0  0  0  0
 13 23  1  0  0  0  0
 14 24  1  0  0  0  0
 15 17  1  6  0  0  0
 15 19  1  0  0  0  0
 16 18  1  1  0  0  0
 16 20  1  0  0  0  0
 19 21  1  6  0  0  0
 19 23  1  0  0  0  0
 20 22  1  1  0  0  0
 20 24  1  0  0  0  0
 23 34  1  1  0  0  0
 24 44  1  6  0  0  0
 25 26  2  0  0  0  0
 25 30  1  0  0  0  0
 26 27  1  0  0  0  0
 27 28  2  0  0  0  0
 28 29  1  0  0  0  0
 28 34  1  0  0  0  0
 29 30  2  0  0  0  0
 29 32  1  0  0  0  0
 30 31  1  0  0  0  0
 32 33  2  0  0  0  0
 33 34  1  0  0  0  0
 35 36  2  0  0  0  0
 35 40  1  0  0  0  0
 36 37  1  0  0  0  0
 37 38  2  0  0  0  0
 38 39  1  0  0  0  0
 38 44  1  0  0  0  0
 39 40  2  0  0  0  0
 39 42  1  0  0  0  0
 40 41  1  0  0  0  0
 42 43  2  0  0  0  0
 43 44  1  0  0  0  0
M  CHG  2   3  -1   4  -1
M  END
>  <CHROM.1>
21.33544810,166.30441340,-6.25246418,35.91765187,-14.41659386,-1.68517275
0.94004509,0.44219569

>  <Name>
ligand

>  <RI>
0

>  <Rbt.Current_Directory>
/home/itssahil/PROJECTS/Mol_Feturizer/New_Systems/rnas/4QLM

>  <Rbt.Executable>
rbdock ($Id: //depot/dev/client3/rdock/2013.1/src/exe/rbdock.cxx#4 $)

>  <Rbt.Library>
libRbt.so (2013.1, Build901 2013/11/27)

>  <Rbt.Parameter_File>
/export/apps/rDock/src/rDock_2013.1_src/data/scripts/dock_solv.prm

>  <Rbt.Receptor>
prm/pocket_docking_7.prm

>  <SCORE>
-12.8136

>  <SCORE.INTER>
-12.5115

>  <SCORE.INTER.CONST>
1

>  <SCORE.INTER.POLAR>
0

>  <SCORE.INTER.ROT>
2

>  <SCORE.INTER.SOLV>
24.5759

>  <SCORE.INTER.VDW>
-21.4663

>  <SCORE.INTER.norm>
-0.284353

>  <SCORE.INTRA>
-0.302072

>  <SCORE.INTRA.DIHEDRAL>
0.160549

>  <SCORE.INTRA.DIHEDRAL.0>
2.32994

>  <SCORE.INTRA.POLAR>
0

>  <SCORE.INTRA.POLAR.0>
0

>  <SCORE.INTRA.REPUL>
0

>  <SCORE.INTRA.REPUL.0>
0

>  <SCORE.INTRA.SOLV>
0.32779

>  <SCORE.INTRA.SOLV.lig_0>
-117.703

>  <SCORE.INTRA.VDW>
-0.546242

>  <SCORE.INTRA.VDW.0>
-1.59997

>  <SCORE.INTRA.norm>
-0.00686528

>  <SCORE.RESTR>
0

>  <SCORE.RESTR.CAVITY>
0

>  <SCORE.RESTR.norm>
0

>  <SCORE.SYSTEM>
0

>  <SCORE.SYSTEM.CONST>
0

>  <SCORE.SYSTEM.DIHEDRAL>
0

>  <SCORE.SYSTEM.SOLV>
0

>  <SCORE.SYSTEM.norm>
0

>  <SCORE.heavy>
44

>  <SCORE.norm>
-0.291219

>  <RMSD>
6.916

$$$$
ligand
 OpenBabel11021811513D
libRbt.so/2013.1/901 2013/11/27
 44 50  0  0  0  0  0  0  0  0999 V2000
   -5.5724   37.2361  -17.7171 P   0  0  2  0  0  0  0  0  0  0  0  0
   -2.5176   35.4060  -13.6520 P   0  0  1  0  0  0  0  0  0  0  0  0
   -5.1152   38.1643  -18.8396 O   0  5  0  0  0  0  0  0  0  0  0  0
   -3.3937   35.5178  -12.4281 O   0  5  0  0  0  0  0  0  0  0  0  0
   -7.0596   37.4530  -17.5734 O   0  0  0  0  0  0  0  0  0  0  0  0
   -1.2994   34.5353  -13.2690 O   0  0  0  0  0  0  0  0  0  0  0  0
   -3.4473   38.2227  -16.7414 C   0  0  0  0  0  0  0  0  0  0  0  0
   -2.8739   34.7977  -16.1362 C   0  0  0  0  0  0  0  0  0  0  0  0
   -4.7435   37.6744  -16.4666 O   0  0  0  0  0  0  0  0  0  0  0  0
   -3.5231   34.8636  -14.8351 O   0  0  0  0  0  0  0  0  0  0  0  0
   -2.7715   38.6498  -15.4428 C   0  0  1  0  0  0  0  0  0  0  0  0
   -3.9159   34.1356  -17.1148 C   0  0  1  0  0  0  0  0  0  0  0  0
   -3.1803   39.8450  -15.1484 O   0  0  0  0  0  0  0  0  0  0  0  0
   -4.2947   33.0736  -16.5294 O   0  0  0  0  0  0  0  0  0  0  0  0
   -3.1276   37.7685  -14.2676 C   0  0  1  0  0  0  0  0  0  0  0  0
   -5.2143   34.9642  -17.1812 C   0  0  1  0  0  0  0  0  0  0  0  0
   -2.0886   36.9082  -14.0980 O   0  0  0  0  0  0  0  0  0  0  0  0
   -5.2607   35.7108  -18.2913 O   0  0  0  0  0  0  0  0  0  0  0  0
   -3.2057   38.7721  -13.0649 C   0  0  1  0  0  0  0  0  0  0  0  0
   -6.3904   33.9624  -17.1318 C   0  0  1  0  0  0  0  0  0  0  0  0
   -1.9643   38.6896  -12.2490 O   0  0  0  0  0  0  0  0  0  0  0  0
   -6.9692   33.7649  -18.4997 O   0  0  0  0  0  0  0  0  0  0  0  0
   -3.3489   39.9529  -13.5757 C   0  0  2  0  0  0  0  0  0  0  0  0
   -5.8691   32.8580  -16.7199 C   0  0  2  0  0  0  0  0  0  0  0  0
   -8.3111   39.7536  -11.5366 N   0  0  0  0  0  0  0  0  0  0  0  0
   -7.4017   38.7389  -11.5149 C   0  0  0  0  0  0  0  0  0  0  0  0
   -6.1542   38.8914  -12.0644 N   0  0  0  0  0  0  0  0  0  0  0  0
   -5.8262   40.0854  -12.6449 C   0  0  0  0  0  0  0  0  0  0  0  0
   -6.7125   41.0902  -12.6804 C   0  0  0  0  0  0  0  0  0  0  0  0
   -7.9747   40.9301  -12.1112 C   0  0  0  0  0  0  0  0  0  0  0  0
   -8.9930   41.9033  -12.0816 N   0  0  0  0  0  0  0  0  0  0  0  0
   -6.1269   42.1367  -13.3002 N   0  0  0  0  0  0  0  0  0  0  0  0
   -4.8651   41.7609  -13.6549 C   0  0  0  0  0  0  0  0  0  0  0  0
   -4.6716   40.5032  -13.2367 N   0  0  0  0  0  0  0  0  0  0  0  0
   -9.8977   30.8468  -14.1035 N   0  0  0  0  0  0  0  0  0  0  0  0
   -9.8493   31.1311  -15.4313 C   0  0  0  0  0  0  0  0  0  0  0  0
   -8.7113   31.6663  -15.9658 N   0  0  0  0  0  0  0  0  0  0  0  0
   -7.6310   31.9081  -15.1752 C   0  0  0  0  0  0  0  0  0  0  0  0
   -7.6702   31.6243  -13.8576 C   0  0  0  0  0  0  0  0  0  0  0  0
   -8.8347   31.0830  -13.3208 C   0  0  0  0  0  0  0  0  0  0  0  0
   -9.1032   30.7241  -11.9518 N   0  0  0  0  0  0  0  0  0  0  0  0
   -6.4695   31.9684  -13.3333 N   0  0  0  0  0  0  0  0  0  0  0  0
   -5.6896   32.4605  -14.3380 C   0  0  0  0  0  0  0  0  0  0  0  0
   -6.4158   32.4162  -15.4733 N   0  0  0  0  0  0  0  0  0  0  0  0
  1  3  1  6  0  0  0
  1  5  2  0  0  0  0
  1  9  1  0  0  0  0
  1 18  1  0  0  0  0
  2  4  1  1  0  0  0
  2  6  2  0  0  0  0
  2 10  1  0  0  0  0
  2 17  1  0  0  0  0
  7  9  1  0  0  0  0
  8 10  1  0  0  0  0
 11  7  1  6  0  0  0
 11 13  1  0  0  0  0
 11 15  1  0  0  0  0
 12  8  1  1  0  0  0
 12 14  1  0  0  0  0
 12 16  1  0  0  0  0
 13 23  1  0  0  0  0
 14 24  1  0  0  0  0
 15 17  1  1  0  0  0
 15 19  1  0  0  0  0
 16 18  1  6  0  0  0
 16 20  1  0  0  0  0
 19 21  1  6  0  0  0
 19 23  1  0  0  0  0
 20 22  1  6  0  0  0
 20 24  1  0  0  0  0
 23 34  1  6  0  0  0
 24 44  1  1  0  0  0
 25 26  2  0  0  0  0
 25 30  1  0  0  0  0
 26 27  1  0  0  0  0
 27 28  2  0  0  0  0
 28 29  1  0  0  0  0
 28 34  1  0  0  0  0
 29 30  2  0  0  0  0
 29 32  1  0  0  0  0
 30 31  1  0  0  0  0
 32 33  2  0  0  0  0
 33 34  1  0  0  0  0
 35 36  2  0  0  0  0
 35 40  1  0  0  0  0
 36 37  1  0  0  0  0
 37 38  2  0  0  0  0
 38 39  1  0  0  0  0
 38 44  1  0  0  0  0
 39 40  2  0  0  0  0
 39 42  1  0  0  0  0
 40 41  1  0  0  0  0
 42 43  2  0  0  0  0
 43 44  1  0  0  0  0
M  CHG  2   3  -1   4  -1
M  END
>  <CHROM.1>
112.55132586,-168.36330239,-5.38557300,36.25125465,-14.77117611,-1.24909705
-0.55283069,-2.74294835

>  <Name>
ligand

>  <RI>
0

>  <Rbt.Current_Directory>
/home/itssahil/PROJECTS/Mol_Feturizer/New_Systems/rnas/4QLM

>  <Rbt.Executable>
rbdock ($Id: //depot/dev/client3/rdock/2013.1/src/exe/rbdock.cxx#4 $)

>  <Rbt.Library>
libRbt.so (2013.1, Build901 2013/11/27)

>  <Rbt.Parameter_File>
/export/apps/rDock/src/rDock_2013.1_src/data/scripts/dock_solv.prm

>  <Rbt.Receptor>
prm/pocket_docking_6.prm

>  <SCORE>
-11.3794

>  <SCORE.INTER>
-12.2595

>  <SCORE.INTER.CONST>
1

>  <SCORE.INTER.POLAR>
0

>  <SCORE.INTER.ROT>
2

>  <SCORE.INTER.SOLV>
25.6782

>  <SCORE.INTER.VDW>
-21.6658

>  <SCORE.INTER.norm>
-0.278626

>  <SCORE.INTRA>
-0.0563675

>  <SCORE.INTRA.DIHEDRAL>
0.0450023

>  <SCORE.INTRA.DIHEDRAL.0>
2.32994

>  <SCORE.INTRA.POLAR>
0

>  <SCORE.INTRA.POLAR.0>
0

>  <SCORE.INTRA.REPUL>
0

>  <SCORE.INTRA.REPUL.0>
0

>  <SCORE.INTRA.SOLV>
0.0400366

>  <SCORE.INTRA.SOLV.lig_0>
-117.703

>  <SCORE.INTRA.VDW>
-0.0988869

>  <SCORE.INTRA.VDW.0>
-1.59997

>  <SCORE.INTRA.norm>
-0.00128108

>  <SCORE.RESTR>
0.936549

>  <SCORE.RESTR.CAVITY>
0.936549

>  <SCORE.RESTR.norm>
0.0212852

>  <SCORE.SYSTEM>
0

>  <SCORE.SYSTEM.CONST>
0

>  <SCORE.SYSTEM.DIHEDRAL>
0

>  <SCORE.SYSTEM.SOLV>
0

>  <SCORE.SYSTEM.norm>
0

>  <SCORE.heavy>
44

>  <SCORE.norm>
-0.258622

>  <RMSD>
6.935

$$$$
ligand
 OpenBabel11021811513D
libRbt.so/2013.1/901 2013/11/27
 44 50  0  0  0  0  0  0  0  0999 V2000
  -10.7315   31.8058  -14.4037 P   0  0  2  0  0  0  0  0  0  0  0  0
   -8.3559   36.0094  -16.8309 P   0  0  1  0  0  0  0  0  0  0  0  0
  -11.6594   30.7904  -15.0660 O   0  5  0  0  0  0  0  0  0  0  0  0
   -8.5021   37.1529  -15.8567 O   0  5  0  0  0  0  0  0  0  0  0  0
  -11.1080   31.8264  -12.9418 O   0  0  0  0  0  0  0  0  0  0  0  0
   -7.3336   36.4464  -17.9047 O   0  0  0  0  0  0  0  0  0  0  0  0
  -11.4180   33.0316  -16.5174 C   0  0  0  0  0  0  0  0  0  0  0  0
   -7.9231   33.4697  -16.6556 C   0  0  0  0  0  0  0  0  0  0  0  0
  -11.0068   33.1518  -15.1489 O   0  0  0  0  0  0  0  0  0  0  0  0
   -7.9939   34.7077  -15.8933 O   0  0  0  0  0  0  0  0  0  0  0  0
  -11.6969   34.4108  -17.1051 C   0  0  1  0  0  0  0  0  0  0  0  0
   -7.4357   32.3604  -15.6489 C   0  0  1  0  0  0  0  0  0  0  0  0
  -12.9138   34.7412  -16.8010 O   0  0  0  0  0  0  0  0  0  0  0  0
   -6.3944   32.8407  -15.1022 O   0  0  0  0  0  0  0  0  0  0  0  0
  -10.8013   35.4907  -16.5429 C   0  0  1  0  0  0  0  0  0  0  0  0
   -8.4087   32.2280  -14.4602 C   0  0  1  0  0  0  0  0  0  0  0  0
   -9.8210   35.7000  -17.4613 O   0  0  0  0  0  0  0  0  0  0  0  0
   -9.2129   31.1675  -14.6035 O   0  0  0  0  0  0  0  0  0  0  0  0
  -11.7429   36.7421  -16.4564 C   0  0  1  0  0  0  0  0  0  0  0  0
   -7.5456   32.1066  -13.1836 C   0  0  1  0  0  0  0  0  0  0  0  0
  -11.4774   37.6610  -17.5959 O   0  0  0  0  0  0  0  0  0  0  0  0
   -7.4871   30.6818  -12.7234 O   0  0  0  0  0  0  0  0  0  0  0  0
  -12.9575   36.2957  -16.4922 C   0  0  2  0  0  0  0  0  0  0  0  0
   -6.3692   32.4940  -13.5399 C   0  0  2  0  0  0  0  0  0  0  0  0
  -14.1429   35.2982  -11.3520 N   0  0  0  0  0  0  0  0  0  0  0  0
  -13.2651   34.5901  -12.1170 C   0  0  0  0  0  0  0  0  0  0  0  0
  -13.0302   34.9280  -13.4255 N   0  0  0  0  0  0  0  0  0  0  0  0
  -13.6950   35.9943  -13.9651 C   0  0  0  0  0  0  0  0  0  0  0  0
  -14.5668   36.6959  -13.2274 C   0  0  0  0  0  0  0  0  0  0  0  0
  -14.7925   36.3517  -11.8958 C   0  0  0  0  0  0  0  0  0  0  0  0
  -15.6786   37.0048  -11.0163 N   0  0  0  0  0  0  0  0  0  0  0  0
  -15.0655   37.6819  -14.0028 N   0  0  0  0  0  0  0  0  0  0  0  0
  -14.4935   37.5749  -15.2360 C   0  0  0  0  0  0  0  0  0  0  0  0
  -13.6358   36.5464  -15.2099 N   0  0  0  0  0  0  0  0  0  0  0  0
   -4.9963   37.5161  -13.6599 N   0  0  0  0  0  0  0  0  0  0  0  0
   -5.3728   36.7493  -14.7167 C   0  0  0  0  0  0  0  0  0  0  0  0
   -5.6975   35.4371  -14.5165 N   0  0  0  0  0  0  0  0  0  0  0  0
   -5.6497   34.9024  -13.2666 C   0  0  0  0  0  0  0  0  0  0  0  0
   -5.2814   35.6585  -12.2126 C   0  0  0  0  0  0  0  0  0  0  0  0
   -4.9486   36.9930  -12.4261 C   0  0  0  0  0  0  0  0  0  0  0  0
   -4.5137   37.9696  -11.4605 N   0  0  0  0  0  0  0  0  0  0  0  0
   -5.3235   34.8684  -11.1130 N   0  0  0  0  0  0  0  0  0  0  0  0
   -5.7254   33.6230  -11.4967 C   0  0  0  0  0  0  0  0  0  0  0  0
   -5.9275   33.6552  -12.8295 N   0  0  0  0  0  0  0  0  0  0  0  0
  1  3  1  6  0  0  0
  1  5  2  0  0  0  0
  1  9  1  0  0  0  0
  1 18  1  0  0  0  0
  2  4  1  1  0  0  0
  2  6  2  0  0  0  0
  2 10  1  0  0  0  0
  2 17  1  0  0  0  0
  7  9  1  0  0  0  0
  8 10  1  0  0  0  0
 11  7  1  1  0  0  0
 11 13  1  0  0  0  0
 11 15  1  0  0  0  0
 12  8  1  6  0  0  0
 12 14  1  0  0  0  0
 12 16  1  0  0  0  0
 13 23  1  0  0  0  0
 14 24  1  0  0  0  0
 15 17  1  6  0  0  0
 15 19  1  0  0  0  0
 16 18  1  6  0  0  0
 16 20  1  0  0  0  0
 19 21  1  6  0  0  0
 19 23  1  0  0  0  0
 20 22  1  6  0  0  0
 20 24  1  0  0  0  0
 23 34  1  1  0  0  0
 24 44  1  1  0  0  0
 25 26  2  0  0  0  0
 25 30  1  0  0  0  0
 26 27  1  0  0  0  0
 27 28  2  0  0  0  0
 28 29  1  0  0  0  0
 28 34  1  0  0  0  0
 29 30  2  0  0  0  0
 29 32  1  0  0  0  0
 30 31  1  0  0  0  0
 32 33  2  0  0  0  0
 33 34  1  0  0  0  0
 35 36  2  0  0  0  0
 35 40  1  0  0  0  0
 36 37  1  0  0  0  0
 37 38  2  0  0  0  0
 38 39  1  0  0  0  0
 38 44  1  0  0  0  0
 39 40  2  0  0  0  0
 39 42  1  0  0  0  0
 40 41  1  0  0  0  0
 42 43  2  0  0  0  0
 43 44  1  0  0  0  0
M  CHG  2   3  -1   4  -1
M  END
>  <CHROM.1>
39.81731873,4.80048123,-9.67054150,34.74178737,-14.54749641,2.96476083,-0.03362673
-0.33116642

>  <Name>
ligand

>  <RI>
0

>  <Rbt.Current_Directory>
/home/itssahil/PROJECTS/Mol_Feturizer/New_Systems/rnas/4QLM

>  <Rbt.Executable>
rbdock ($Id: //depot/dev/client3/rdock/2013.1/src/exe/rbdock.cxx#4 $)

>  <Rbt.Library>
libRbt.so (2013.1, Build901 2013/11/27)

>  <Rbt.Parameter_File>
/export/apps/rDock/src/rDock_2013.1_src/data/scripts/dock_solv.prm

>  <Rbt.Receptor>
prm/pocket_docking_8.prm

>  <SCORE>
-9.03345

>  <SCORE.INTER>
-7.6831

>  <SCORE.INTER.CONST>
1

>  <SCORE.INTER.POLAR>
0

>  <SCORE.INTER.ROT>
2

>  <SCORE.INTER.SOLV>
17.6629

>  <SCORE.INTER.VDW>
-15.943

>  <SCORE.INTER.norm>
-0.174616

>  <SCORE.INTRA>
-1.35035

>  <SCORE.INTRA.DIHEDRAL>
0.153743

>  <SCORE.INTRA.DIHEDRAL.0>
2.32994

>  <SCORE.INTRA.POLAR>
0

>  <SCORE.INTRA.POLAR.0>
0

>  <SCORE.INTRA.REPUL>
0

>  <SCORE.INTRA.REPUL.0>
0

>  <SCORE.INTRA.SOLV>
1.30749

>  <SCORE.INTRA.SOLV.lig_0>
-117.703

>  <SCORE.INTRA.VDW>
-2.08097

>  <SCORE.INTRA.VDW.0>
-1.59997

>  <SCORE.INTRA.norm>
-0.0306898

>  <SCORE.RESTR>
0

>  <SCORE.RESTR.CAVITY>
0

>  <SCORE.RESTR.norm>
0

>  <SCORE.SYSTEM>
0

>  <SCORE.SYSTEM.CONST>
0

>  <SCORE.SYSTEM.DIHEDRAL>
0

>  <SCORE.SYSTEM.SOLV>
0

>  <SCORE.SYSTEM.norm>
0

>  <SCORE.heavy>
44

>  <SCORE.norm>
-0.205306

>  <RMSD>
6.955

$$$$
ligand
 OpenBabel11021811513D
libRbt.so/2013.1/901 2013/11/27
 44 50  0  0  0  0  0  0  0  0999 V2000
   -5.5862   33.8703  -13.1410 P   0  0  2  0  0  0  0  0  0  0  0  0
   -3.2898   36.7362  -17.1057 P   0  0  1  0  0  0  0  0  0  0  0  0
   -6.0926   32.4339  -13.2455 O   0  5  0  0  0  0  0  0  0  0  0  0
   -3.9074   38.1093  -16.9991 O   0  5  0  0  0  0  0  0  0  0  0  0
   -6.3886   34.5185  -12.0385 O   0  0  0  0  0  0  0  0  0  0  0  0
   -2.0728   36.8502  -18.0517 O   0  0  0  0  0  0  0  0  0  0  0  0
   -5.7828   33.5709  -15.6535 C   0  0  0  0  0  0  0  0  0  0  0  0
   -2.5299   34.9124  -15.4430 C   0  0  0  0  0  0  0  0  0  0  0  0
   -5.8332   34.4903  -14.5542 O   0  0  0  0  0  0  0  0  0  0  0  0
   -3.0272   36.2763  -15.5487 O   0  0  0  0  0  0  0  0  0  0  0  0
   -6.0866   34.2969  -16.9598 C   0  0  1  0  0  0  0  0  0  0  0  0
   -2.2014   34.6805  -13.9199 C   0  0  1  0  0  0  0  0  0  0  0  0
   -7.3746   34.3492  -17.1031 O   0  0  0  0  0  0  0  0  0  0  0  0
   -1.4674   35.6616  -13.5842 O   0  0  0  0  0  0  0  0  0  0  0  0
   -5.5903   35.7244  -16.9778 C   0  0  1  0  0  0  0  0  0  0  0  0
   -3.4559   34.8854  -13.0475 C   0  0  1  0  0  0  0  0  0  0  0  0
   -4.4235   35.7216  -17.6757 O   0  0  0  0  0  0  0  0  0  0  0  0
   -3.9972   33.7149  -12.6886 O   0  0  0  0  0  0  0  0  0  0  0  0
   -6.7012   36.4905  -17.7772 C   0  0  1  0  0  0  0  0  0  0  0  0
   -3.0154   35.7003  -11.8101 C   0  0  1  0  0  0  0  0  0  0  0  0
   -6.2519   36.7295  -19.1752 O   0  0  0  0  0  0  0  0  0  0  0  0
   -2.8723   34.8059  -10.6165 O   0  0  0  0  0  0  0  0  0  0  0  0
   -7.7590   35.7448  -17.7497 C   0  0  2  0  0  0  0  0  0  0  0  0
   -1.8644   36.1870  -12.1254 C   0  0  2  0  0  0  0  0  0  0  0  0
   -9.8976   37.9720  -13.3580 N   0  0  0  0  0  0  0  0  0  0  0  0
   -8.6239   37.5007  -13.4702 C   0  0  0  0  0  0  0  0  0  0  0  0
   -8.1715   36.9484  -14.6414 N   0  0  0  0  0  0  0  0  0  0  0  0
   -9.0212   36.8706  -15.7101 C   0  0  0  0  0  0  0  0  0  0  0  0
  -10.2790   37.3233  -15.6128 C   0  0  0  0  0  0  0  0  0  0  0  0
  -10.7278   37.8918  -14.4219 C   0  0  0  0  0  0  0  0  0  0  0  0
  -12.0201   38.4030  -14.1903 N   0  0  0  0  0  0  0  0  0  0  0  0
  -10.8827   37.1270  -16.8041 N   0  0  0  0  0  0  0  0  0  0  0  0
   -9.9799   36.5382  -17.6392 C   0  0  0  0  0  0  0  0  0  0  0  0
   -8.8269   36.3951  -16.9726 N   0  0  0  0  0  0  0  0  0  0  0  0
   -1.4995   40.5856  -14.8895 N   0  0  0  0  0  0  0  0  0  0  0  0
   -1.4364   39.3154  -15.3681 C   0  0  0  0  0  0  0  0  0  0  0  0
   -1.5430   38.2625  -14.5037 N   0  0  0  0  0  0  0  0  0  0  0  0
   -1.7168   38.4835  -13.1727 C   0  0  0  0  0  0  0  0  0  0  0  0
   -1.7849   39.7412  -12.6912 C   0  0  0  0  0  0  0  0  0  0  0  0
   -1.6715   40.8078  -13.5782 C   0  0  0  0  0  0  0  0  0  0  0  0
   -1.6962   42.2181  -13.2856 N   0  0  0  0  0  0  0  0  0  0  0  0
   -1.9559   39.6528  -11.3503 N   0  0  0  0  0  0  0  0  0  0  0  0
   -1.9982   38.3326  -11.0110 C   0  0  0  0  0  0  0  0  0  0  0  0
   -1.8525   37.6179  -12.1450 N   0  0  0  0  0  0  0  0  0  0  0  0
  1  3  1  6  0  0  0
  1  5  2  0  0  0  0
  1  9  1  0  0  0  0
  1 18  1  0  0  0  0
  2  4  1  1  0  0  0
  2  6  2  0  0  0  0
  2 10  1  0  0  0  0
  2 17  1  0  0  0  0
  7  9  1  0  0  0  0
  8 10  1  0  0  0  0
 11  7  1  1  0  0  0
 11 13  1  0  0  0  0
 11 15  1  0  0  0  0
 12  8  1  6  0  0  0
 12 14  1  0  0  0  0
 12 16  1  0  0  0  0
 13 23  1  0  0  0  0
 14 24  1  0  0  0  0
 15 17  1  6  0  0  0
 15 19  1  0  0  0  0
 16 18  1  1  0  0  0
 16 20  1  0  0  0  0
 19 21  1  6  0  0  0
 19 23  1  0  0  0  0
 20 22  1  1  0  0  0
 20 24  1  0  0  0  0
 23 34  1  1  0  0  0
 24 44  1  6  0  0  0
 25 26  2  0  0  0  0
 25 30  1  0  0  0  0
 26 27  1  0  0  0  0
 27 28  2  0  0  0  0
 28 29  1  0  0  0  0
 28 34  1  0  0  0  0
 29 30  2  0  0  0  0
 29 32  1  0  0  0  0
 30 31  1  0  0  0  0
 32 33  2  0  0  0  0
 33 34  1  0  0  0  0
 35 36  2  0  0  0  0
 35 40  1  0  0  0  0
 36 37  1  0  0  0  0
 37 38  2  0  0  0  0
 38 39  1  0  0  0  0
 38 44  1  0  0  0  0
 39 40  2  0  0  0  0
 39 42  1  0  0  0  0
 40 41  1  0  0  0  0
 42 43  2  0  0  0  0
 43 44  1  0  0  0  0
M  CHG  2   3  -1   4  -1
M  END
>  <CHROM.1>
61.55717500,8.10841416,-5.00218721,36.53358760,-14.76828845,3.06848957,-0.40605924
-0.70532534

>  <Name>
ligand

>  <RI>
0

>  <Rbt.Current_Directory>
/home/itssahil/PROJECTS/Mol_Feturizer/New_Systems/rnas/4QLM

>  <Rbt.Executable>
rbdock ($Id: //depot/dev/client3/rdock/2013.1/src/exe/rbdock.cxx#4 $)

>  <Rbt.Library>
libRbt.so (2013.1, Build901 2013/11/27)

>  <Rbt.Parameter_File>
/export/apps/rDock/src/rDock_2013.1_src/data/scripts/dock_solv.prm

>  <Rbt.Receptor>
prm/pocket_docking_7.prm

>  <SCORE>
-12.4265

>  <SCORE.INTER>
-11.077

>  <SCORE.INTER.CONST>
1

>  <SCORE.INTER.POLAR>
0

>  <SCORE.INTER.ROT>
2

>  <SCORE.INTER.SOLV>
17.5868

>  <SCORE.INTER.VDW>
-18.1803

>  <SCORE.INTER.norm>
-0.25175

>  <SCORE.INTRA>
-1.34944

>  <SCORE.INTRA.DIHEDRAL>
0.048087

>  <SCORE.INTRA.DIHEDRAL.0>
2.32994

>  <SCORE.INTRA.POLAR>
0

>  <SCORE.INTRA.POLAR.0>
0

>  <SCORE.INTRA.REPUL>
0

>  <SCORE.INTRA.REPUL.0>
0

>  <SCORE.INTRA.SOLV>
1.18957

>  <SCORE.INTRA.SOLV.lig_0>
-117.703

>  <SCORE.INTRA.VDW>
-1.96827

>  <SCORE.INTRA.VDW.0>
-1.59997

>  <SCORE.INTRA.norm>
-0.030669

>  <SCORE.RESTR>
0

>  <SCORE.RESTR.CAVITY>
0

>  <SCORE.RESTR.norm>
0

>  <SCORE.SYSTEM>
0

>  <SCORE.SYSTEM.CONST>
0

>  <SCORE.SYSTEM.DIHEDRAL>
0

>  <SCORE.SYSTEM.SOLV>
0

>  <SCORE.SYSTEM.norm>
0

>  <SCORE.heavy>
44

>  <SCORE.norm>
-0.282419

>  <RMSD>
6.973

$$$$
ligand
 OpenBabel11021811513D
libRbt.so/2013.1/901 2013/11/27
 44 50  0  0  0  0  0  0  0  0999 V2000
   -5.5800   33.8292  -13.1808 P   0  0  2  0  0  0  0  0  0  0  0  0
   -3.2807   36.7307  -17.1178 P   0  0  1  0  0  0  0  0  0  0  0  0
   -6.0889   32.3948  -13.2993 O   0  5  0  0  0  0  0  0  0  0  0  0
   -3.8959   38.1037  -16.9972 O   0  5  0  0  0  0  0  0  0  0  0  0
   -6.3808   34.4678  -12.0715 O   0  0  0  0  0  0  0  0  0  0  0  0
   -2.0639   36.8521  -18.0632 O   0  0  0  0  0  0  0  0  0  0  0  0
   -5.7783   33.5553  -15.6961 C   0  0  0  0  0  0  0  0  0  0  0  0
   -2.5230   34.8891  -15.4737 C   0  0  0  0  0  0  0  0  0  0  0  0
   -5.8266   34.4638  -14.5876 O   0  0  0  0  0  0  0  0  0  0  0  0
   -3.0181   36.2548  -15.5655 O   0  0  0  0  0  0  0  0  0  0  0  0
   -6.0814   34.2948  -16.9949 C   0  0  1  0  0  0  0  0  0  0  0  0
   -2.1942   34.6416  -13.9532 C   0  0  1  0  0  0  0  0  0  0  0  0
   -7.3695   34.3506  -17.1370 O   0  0  0  0  0  0  0  0  0  0  0  0
   -1.4584   35.6181  -13.6080 O   0  0  0  0  0  0  0  0  0  0  0  0
   -5.5828   35.7215  -16.9989 C   0  0  1  0  0  0  0  0  0  0  0  0
   -3.4480   34.8398  -13.0781 C   0  0  1  0  0  0  0  0  0  0  0  0
   -4.4163   35.7238  -17.6973 O   0  0  0  0  0  0  0  0  0  0  0  0
   -3.9911   33.6667  -12.7307 O   0  0  0  0  0  0  0  0  0  0  0  0
   -6.6928   36.4974  -17.7901 C   0  0  1  0  0  0  0  0  0  0  0  0
   -3.0056   35.6417  -11.8329 C   0  0  1  0  0  0  0  0  0  0  0  0
   -6.2437   36.7496  -19.1859 O   0  0  0  0  0  0  0  0  0  0  0  0
   -2.8635   34.7351  -10.6484 O   0  0  0  0  0  0  0  0  0  0  0  0
   -7.7518   35.7532  -17.7695 C   0  0  2  0  0  0  0  0  0  0  0  0
   -1.8540   36.1295  -12.1439 C   0  0  2  0  0  0  0  0  0  0  0  0
   -9.8735   37.9707  -13.3647 N   0  0  0  0  0  0  0  0  0  0  0  0
   -8.5976   37.5073  -13.4854 C   0  0  0  0  0  0  0  0  0  0  0  0
   -8.1500   36.9568  -14.6593 N   0  0  0  0  0  0  0  0  0  0  0  0
   -9.0067   36.8729  -15.7220 C   0  0  0  0  0  0  0  0  0  0  0  0
  -10.2666   37.3179  -15.6163 C   0  0  0  0  0  0  0  0  0  0  0  0
  -10.7105   37.8845  -14.4227 C   0  0  0  0  0  0  0  0  0  0  0  0
  -12.0043   38.3879  -14.1825 N   0  0  0  0  0  0  0  0  0  0  0  0
  -10.8773   37.1168  -16.8032 N   0  0  0  0  0  0  0  0  0  0  0  0
   -9.9767   36.5329  -17.6441 C   0  0  0  0  0  0  0  0  0  0  0  0
   -8.8183   36.3975  -16.9855 N   0  0  0  0  0  0  0  0  0  0  0  0
   -1.6219   40.5562  -14.8773 N   0  0  0  0  0  0  0  0  0  0  0  0
   -1.5867   39.2910  -15.3717 C   0  0  0  0  0  0  0  0  0  0  0  0
   -1.6510   38.2292  -14.5139 N   0  0  0  0  0  0  0  0  0  0  0  0
   -1.7552   38.4367  -13.1735 C   0  0  0  0  0  0  0  0  0  0  0  0
   -1.7953   39.6893  -12.6761 C   0  0  0  0  0  0  0  0  0  0  0  0
   -1.7253   40.7649  -13.5567 C   0  0  0  0  0  0  0  0  0  0  0  0
   -1.7316   42.1721  -13.2486 N   0  0  0  0  0  0  0  0  0  0  0  0
   -1.8970   39.5872  -11.3292 N   0  0  0  0  0  0  0  0  0  0  0  0
   -1.9248   38.2636  -11.0018 C   0  0  0  0  0  0  0  0  0  0  0  0
   -1.8396   37.5606  -12.1493 N   0  0  0  0  0  0  0  0  0  0  0  0
  1  3  1  6  0  0  0
  1  5  2  0  0  0  0
  1  9  1  0  0  0  0
  1 18  1  0  0  0  0
  2  4  1  1  0  0  0
  2  6  2  0  0  0  0
  2 10  1  0  0  0  0
  2 17  1  0  0  0  0
  7  9  1  0  0  0  0
  8 10  1  0  0  0  0
 11  7  1  1  0  0  0
 11 13  1  0  0  0  0
 11 15  1  0  0  0  0
 12  8  1  6  0  0  0
 12 14  1  0  0  0  0
 12 16  1  0  0  0  0
 13 23  1  0  0  0  0
 14 24  1  0  0  0  0
 15 17  1  6  0  0  0
 15 19  1  0  0  0  0
 16 18  1  1  0  0  0
 16 20  1  0  0  0  0
 19 21  1  6  0  0  0
 19 23  1  0  0  0  0
 20 22  1  1  0  0  0
 20 24  1  0  0  0  0
 23 34  1  1  0  0  0
 24 44  1  6  0  0  0
 25 26  2  0  0  0  0
 25 30  1  0  0  0  0
 26 27  1  0  0  0  0
 27 28  2  0  0  0  0
 28 29  1  0  0  0  0
 28 34  1  0  0  0  0
 29 30  2  0  0  0  0
 29 32  1  0  0  0  0
 30 31  1  0  0  0  0
 32 33  2  0  0  0  0
 33 34  1  0  0  0  0
 35 36  2  0  0  0  0
 35 40  1  0  0  0  0
 36 37  1  0  0  0  0
 37 38  2  0  0  0  0
 38 39  1  0  0  0  0
 38 44  1  0  0  0  0
 39 40  2  0  0  0  0
 39 42  1  0  0  0  0
 40 41  1  0  0  0  0
 42 43  2  0  0  0  0
 43 44  1  0  0  0  0
M  CHG  2   3  -1   4  -1
M  END
>  <CHROM.1>
62.40887488,11.04731261,-5.00218585,36.50984704,-14.78328097,3.07522282,-0.40858322
-0.66057499

>  <Name>
ligand

>  <RI>
0

>  <Rbt.Current_Directory>
/home/itssahil/PROJECTS/Mol_Feturizer/New_Systems/rnas/4QLM

>  <Rbt.Executable>
rbdock ($Id: //depot/dev/client3/rdock/2013.1/src/exe/rbdock.cxx#4 $)

>  <Rbt.Library>
libRbt.so (2013.1, Build901 2013/11/27)

>  <Rbt.Parameter_File>
/export/apps/rDock/src/rDock_2013.1_src/data/scripts/dock_solv.prm

>  <Rbt.Receptor>
prm/pocket_docking_8.prm

>  <SCORE>
-12.3706

>  <SCORE.INTER>
-11.0864

>  <SCORE.INTER.CONST>
1

>  <SCORE.INTER.POLAR>
0

>  <SCORE.INTER.ROT>
2

>  <SCORE.INTER.SOLV>
17.5299

>  <SCORE.INTER.VDW>
-18.1675

>  <SCORE.INTER.norm>
-0.251963

>  <SCORE.INTRA>
-1.28425

>  <SCORE.INTRA.DIHEDRAL>
0.0420336

>  <SCORE.INTRA.DIHEDRAL.0>
2.32994

>  <SCORE.INTRA.POLAR>
0

>  <SCORE.INTRA.POLAR.0>
0

>  <SCORE.INTRA.REPUL>
0

>  <SCORE.INTRA.REPUL.0>
0

>  <SCORE.INTRA.SOLV>
1.32146

>  <SCORE.INTRA.SOLV.lig_0>
-117.703

>  <SCORE.INTRA.VDW>
-1.966

>  <SCORE.INTRA.VDW.0>
-1.59997

>  <SCORE.INTRA.norm>
-0.0291875

>  <SCORE.RESTR>
0

>  <SCORE.RESTR.CAVITY>
0

>  <SCORE.RESTR.norm>
0

>  <SCORE.SYSTEM>
0

>  <SCORE.SYSTEM.CONST>
0

>  <SCORE.SYSTEM.DIHEDRAL>
0

>  <SCORE.SYSTEM.SOLV>
0

>  <SCORE.SYSTEM.norm>
0

>  <SCORE.heavy>
44

>  <SCORE.norm>
-0.28115

>  <RMSD>
6.973

$$$$
ligand
 OpenBabel11021811513D
libRbt.so/2013.1/901 2013/11/27
 44 50  0  0  0  0  0  0  0  0999 V2000
   -5.6117   33.8483  -13.1766 P   0  0  2  0  0  0  0  0  0  0  0  0
   -3.2783   36.7353  -17.1043 P   0  0  1  0  0  0  0  0  0  0  0  0
   -6.1262   32.4160  -13.2963 O   0  5  0  0  0  0  0  0  0  0  0  0
   -3.8882   38.1110  -16.9887 O   0  5  0  0  0  0  0  0  0  0  0  0
   -6.4157   34.4916  -12.0724 O   0  0  0  0  0  0  0  0  0  0  0  0
   -2.0560   36.8502  -18.0432 O   0  0  0  0  0  0  0  0  0  0  0  0
   -5.7975   33.5724  -15.6927 C   0  0  0  0  0  0  0  0  0  0  0  0
   -2.5377   34.8922  -15.4542 C   0  0  0  0  0  0  0  0  0  0  0  0
   -5.8479   34.4823  -14.5855 O   0  0  0  0  0  0  0  0  0  0  0  0
   -3.0263   36.2600  -15.5501 O   0  0  0  0  0  0  0  0  0  0  0  0
   -6.0904   34.3117  -16.9939 C   0  0  1  0  0  0  0  0  0  0  0  0
   -2.2182   34.6450  -13.9315 C   0  0  1  0  0  0  0  0  0  0  0  0
   -7.3773   34.3730  -17.1431 O   0  0  0  0  0  0  0  0  0  0  0  0
   -1.4801   35.6186  -13.5835 O   0  0  0  0  0  0  0  0  0  0  0  0
   -5.5854   35.7363  -16.9969 C   0  0  1  0  0  0  0  0  0  0  0  0
   -3.4759   34.8497  -13.0635 C   0  0  1  0  0  0  0  0  0  0  0  0
   -4.4152   35.7326  -17.6889 O   0  0  0  0  0  0  0  0  0  0  0  0
   -4.0260   33.6793  -12.7177 O   0  0  0  0  0  0  0  0  0  0  0  0
   -6.6877   36.5161  -17.7949 C   0  0  1  0  0  0  0  0  0  0  0  0
   -3.0367   35.6510  -11.8169 C   0  0  1  0  0  0  0  0  0  0  0  0
   -6.2299   36.7648  -19.1885 O   0  0  0  0  0  0  0  0  0  0  0  0
   -2.9050   34.7452  -10.6305 O   0  0  0  0  0  0  0  0  0  0  0  0
   -7.7501   35.7766  -17.7793 C   0  0  2  0  0  0  0  0  0  0  0  0
   -1.8813   36.1335  -12.1221 C   0  0  2  0  0  0  0  0  0  0  0  0
   -9.8132   38.2257  -13.4704 N   0  0  0  0  0  0  0  0  0  0  0  0
   -8.5201   37.8189  -13.6101 C   0  0  0  0  0  0  0  0  0  0  0  0
   -8.0900   37.2005  -14.7565 N   0  0  0  0  0  0  0  0  0  0  0  0
   -8.9820   36.9901  -15.7716 C   0  0  0  0  0  0  0  0  0  0  0  0
  -10.2587   37.3781  -15.6460 C   0  0  0  0  0  0  0  0  0  0  0  0
  -10.6852   38.0143  -14.4815 C   0  0  0  0  0  0  0  0  0  0  0  0
  -11.9937   38.4695  -14.2250 N   0  0  0  0  0  0  0  0  0  0  0  0
  -10.9038   37.0536  -16.7865 N   0  0  0  0  0  0  0  0  0  0  0  0
  -10.0069   36.4510  -17.6182 C   0  0  0  0  0  0  0  0  0  0  0  0
   -8.8180   36.4264  -17.0018 N   0  0  0  0  0  0  0  0  0  0  0  0
   -1.5728   40.5553  -14.8557 N   0  0  0  0  0  0  0  0  0  0  0  0
   -1.5327   39.2894  -15.3476 C   0  0  0  0  0  0  0  0  0  0  0  0
   -1.6195   38.2291  -14.4900 N   0  0  0  0  0  0  0  0  0  0  0  0
   -1.7510   38.4387  -13.1524 C   0  0  0  0  0  0  0  0  0  0  0  0
   -1.7961   39.6922  -12.6575 C   0  0  0  0  0  0  0  0  0  0  0  0
   -1.7030   40.7664  -13.5378 C   0  0  0  0  0  0  0  0  0  0  0  0
   -1.7096   42.1740  -13.2317 N   0  0  0  0  0  0  0  0  0  0  0  0
   -1.9264   39.5924  -11.3129 N   0  0  0  0  0  0  0  0  0  0  0  0
   -1.9668   38.2694  -10.9845 C   0  0  0  0  0  0  0  0  0  0  0  0
   -1.8606   37.5644  -12.1290 N   0  0  0  0  0  0  0  0  0  0  0  0
  1  3  1  6  0  0  0
  1  5  2  0  0  0  0
  1  9  1  0  0  0  0
  1 18  1  0  0  0  0
  2  4  1  1  0  0  0
  2  6  2  0  0  0  0
  2 10  1  0  0  0  0
  2 17  1  0  0  0  0
  7  9  1  0  0  0  0
  8 10  1  0  0  0  0
 11  7  1  1  0  0  0
 11 13  1  0  0  0  0
 11 15  1  0  0  0  0
 12  8  1  6  0  0  0
 12 14  1  0  0  0  0
 12 16  1  0  0  0  0
 13 23  1  0  0  0  0
 14 24  1  0  0  0  0
 15 17  1  6  0  0  0
 15 19  1  0  0  0  0
 16 18  1  1  0  0  0
 16 20  1  0  0  0  0
 19 21  1  6  0  0  0
 19 23  1  0  0  0  0
 20 22  1  1  0  0  0
 20 24  1  0  0  0  0
 23 34  1  1  0  0  0
 24 44  1  6  0  0  0
 25 26  2  0  0  0  0
 25 30  1  0  0  0  0
 26 27  1  0  0  0  0
 27 28  2  0  0  0  0
 28 29  1  0  0  0  0
 28 34  1  0  0  0  0
 29 30  2  0  0  0  0
 29 32  1  0  0  0  0
 30 31  1  0  0  0  0
 32 33  2  0  0  0  0
 33 34  1  0  0  0  0
 35 36  2  0  0  0  0
 35 40  1  0  0  0  0
 36 37  1  0  0  0  0
 37 38  2  0  0  0  0
 38 39  1  0  0  0  0
 38 44  1  0  0  0  0
 39 40  2  0  0  0  0
 39 42  1  0  0  0  0
 40 41  1  0  0  0  0
 42 43  2  0  0  0  0
 43 44  1  0  0  0  0
M  CHG  2   3  -1   4  -1
M  END
>  <CHROM.1>
68.48963260,10.15517640,-5.00496740,36.53921340,-14.78383856,3.10296811,-0.41677866
-0.56486093

>  <Name>
ligand

>  <RI>
0

>  <Rbt.Current_Directory>
/home/itssahil/PROJECTS/Mol_Feturizer/New_Systems/rnas/4QLM

>  <Rbt.Executable>
rbdock ($Id: //depot/dev/client3/rdock/2013.1/src/exe/rbdock.cxx#4 $)

>  <Rbt.Library>
libRbt.so (2013.1, Build901 2013/11/27)

>  <Rbt.Parameter_File>
/export/apps/rDock/src/rDock_2013.1_src/data/scripts/dock_solv.prm

>  <Rbt.Receptor>
prm/pocket_docking_8.prm

>  <SCORE>
-12.2108

>  <SCORE.INTER>
-10.9871

>  <SCORE.INTER.CONST>
1

>  <SCORE.INTER.POLAR>
0

>  <SCORE.INTER.ROT>
2

>  <SCORE.INTER.SOLV>
17.4804

>  <SCORE.INTER.VDW>
-18.0848

>  <SCORE.INTER.norm>
-0.249706

>  <SCORE.INTRA>
-1.2237

>  <SCORE.INTRA.DIHEDRAL>
0.0115659

>  <SCORE.INTRA.DIHEDRAL.0>
2.32994

>  <SCORE.INTRA.POLAR>
0

>  <SCORE.INTRA.POLAR.0>
0

>  <SCORE.INTRA.REPUL>
0

>  <SCORE.INTRA.REPUL.0>
0

>  <SCORE.INTRA.SOLV>
1.22041

>  <SCORE.INTRA.SOLV.lig_0>
-117.703

>  <SCORE.INTRA.VDW>
-1.83969

>  <SCORE.INTRA.VDW.0>
-1.59997

>  <SCORE.INTRA.norm>
-0.0278113

>  <SCORE.RESTR>
0

>  <SCORE.RESTR.CAVITY>
0

>  <SCORE.RESTR.norm>
0

>  <SCORE.SYSTEM>
0

>  <SCORE.SYSTEM.CONST>
0

>  <SCORE.SYSTEM.DIHEDRAL>
0

>  <SCORE.SYSTEM.SOLV>
0

>  <SCORE.SYSTEM.norm>
0

>  <SCORE.heavy>
44

>  <SCORE.norm>
-0.277517

>  <RMSD>
7.009

$$$$
ligand
 OpenBabel11021811513D
libRbt.so/2013.1/901 2013/11/27
 44 50  0  0  0  0  0  0  0  0999 V2000
   -5.1322   32.8565  -13.6511 P   0  0  2  0  0  0  0  0  0  0  0  0
   -4.6824   37.5009  -16.3775 P   0  0  1  0  0  0  0  0  0  0  0  0
   -4.7632   31.4689  -14.1695 O   0  5  0  0  0  0  0  0  0  0  0  0
   -5.9554   38.2531  -16.0745 O   0  5  0  0  0  0  0  0  0  0  0  0
   -6.1881   32.6418  -12.5935 O   0  0  0  0  0  0  0  0  0  0  0  0
   -3.7032   38.4985  -17.0370 O   0  0  0  0  0  0  0  0  0  0  0  0
   -5.0644   33.2408  -16.1589 C   0  0  0  0  0  0  0  0  0  0  0  0
   -3.0904   35.9484  -15.0646 C   0  0  0  0  0  0  0  0  0  0  0  0
   -5.6411   33.6356  -14.9068 O   0  0  0  0  0  0  0  0  0  0  0  0
   -4.2522   36.8170  -14.9450 O   0  0  0  0  0  0  0  0  0  0  0  0
   -5.6818   34.0445  -17.2983 C   0  0  1  0  0  0  0  0  0  0  0  0
   -2.7297   35.4920  -13.6007 C   0  0  1  0  0  0  0  0  0  0  0  0
   -6.7824   33.4588  -17.6561 O   0  0  0  0  0  0  0  0  0  0  0  0
   -2.6647   36.5649  -12.9235 O   0  0  0  0  0  0  0  0  0  0  0  0
   -6.0511   35.4552  -16.9010 C   0  0  1  0  0  0  0  0  0  0  0  0
   -3.9134   34.7524  -12.9458 C   0  0  1  0  0  0  0  0  0  0  0  0
   -5.0564   36.2611  -17.3586 O   0  0  0  0  0  0  0  0  0  0  0  0
   -3.7320   33.4263  -12.9666 O   0  0  0  0  0  0  0  0  0  0  0  0
   -7.3783   35.7252  -17.6921 C   0  0  1  0  0  0  0  0  0  0  0  0
   -4.0265   35.2784  -11.4968 C   0  0  1  0  0  0  0  0  0  0  0  0
   -7.0968   36.5554  -18.8941 O   0  0  0  0  0  0  0  0  0  0  0  0
   -3.4477   34.2883  -10.5325 O   0  0  0  0  0  0  0  0  0  0  0  0
   -7.8527   34.5682  -18.0265 C   0  0  2  0  0  0  0  0  0  0  0  0
   -3.3242   36.3589  -11.4798 C   0  0  2  0  0  0  0  0  0  0  0  0
  -13.1725   33.9202  -17.7083 N   0  0  0  0  0  0  0  0  0  0  0  0
  -12.4671   34.1514  -18.8511 C   0  0  0  0  0  0  0  0  0  0  0  0
  -11.1039   34.3020  -18.8261 N   0  0  0  0  0  0  0  0  0  0  0  0
  -10.4491   34.2198  -17.6283 C   0  0  0  0  0  0  0  0  0  0  0  0
  -11.1300   34.0000  -16.4950 C   0  0  0  0  0  0  0  0  0  0  0  0
  -12.5140   33.8387  -16.5305 C   0  0  0  0  0  0  0  0  0  0  0  0
  -13.3434   33.6037  -15.4162 N   0  0  0  0  0  0  0  0  0  0  0  0
  -10.2416   33.9621  -15.4794 N   0  0  0  0  0  0  0  0  0  0  0  0
   -8.9993   34.1695  -16.0016 C   0  0  0  0  0  0  0  0  0  0  0  0
   -9.1227   34.3113  -17.3278 N   0  0  0  0  0  0  0  0  0  0  0  0
   -7.9701   38.7113  -11.4315 N   0  0  0  0  0  0  0  0  0  0  0  0
   -7.6956   37.4598  -11.8842 C   0  0  0  0  0  0  0  0  0  0  0  0
   -6.4135   36.9899  -11.8332 N   0  0  0  0  0  0  0  0  0  0  0  0
   -5.4184   37.7673  -11.3274 C   0  0  0  0  0  0  0  0  0  0  0  0
   -5.6842   39.0084  -10.8721 C   0  0  0  0  0  0  0  0  0  0  0  0
   -6.9921   39.4806  -10.9314 C   0  0  0  0  0  0  0  0  0  0  0  0
   -7.4956   40.7673  -10.5240 N   0  0  0  0  0  0  0  0  0  0  0  0
   -4.5162   39.5390  -10.4370 N   0  0  0  0  0  0  0  0  0  0  0  0
   -3.5313   38.6140  -10.6224 C   0  0  0  0  0  0  0  0  0  0  0  0
   -4.0998   37.5212  -11.1706 N   0  0  0  0  0  0  0  0  0  0  0  0
  1  3  1  6  0  0  0
  1  5  2  0  0  0  0
  1  9  1  0  0  0  0
  1 18  1  0  0  0  0
  2  4  1  1  0  0  0
  2  6  2  0  0  0  0
  2 10  1  0  0  0  0
  2 17  1  0  0  0  0
  7  9  1  0  0  0  0
  8 10  1  0  0  0  0
 11  7  1  1  0  0  0
 11 13  1  0  0  0  0
 11 15  1  0  0  0  0
 12  8  1  6  0  0  0
 12 14  1  0  0  0  0
 12 16  1  0  0  0  0
 13 23  1  0  0  0  0
 14 24  1  0  0  0  0
 15 17  1  6  0  0  0
 15 19  1  0  0  0  0
 16 18  1  1  0  0  0
 16 20  1  0  0  0  0
 19 21  1  6  0  0  0
 19 23  1  0  0  0  0
 20 22  1  1  0  0  0
 20 24  1  0  0  0  0
 23 34  1  1  0  0  0
 24 44  1  6  0  0  0
 25 26  2  0  0  0  0
 25 30  1  0  0  0  0
 26 27  1  0  0  0  0
 27 28  2  0  0  0  0
 28 29  1  0  0  0  0
 28 34  1  0  0  0  0
 29 30  2  0  0  0  0
 29 32  1  0  0  0  0
 30 31  1  0  0  0  0
 32 33  2  0  0  0  0
 33 34  1  0  0  0  0
 35 36  2  0  0  0  0
 35 40  1  0  0  0  0
 36 37  1  0  0  0  0
 37 38  2  0  0  0  0
 38 39  1  0  0  0  0
 38 44  1  0  0  0  0
 39 40  2  0  0  0  0
 39 42  1  0  0  0  0
 40 41  1  0  0  0  0
 42 43  2  0  0  0  0
 43 44  1  0  0  0  0
M  CHG  2   3  -1   4  -1
M  END
>  <CHROM.1>
-129.99090659,95.54761050,-6.41306386,35.61107248,-14.64013636,-0.77510745
0.24315268,-2.30724091

>  <Name>
ligand

>  <RI>
0

>  <Rbt.Current_Directory>
/home/itssahil/PROJECTS/Mol_Feturizer/New_Systems/rnas/4QLM

>  <Rbt.Executable>
rbdock ($Id: //depot/dev/client3/rdock/2013.1/src/exe/rbdock.cxx#4 $)

>  <Rbt.Library>
libRbt.so (2013.1, Build901 2013/11/27)

>  <Rbt.Parameter_File>
/export/apps/rDock/src/rDock_2013.1_src/data/scripts/dock_solv.prm

>  <Rbt.Receptor>
prm/pocket_docking_5.prm

>  <SCORE>
-5.05919

>  <SCORE.INTER>
-5.91265

>  <SCORE.INTER.CONST>
1

>  <SCORE.INTER.POLAR>
0

>  <SCORE.INTER.ROT>
2

>  <SCORE.INTER.SOLV>
23.2744

>  <SCORE.INTER.VDW>
-16.6332

>  <SCORE.INTER.norm>
-0.134378

>  <SCORE.INTRA>
0.171752

>  <SCORE.INTRA.DIHEDRAL>
0.0363219

>  <SCORE.INTRA.DIHEDRAL.0>
2.32994

>  <SCORE.INTRA.POLAR>
0

>  <SCORE.INTRA.POLAR.0>
0

>  <SCORE.INTRA.REPUL>
0

>  <SCORE.INTRA.REPUL.0>
0

>  <SCORE.INTRA.SOLV>
0.0218644

>  <SCORE.INTRA.SOLV.lig_0>
-117.703

>  <SCORE.INTRA.VDW>
0.142659

>  <SCORE.INTRA.VDW.0>
-1.59997

>  <SCORE.INTRA.norm>
0.00390345

>  <SCORE.RESTR>
0.681715

>  <SCORE.RESTR.CAVITY>
0.681715

>  <SCORE.RESTR.norm>
0.0154935

>  <SCORE.SYSTEM>
0

>  <SCORE.SYSTEM.CONST>
0

>  <SCORE.SYSTEM.DIHEDRAL>
0

>  <SCORE.SYSTEM.SOLV>
0

>  <SCORE.SYSTEM.norm>
0

>  <SCORE.heavy>
44

>  <SCORE.norm>
-0.114982

>  <RMSD>
7.010

$$$$
ligand
 OpenBabel11021811513D
libRbt.so/2013.1/901 2013/11/27
 44 50  0  0  0  0  0  0  0  0999 V2000
   -5.3798   32.8282  -13.6372 P   0  0  2  0  0  0  0  0  0  0  0  0
   -5.8775   37.9393  -15.3208 P   0  0  1  0  0  0  0  0  0  0  0  0
   -4.6655   31.7014  -14.3793 O   0  5  0  0  0  0  0  0  0  0  0  0
   -7.3070   38.3118  -15.0113 O   0  5  0  0  0  0  0  0  0  0  0  0
   -6.4150   32.1634  -12.7620 O   0  0  0  0  0  0  0  0  0  0  0  0
   -5.1239   39.2453  -15.6605 O   0  0  0  0  0  0  0  0  0  0  0  0
   -5.2591   33.7556  -15.9966 C   0  0  0  0  0  0  0  0  0  0  0  0
   -4.0439   36.5222  -14.1816 C   0  0  0  0  0  0  0  0  0  0  0  0
   -5.9841   33.7326  -14.7596 O   0  0  0  0  0  0  0  0  0  0  0  0
   -5.3823   37.0697  -14.0156 O   0  0  0  0  0  0  0  0  0  0  0  0
   -5.9812   34.6345  -17.0123 C   0  0  1  0  0  0  0  0  0  0  0  0
   -3.6713   35.8470  -12.8079 C   0  0  1  0  0  0  0  0  0  0  0  0
   -6.8906   33.9159  -17.5946 O   0  0  0  0  0  0  0  0  0  0  0  0
   -3.8998   36.7342  -11.9277 O   0  0  0  0  0  0  0  0  0  0  0  0
   -6.6942   35.8096  -16.3837 C   0  0  1  0  0  0  0  0  0  0  0  0
   -4.6838   34.7431  -12.4431 C   0  0  1  0  0  0  0  0  0  0  0  0
   -5.8921   36.8925  -16.5632 O   0  0  0  0  0  0  0  0  0  0  0  0
   -4.1949   33.5255  -12.7081 O   0  0  0  0  0  0  0  0  0  0  0  0
   -7.9996   35.9503  -17.2418 C   0  0  1  0  0  0  0  0  0  0  0  0
   -5.0012   34.9028  -10.9387 C   0  0  1  0  0  0  0  0  0  0  0  0
   -7.8520   37.0636  -18.2176 O   0  0  0  0  0  0  0  0  0  0  0  0
   -4.2626   33.8763  -10.1349 O   0  0  0  0  0  0  0  0  0  0  0  0
   -8.1685   34.8193  -17.8484 C   0  0  2  0  0  0  0  0  0  0  0  0
   -4.5748   36.0798  -10.6324 C   0  0  2  0  0  0  0  0  0  0  0  0
  -10.8660   30.9937  -15.2199 N   0  0  0  0  0  0  0  0  0  0  0  0
   -9.5096   31.0949  -15.3037 C   0  0  0  0  0  0  0  0  0  0  0  0
   -8.9152   32.1152  -16.0017 N   0  0  0  0  0  0  0  0  0  0  0  0
   -9.7054   33.0419  -16.6239 C   0  0  0  0  0  0  0  0  0  0  0  0
  -11.0409   32.9515  -16.5565 C   0  0  0  0  0  0  0  0  0  0  0  0
  -11.6367   31.9170  -15.8372 C   0  0  0  0  0  0  0  0  0  0  0  0
  -13.0224   31.7100  -15.6890 N   0  0  0  0  0  0  0  0  0  0  0  0
  -11.5611   33.9874  -17.2484 N   0  0  0  0  0  0  0  0  0  0  0  0
  -10.5252   34.7171  -17.7519 C   0  0  0  0  0  0  0  0  0  0  0  0
   -9.3807   34.1462  -17.3539 N   0  0  0  0  0  0  0  0  0  0  0  0
   -9.6167   37.3803  -10.7229 N   0  0  0  0  0  0  0  0  0  0  0  0
   -9.0255   36.3640  -11.4040 C   0  0  0  0  0  0  0  0  0  0  0  0
   -7.6806   36.1585  -11.2763 N   0  0  0  0  0  0  0  0  0  0  0  0
   -6.9384   36.9625  -10.4681 C   0  0  0  0  0  0  0  0  0  0  0  0
   -7.5190   37.9701   -9.7856 C   0  0  0  0  0  0  0  0  0  0  0  0
   -8.8887   38.1747   -9.9246 C   0  0  0  0  0  0  0  0  0  0  0  0
   -9.7058   39.1908   -9.3121 N   0  0  0  0  0  0  0  0  0  0  0  0
   -6.5467   38.5923   -9.0767 N   0  0  0  0  0  0  0  0  0  0  0  0
   -5.3652   37.9573   -9.3233 C   0  0  0  0  0  0  0  0  0  0  0  0
   -5.6185   36.9493  -10.1823 N   0  0  0  0  0  0  0  0  0  0  0  0
  1  3  1  6  0  0  0
  1  5  2  0  0  0  0
  1  9  1  0  0  0  0
  1 18  1  0  0  0  0
  2  4  1  1  0  0  0
  2  6  2  0  0  0  0
  2 10  1  0  0  0  0
  2 17  1  0  0  0  0
  7  9  1  0  0  0  0
  8 10  1  0  0  0  0
 11  7  1  1  0  0  0
 11 13  1  0  0  0  0
 11 15  1  0  0  0  0
 12  8  1  6  0  0  0
 12 14  1  0  0  0  0
 12 16  1  0  0  0  0
 13 23  1  0  0  0  0
 14 24  1  0  0  0  0
 15 17  1  6  0  0  0
 15 19  1  0  0  0  0
 16 18  1  1  0  0  0
 16 20  1  0  0  0  0
 19 21  1  6  0  0  0
 19 23  1  0  0  0  0
 20 22  1  1  0  0  0
 20 24  1  0  0  0  0
 23 34  1  1  0  0  0
 24 44  1  6  0  0  0
 25 26  2  0  0  0  0
 25 30  1  0  0  0  0
 26 27  1  0  0  0  0
 27 28  2  0  0  0  0
 28 29  1  0  0  0  0
 28 34  1  0  0  0  0
 29 30  2  0  0  0  0
 29 32  1  0  0  0  0
 30 31  1  0  0  0  0
 32 33  2  0  0  0  0
 33 34  1  0  0  0  0
 35 36  2  0  0  0  0
 35 40  1  0  0  0  0
 36 37  1  0  0  0  0
 37 38  2  0  0  0  0
 38 39  1  0  0  0  0
 38 44  1  0  0  0  0
 39 40  2  0  0  0  0
 39 42  1  0  0  0  0
 40 41  1  0  0  0  0
 42 43  2  0  0  0  0
 43 44  1  0  0  0  0
M  CHG  2   3  -1   4  -1
M  END
>  <CHROM.1>
8.70249046,92.57670289,-7.05261306,35.25160670,-13.99973989,-2.07188880,0.22476590
1.11180169

>  <Name>
ligand

>  <RI>
0

>  <Rbt.Current_Directory>
/home/itssahil/PROJECTS/Mol_Feturizer/New_Systems/rnas/4QLM

>  <Rbt.Executable>
rbdock ($Id: //depot/dev/client3/rdock/2013.1/src/exe/rbdock.cxx#4 $)

>  <Rbt.Library>
libRbt.so (2013.1, Build901 2013/11/27)

>  <Rbt.Parameter_File>
/export/apps/rDock/src/rDock_2013.1_src/data/scripts/dock_solv.prm

>  <Rbt.Receptor>
prm/pocket_docking_7.prm

>  <SCORE>
-9.65596

>  <SCORE.INTER>
-9.11787

>  <SCORE.INTER.CONST>
1

>  <SCORE.INTER.POLAR>
0

>  <SCORE.INTER.ROT>
2

>  <SCORE.INTER.SOLV>
26.5004

>  <SCORE.INTER.VDW>
-19.8454

>  <SCORE.INTER.norm>
-0.207224

>  <SCORE.INTRA>
-0.538093

>  <SCORE.INTRA.DIHEDRAL>
0.134911

>  <SCORE.INTRA.DIHEDRAL.0>
2.32994

>  <SCORE.INTRA.POLAR>
0

>  <SCORE.INTRA.POLAR.0>
0

>  <SCORE.INTRA.REPUL>
0

>  <SCORE.INTRA.REPUL.0>
0

>  <SCORE.INTRA.SOLV>
0.0733331

>  <SCORE.INTRA.SOLV.lig_0>
-117.703

>  <SCORE.INTRA.VDW>
-0.642215

>  <SCORE.INTRA.VDW.0>
-1.59997

>  <SCORE.INTRA.norm>
-0.0122294

>  <SCORE.RESTR>
0

>  <SCORE.RESTR.CAVITY>
0

>  <SCORE.RESTR.norm>
0

>  <SCORE.SYSTEM>
0

>  <SCORE.SYSTEM.CONST>
0

>  <SCORE.SYSTEM.DIHEDRAL>
0

>  <SCORE.SYSTEM.SOLV>
0

>  <SCORE.SYSTEM.norm>
0

>  <SCORE.heavy>
44

>  <SCORE.norm>
-0.219454

>  <RMSD>
7.034

$$$$
ligand
 OpenBabel11021811513D
libRbt.so/2013.1/901 2013/11/27
 44 50  0  0  0  0  0  0  0  0999 V2000
   -5.5433   33.7995  -13.2138 P   0  0  2  0  0  0  0  0  0  0  0  0
   -3.2427   36.7403  -17.1208 P   0  0  1  0  0  0  0  0  0  0  0  0
   -6.0173   32.3535  -13.3360 O   0  5  0  0  0  0  0  0  0  0  0  0
   -3.8909   38.0993  -17.0157 O   0  5  0  0  0  0  0  0  0  0  0  0
   -6.3774   34.4231  -12.1207 O   0  0  0  0  0  0  0  0  0  0  0  0
   -2.0129   36.8863  -18.0456 O   0  0  0  0  0  0  0  0  0  0  0  0
   -5.6918   33.5133  -15.7311 C   0  0  0  0  0  0  0  0  0  0  0  0
   -2.4720   34.9215  -15.4576 C   0  0  0  0  0  0  0  0  0  0  0  0
   -5.7799   34.4239  -14.6269 O   0  0  0  0  0  0  0  0  0  0  0  0
   -2.9962   36.2753  -15.5626 O   0  0  0  0  0  0  0  0  0  0  0  0
   -5.9892   34.2416  -17.0375 C   0  0  1  0  0  0  0  0  0  0  0  0
   -2.1639   34.6862  -13.9307 C   0  0  1  0  0  0  0  0  0  0  0  0
   -7.2755   34.2678  -17.2020 O   0  0  0  0  0  0  0  0  0  0  0  0
   -1.4566   35.6803  -13.5764 O   0  0  0  0  0  0  0  0  0  0  0  0
   -5.5231   35.6794  -17.0380 C   0  0  1  0  0  0  0  0  0  0  0  0
   -3.4368   34.8586  -13.0780 C   0  0  1  0  0  0  0  0  0  0  0  0
   -4.3451   35.7059  -17.7162 O   0  0  0  0  0  0  0  0  0  0  0  0
   -3.9591   33.6745  -12.7359 O   0  0  0  0  0  0  0  0  0  0  0  0
   -6.6366   36.4273  -17.8509 C   0  0  1  0  0  0  0  0  0  0  0  0
   -3.0343   35.6742  -11.8282 C   0  0  1  0  0  0  0  0  0  0  0  0
   -6.1692   36.6854  -19.2396 O   0  0  0  0  0  0  0  0  0  0  0  0
   -2.8921   34.7748  -10.6382 O   0  0  0  0  0  0  0  0  0  0  0  0
   -7.6786   35.6593  -17.8459 C   0  0  2  0  0  0  0  0  0  0  0  0
   -1.8888   36.1872  -12.1211 C   0  0  2  0  0  0  0  0  0  0  0  0
   -9.7662   38.5280  -13.8167 N   0  0  0  0  0  0  0  0  0  0  0  0
   -8.4398   38.2885  -14.0178 C   0  0  0  0  0  0  0  0  0  0  0  0
   -8.0066   37.5410  -15.0832 N   0  0  0  0  0  0  0  0  0  0  0  0
   -8.9290   37.0284  -15.9530 C   0  0  0  0  0  0  0  0  0  0  0  0
  -10.2375   37.2493  -15.7643 C   0  0  0  0  0  0  0  0  0  0  0  0
  -10.6686   38.0179  -14.6845 C   0  0  0  0  0  0  0  0  0  0  0  0
  -12.0088   38.3233  -14.3753 N   0  0  0  0  0  0  0  0  0  0  0  0
  -10.9086   36.6378  -16.7632 N   0  0  0  0  0  0  0  0  0  0  0  0
   -9.9942   36.0278  -17.5701 C   0  0  0  0  0  0  0  0  0  0  0  0
   -8.7728   36.2817  -17.0825 N   0  0  0  0  0  0  0  0  0  0  0  0
   -1.5346   40.6117  -14.8446 N   0  0  0  0  0  0  0  0  0  0  0  0
   -1.4299   39.3466  -15.3292 C   0  0  0  0  0  0  0  0  0  0  0  0
   -1.5400   38.2856  -14.4752 N   0  0  0  0  0  0  0  0  0  0  0  0
   -1.7587   38.4936  -13.1487 C   0  0  0  0  0  0  0  0  0  0  0  0
   -1.8682   39.7461  -12.6615 C   0  0  0  0  0  0  0  0  0  0  0  0
   -1.7508   40.8211  -13.5378 C   0  0  0  0  0  0  0  0  0  0  0  0
   -1.8145   42.2284  -13.2372 N   0  0  0  0  0  0  0  0  0  0  0  0
   -2.0777   39.6447  -11.3270 N   0  0  0  0  0  0  0  0  0  0  0  0
   -2.1020   38.3216  -10.9976 C   0  0  0  0  0  0  0  0  0  0  0  0
   -1.9068   37.6181  -12.1312 N   0  0  0  0  0  0  0  0  0  0  0  0
  1  3  1  6  0  0  0
  1  5  2  0  0  0  0
  1  9  1  0  0  0  0
  1 18  1  0  0  0  0
  2  4  1  1  0  0  0
  2  6  2  0  0  0  0
  2 10  1  0  0  0  0
  2 17  1  0  0  0  0
  7  9  1  0  0  0  0
  8 10  1  0  0  0  0
 11  7  1  1  0  0  0
 11 13  1  0  0  0  0
 11 15  1  0  0  0  0
 12  8  1  6  0  0  0
 12 14  1  0  0  0  0
 12 16  1  0  0  0  0
 13 23  1  0  0  0  0
 14 24  1  0  0  0  0
 15 17  1  6  0  0  0
 15 19  1  0  0  0  0
 16 18  1  1  0  0  0
 16 20  1  0  0  0  0
 19 21  1  6  0  0  0
 19 23  1  0  0  0  0
 20 22  1  1  0  0  0
 20 24  1  0  0  0  0
 23 34  1  1  0  0  0
 24 44  1  6  0  0  0
 25 26  2  0  0  0  0
 25 30  1  0  0  0  0
 26 27  1  0  0  0  0
 27 28  2  0  0  0  0
 28 29  1  0  0  0  0
 28 34  1  0  0  0  0
 29 30  2  0  0  0  0
 29 32  1  0  0  0  0
 30 31  1  0  0  0  0
 32 33  2  0  0  0  0
 33 34  1  0  0  0  0
 35 36  2  0  0  0  0
 35 40  1  0  0  0  0
 36 37  1  0  0  0  0
 37 38  2  0  0  0  0
 38 39  1  0  0  0  0
 38 44  1  0  0  0  0
 39 40  2  0  0  0  0
 39 42  1  0  0  0  0
 40 41  1  0  0  0  0
 42 43  2  0  0  0  0
 43 44  1  0  0  0  0
M  CHG  2   3  -1   4  -1
M  END
>  <CHROM.1>
81.94000128,7.32675911,-4.97352567,36.53438207,-14.83500387,-3.08454511,-0.43979732
-0.35679592

>  <Name>
ligand

>  <RI>
0

>  <Rbt.Current_Directory>
/home/itssahil/PROJECTS/Mol_Feturizer/New_Systems/rnas/4QLM

>  <Rbt.Executable>
rbdock ($Id: //depot/dev/client3/rdock/2013.1/src/exe/rbdock.cxx#4 $)

>  <Rbt.Library>
libRbt.so (2013.1, Build901 2013/11/27)

>  <Rbt.Parameter_File>
/export/apps/rDock/src/rDock_2013.1_src/data/scripts/dock_solv.prm

>  <Rbt.Receptor>
prm/pocket_docking_8.prm

>  <SCORE>
-12.0738

>  <SCORE.INTER>
-10.9813

>  <SCORE.INTER.CONST>
1

>  <SCORE.INTER.POLAR>
0

>  <SCORE.INTER.ROT>
2

>  <SCORE.INTER.SOLV>
18.0687

>  <SCORE.INTER.VDW>
-18.2771

>  <SCORE.INTER.norm>
-0.249575

>  <SCORE.INTRA>
-1.09252

>  <SCORE.INTRA.DIHEDRAL>
-0.0327583

>  <SCORE.INTRA.DIHEDRAL.0>
2.32994

>  <SCORE.INTRA.POLAR>
0

>  <SCORE.INTRA.POLAR.0>
0

>  <SCORE.INTRA.REPUL>
0

>  <SCORE.INTRA.REPUL.0>
0

>  <SCORE.INTRA.SOLV>
1.07687

>  <SCORE.INTRA.SOLV.lig_0>
-117.703

>  <SCORE.INTRA.VDW>
-1.61458

>  <SCORE.INTRA.VDW.0>
-1.59997

>  <SCORE.INTRA.norm>
-0.02483

>  <SCORE.RESTR>
0

>  <SCORE.RESTR.CAVITY>
0

>  <SCORE.RESTR.norm>
0

>  <SCORE.SYSTEM>
0

>  <SCORE.SYSTEM.CONST>
0

>  <SCORE.SYSTEM.DIHEDRAL>
0

>  <SCORE.SYSTEM.SOLV>
0

>  <SCORE.SYSTEM.norm>
0

>  <SCORE.heavy>
44

>  <SCORE.norm>
-0.274405

>  <RMSD>
7.040

$$$$
ligand
 OpenBabel11021811513D
libRbt.so/2013.1/901 2013/11/27
 44 50  0  0  0  0  0  0  0  0999 V2000
   -5.5217   33.9960  -13.0856 P   0  0  2  0  0  0  0  0  0  0  0  0
   -3.2782   36.6374  -17.2322 P   0  0  1  0  0  0  0  0  0  0  0  0
   -6.0706   32.5718  -13.1165 O   0  5  0  0  0  0  0  0  0  0  0  0
   -3.8538   38.0308  -17.1612 O   0  5  0  0  0  0  0  0  0  0  0  0
   -6.2695   34.7096  -11.9851 O   0  0  0  0  0  0  0  0  0  0  0  0
   -2.0901   36.6792  -18.2200 O   0  0  0  0  0  0  0  0  0  0  0  0
   -5.8086   33.6045  -15.5767 C   0  0  0  0  0  0  0  0  0  0  0  0
   -2.5148   34.8588  -15.5229 C   0  0  0  0  0  0  0  0  0  0  0  0
   -5.7976   34.5672  -14.5139 O   0  0  0  0  0  0  0  0  0  0  0  0
   -2.9775   36.2313  -15.6672 O   0  0  0  0  0  0  0  0  0  0  0  0
   -6.1348   34.2873  -16.9006 C   0  0  1  0  0  0  0  0  0  0  0  0
   -2.1432   34.6773  -14.0028 C   0  0  1  0  0  0  0  0  0  0  0  0
   -7.4249   34.3711  -17.0052 O   0  0  0  0  0  0  0  0  0  0  0  0
   -1.3718   35.6492  -13.7299 O   0  0  0  0  0  0  0  0  0  0  0  0
   -5.6002   35.6981  -16.9914 C   0  0  1  0  0  0  0  0  0  0  0  0
   -3.3624   34.9521  -13.1001 C   0  0  1  0  0  0  0  0  0  0  0  0
   -4.4574   35.6344  -17.7251 O   0  0  0  0  0  0  0  0  0  0  0  0
   -3.9237   33.8126  -12.6777 O   0  0  0  0  0  0  0  0  0  0  0  0
   -6.7152   36.4641  -17.7853 C   0  0  1  0  0  0  0  0  0  0  0  0
   -2.8593   35.8018  -11.9108 C   0  0  1  0  0  0  0  0  0  0  0  0
   -6.3054   36.6353  -19.2052 O   0  0  0  0  0  0  0  0  0  0  0  0
   -2.7020   34.9508  -10.6875 O   0  0  0  0  0  0  0  0  0  0  0  0
   -7.7916   35.7508  -17.6946 C   0  0  2  0  0  0  0  0  0  0  0  0
   -1.7063   36.2424  -12.2815 C   0  0  2  0  0  0  0  0  0  0  0  0
   -9.7239   38.2072  -13.3295 N   0  0  0  0  0  0  0  0  0  0  0  0
   -8.4681   37.6949  -13.4627 C   0  0  0  0  0  0  0  0  0  0  0  0
   -8.0695   37.0849  -14.6248 N   0  0  0  0  0  0  0  0  0  0  0  0
   -8.9552   36.9909  -15.6626 C   0  0  0  0  0  0  0  0  0  0  0  0
  -10.1960   37.4835  -15.5439 C   0  0  0  0  0  0  0  0  0  0  0  0
  -10.5899   38.1103  -14.3630 C   0  0  0  0  0  0  0  0  0  0  0  0
  -11.8592   38.6676  -14.1114 N   0  0  0  0  0  0  0  0  0  0  0  0
  -10.8432   37.2591  -16.7071 N   0  0  0  0  0  0  0  0  0  0  0  0
   -9.9847   36.6124  -17.5461 C   0  0  0  0  0  0  0  0  0  0  0  0
   -8.8152   36.4615  -16.9108 N   0  0  0  0  0  0  0  0  0  0  0  0
   -3.6166   40.6497  -14.2931 N   0  0  0  0  0  0  0  0  0  0  0  0
   -4.0333   39.3845  -14.5613 C   0  0  0  0  0  0  0  0  0  0  0  0
   -3.4180   38.3278  -13.9512 N   0  0  0  0  0  0  0  0  0  0  0  0
   -2.3984   38.5406  -13.0763 C   0  0  0  0  0  0  0  0  0  0  0  0
   -1.9826   39.7936  -12.8018 C   0  0  0  0  0  0  0  0  0  0  0  0
   -2.6122   40.8638  -13.4307 C   0  0  0  0  0  0  0  0  0  0  0  0
   -2.3231   42.2693  -13.3032 N   0  0  0  0  0  0  0  0  0  0  0  0
   -0.9662   39.6973  -11.9116 N   0  0  0  0  0  0  0  0  0  0  0  0
   -0.7632   38.3771  -11.6360 C   0  0  0  0  0  0  0  0  0  0  0  0
   -1.6556   37.6705  -12.3587 N   0  0  0  0  0  0  0  0  0  0  0  0
  1  3  1  6  0  0  0
  1  5  2  0  0  0  0
  1  9  1  0  0  0  0
  1 18  1  0  0  0  0
  2  4  1  1  0  0  0
  2  6  2  0  0  0  0
  2 10  1  0  0  0  0
  2 17  1  0  0  0  0
  7  9  1  0  0  0  0
  8 10  1  0  0  0  0
 11  7  1  1  0  0  0
 11 13  1  0  0  0  0
 11 15  1  0  0  0  0
 12  8  1  6  0  0  0
 12 14  1  0  0  0  0
 12 16  1  0  0  0  0
 13 23  1  0  0  0  0
 14 24  1  0  0  0  0
 15 17  1  6  0  0  0
 15 19  1  0  0  0  0
 16 18  1  1  0  0  0
 16 20  1  0  0  0  0
 19 21  1  6  0  0  0
 19 23  1  0  0  0  0
 20 22  1  1  0  0  0
 20 24  1  0  0  0  0
 23 34  1  1  0  0  0
 24 44  1  6  0  0  0
 25 26  2  0  0  0  0
 25 30  1  0  0  0  0
 26 27  1  0  0  0  0
 27 28  2  0  0  0  0
 28 29  1  0  0  0  0
 28 34  1  0  0  0  0
 29 30  2  0  0  0  0
 29 32  1  0  0  0  0
 30 31  1  0  0  0  0
 32 33  2  0  0  0  0
 33 34  1  0  0  0  0
 35 36  2  0  0  0  0
 35 40  1  0  0  0  0
 36 37  1  0  0  0  0
 37 38  2  0  0  0  0
 38 39  1  0  0  0  0
 38 44  1  0  0  0  0
 39 40  2  0  0  0  0
 39 42  1  0  0  0  0
 40 41  1  0  0  0  0
 42 43  2  0  0  0  0
 43 44  1  0  0  0  0
M  CHG  2   3  -1   4  -1
M  END
>  <CHROM.1>
61.51551878,62.56726941,-5.09480844,36.58581028,-14.76321185,-2.94314091
-0.37725191,0.17153268

>  <Name>
ligand

>  <RI>
0

>  <Rbt.Current_Directory>
/home/itssahil/PROJECTS/Mol_Feturizer/New_Systems/rnas/4QLM

>  <Rbt.Executable>
rbdock ($Id: //depot/dev/client3/rdock/2013.1/src/exe/rbdock.cxx#4 $)

>  <Rbt.Library>
libRbt.so (2013.1, Build901 2013/11/27)

>  <Rbt.Parameter_File>
/export/apps/rDock/src/rDock_2013.1_src/data/scripts/dock_solv.prm

>  <Rbt.Receptor>
prm/pocket_docking_7.prm

>  <SCORE>
-10.7965

>  <SCORE.INTER>
-8.9487

>  <SCORE.INTER.CONST>
1

>  <SCORE.INTER.POLAR>
0

>  <SCORE.INTER.ROT>
2

>  <SCORE.INTER.SOLV>
16.4997

>  <SCORE.INTER.VDW>
-16.399

>  <SCORE.INTER.norm>
-0.20338

>  <SCORE.INTRA>
-1.84784

>  <SCORE.INTRA.DIHEDRAL>
0.0540569

>  <SCORE.INTRA.DIHEDRAL.0>
2.32994

>  <SCORE.INTRA.POLAR>
0

>  <SCORE.INTRA.POLAR.0>
0

>  <SCORE.INTRA.REPUL>
0

>  <SCORE.INTRA.REPUL.0>
0

>  <SCORE.INTRA.SOLV>
0.958119

>  <SCORE.INTRA.SOLV.lig_0>
-117.703

>  <SCORE.INTRA.VDW>
-2.35393

>  <SCORE.INTRA.VDW.0>
-1.59997

>  <SCORE.INTRA.norm>
-0.0419964

>  <SCORE.RESTR>
0

>  <SCORE.RESTR.CAVITY>
0

>  <SCORE.RESTR.norm>
0

>  <SCORE.SYSTEM>
0

>  <SCORE.SYSTEM.CONST>
0

>  <SCORE.SYSTEM.DIHEDRAL>
0

>  <SCORE.SYSTEM.SOLV>
0

>  <SCORE.SYSTEM.norm>
0

>  <SCORE.heavy>
44

>  <SCORE.norm>
-0.245376

>  <RMSD>
7.081

$$$$
ligand
 OpenBabel11021811513D
libRbt.so/2013.1/901 2013/11/27
 44 50  0  0  0  0  0  0  0  0999 V2000
   -7.7865   36.2103  -16.5649 P   0  0  2  0  0  0  0  0  0  0  0  0
  -10.0301   31.7807  -14.4316 P   0  0  1  0  0  0  0  0  0  0  0  0
   -6.5130   36.2589  -17.4052 O   0  5  0  0  0  0  0  0  0  0  0  0
  -10.4361   32.1859  -13.0355 O   0  5  0  0  0  0  0  0  0  0  0  0
   -7.9154   37.5694  -15.9201 O   0  0  0  0  0  0  0  0  0  0  0  0
  -10.7149   30.4291  -14.7370 O   0  0  0  0  0  0  0  0  0  0  0  0
   -6.7096   33.9816  -16.0041 C   0  0  0  0  0  0  0  0  0  0  0  0
   -9.9854   32.9153  -16.7509 C   0  0  0  0  0  0  0  0  0  0  0  0
   -7.5567   35.0453  -15.5487 O   0  0  0  0  0  0  0  0  0  0  0  0
  -10.4112   33.0776  -15.3685 O   0  0  0  0  0  0  0  0  0  0  0  0
   -6.5339   32.9418  -14.9026 C   0  0  1  0  0  0  0  0  0  0  0  0
  -10.5429   34.1642  -17.5325 C   0  0  1  0  0  0  0  0  0  0  0  0
   -5.5717   33.3339  -14.1263 O   0  0  0  0  0  0  0  0  0  0  0  0
  -11.7783   34.2157  -17.2408 O   0  0  0  0  0  0  0  0  0  0  0  0
   -7.7580   32.7850  -14.0300 C   0  0  1  0  0  0  0  0  0  0  0  0
  -10.0011   35.4773  -16.9330 C   0  0  1  0  0  0  0  0  0  0  0  0
   -8.4093   31.6755  -14.4696 O   0  0  0  0  0  0  0  0  0  0  0  0
   -9.0010   35.9746  -17.6708 O   0  0  0  0  0  0  0  0  0  0  0  0
   -7.1620   32.5362  -12.6007 C   0  0  1  0  0  0  0  0  0  0  0  0
  -11.1888   36.4641  -16.8637 C   0  0  1  0  0  0  0  0  0  0  0  0
   -7.2206   31.0874  -12.2676 O   0  0  0  0  0  0  0  0  0  0  0  0
  -11.1103   37.4589  -17.9814 O   0  0  0  0  0  0  0  0  0  0  0  0
   -5.9384   32.9576  -12.6305 C   0  0  2  0  0  0  0  0  0  0  0  0
  -12.2387   35.7312  -17.0108 C   0  0  2  0  0  0  0  0  0  0  0  0
   -7.3624   37.6905  -10.5346 N   0  0  0  0  0  0  0  0  0  0  0  0
   -8.0769   36.9807  -11.4527 C   0  0  0  0  0  0  0  0  0  0  0  0
   -7.6251   35.7753  -11.9266 N   0  0  0  0  0  0  0  0  0  0  0  0
   -6.4341   35.2856  -11.4663 C   0  0  0  0  0  0  0  0  0  0  0  0
   -5.7167   35.9757  -10.5688 C   0  0  0  0  0  0  0  0  0  0  0  0
   -6.1876   37.1952  -10.0853 C   0  0  0  0  0  0  0  0  0  0  0  0
   -5.5331   38.0151   -9.1448 N   0  0  0  0  0  0  0  0  0  0  0  0
   -4.6037   35.2634  -10.2930 N   0  0  0  0  0  0  0  0  0  0  0  0
   -4.6399   34.1236  -11.0404 C   0  0  0  0  0  0  0  0  0  0  0  0
   -5.7753   34.1269  -11.7511 N   0  0  0  0  0  0  0  0  0  0  0  0
  -14.4001   33.2231  -12.9911 N   0  0  0  0  0  0  0  0  0  0  0  0
  -13.5466   32.7031  -13.9116 C   0  0  0  0  0  0  0  0  0  0  0  0
  -13.0712   33.4982  -14.9162 N   0  0  0  0  0  0  0  0  0  0  0  0
  -13.4452   34.8039  -14.9916 C   0  0  0  0  0  0  0  0  0  0  0  0
  -14.2883   35.3280  -14.0791 C   0  0  0  0  0  0  0  0  0  0  0  0
  -14.7707   34.5100  -13.0615 C   0  0  0  0  0  0  0  0  0  0  0  0
  -15.6858   34.8494  -12.0020 N   0  0  0  0  0  0  0  0  0  0  0  0
  -14.4801   36.6288  -14.4049 N   0  0  0  0  0  0  0  0  0  0  0  0
  -13.7453   36.9028  -15.5205 C   0  0  0  0  0  0  0  0  0  0  0  0
  -13.1068   35.7689  -15.8737 N   0  0  0  0  0  0  0  0  0  0  0  0
  1  3  1  6  0  0  0
  1  5  2  0  0  0  0
  1  9  1  0  0  0  0
  1 18  1  0  0  0  0
  2  4  1  1  0  0  0
  2  6  2  0  0  0  0
  2 10  1  0  0  0  0
  2 17  1  0  0  0  0
  7  9  1  0  0  0  0
  8 10  1  0  0  0  0
 11  7  1  6  0  0  0
 11 13  1  0  0  0  0
 11 15  1  0  0  0  0
 12  8  1  1  0  0  0
 12 14  1  0  0  0  0
 12 16  1  0  0  0  0
 13 23  1  0  0  0  0
 14 24  1  0  0  0  0
 15 17  1  6  0  0  0
 15 19  1  0  0  0  0
 16 18  1  6  0  0  0
 16 20  1  0  0  0  0
 19 21  1  6  0  0  0
 19 23  1  0  0  0  0
 20 22  1  6  0  0  0
 20 24  1  0  0  0  0
 23 34  1  1  0  0  0
 24 44  1  1  0  0  0
 25 26  2  0  0  0  0
 25 30  1  0  0  0  0
 26 27  1  0  0  0  0
 27 28  2  0  0  0  0
 28 29  1  0  0  0  0
 28 34  1  0  0  0  0
 29 30  2  0  0  0  0
 29 32  1  0  0  0  0
 30 31  1  0  0  0  0
 32 33  2  0  0  0  0
 33 34  1  0  0  0  0
 35 36  2  0  0  0  0
 35 40  1  0  0  0  0
 36 37  1  0  0  0  0
 37 38  2  0  0  0  0
 38 39  1  0  0  0  0
 38 44  1  0  0  0  0
 39 40  2  0  0  0  0
 39 42  1  0  0  0  0
 40 41  1  0  0  0  0
 42 43  2  0  0  0  0
 43 44  1  0  0  0  0
M  CHG  2   3  -1   4  -1
M  END
>  <CHROM.1>
75.72754986,6.50450585,-9.37035781,34.58286723,-14.29119368,-0.41566718,-0.19556551
-1.23756339

>  <Name>
ligand

>  <RI>
0

>  <Rbt.Current_Directory>
/home/itssahil/PROJECTS/Mol_Feturizer/New_Systems/rnas/4QLM

>  <Rbt.Executable>
rbdock ($Id: //depot/dev/client3/rdock/2013.1/src/exe/rbdock.cxx#4 $)

>  <Rbt.Library>
libRbt.so (2013.1, Build901 2013/11/27)

>  <Rbt.Parameter_File>
/export/apps/rDock/src/rDock_2013.1_src/data/scripts/dock_solv.prm

>  <Rbt.Receptor>
prm/pocket_docking_8.prm

>  <SCORE>
-9.95782

>  <SCORE.INTER>
-8.76949

>  <SCORE.INTER.CONST>
1

>  <SCORE.INTER.POLAR>
0

>  <SCORE.INTER.ROT>
2

>  <SCORE.INTER.SOLV>
18.0617

>  <SCORE.INTER.VDW>
-16.8002

>  <SCORE.INTER.norm>
-0.199307

>  <SCORE.INTRA>
-1.19546

>  <SCORE.INTRA.DIHEDRAL>
-0.0161503

>  <SCORE.INTRA.DIHEDRAL.0>
2.32994

>  <SCORE.INTRA.POLAR>
0

>  <SCORE.INTRA.POLAR.0>
0

>  <SCORE.INTRA.REPUL>
0

>  <SCORE.INTRA.REPUL.0>
0

>  <SCORE.INTRA.SOLV>
1.02735

>  <SCORE.INTRA.SOLV.lig_0>
-117.703

>  <SCORE.INTRA.VDW>
-1.70106

>  <SCORE.INTRA.VDW.0>
-1.59997

>  <SCORE.INTRA.norm>
-0.0271696

>  <SCORE.RESTR>
0.00713236

>  <SCORE.RESTR.CAVITY>
0.00713236

>  <SCORE.RESTR.norm>
0.000162099

>  <SCORE.SYSTEM>
0

>  <SCORE.SYSTEM.CONST>
0

>  <SCORE.SYSTEM.DIHEDRAL>
0

>  <SCORE.SYSTEM.SOLV>
0

>  <SCORE.SYSTEM.norm>
0

>  <SCORE.heavy>
44

>  <SCORE.norm>
-0.226314

>  <RMSD>
7.090

$$$$
ligand
 OpenBabel11021811513D
libRbt.so/2013.1/901 2013/11/27
 44 50  0  0  0  0  0  0  0  0999 V2000
   -7.4800   35.9204  -16.8368 P   0  0  2  0  0  0  0  0  0  0  0  0
   -9.8379   31.7936  -14.2646 P   0  0  1  0  0  0  0  0  0  0  0  0
   -6.2173   35.8452  -17.6914 O   0  5  0  0  0  0  0  0  0  0  0  0
  -10.2112   32.3439  -12.9097 O   0  5  0  0  0  0  0  0  0  0  0  0
   -7.5554   37.3385  -16.3242 O   0  0  0  0  0  0  0  0  0  0  0  0
  -10.5708   30.4431  -14.4316 O   0  0  0  0  0  0  0  0  0  0  0  0
   -6.4691   33.7202  -16.0762 C   0  0  0  0  0  0  0  0  0  0  0  0
   -9.7880   32.6992  -16.6825 C   0  0  0  0  0  0  0  0  0  0  0  0
   -7.2746   34.8506  -15.7160 O   0  0  0  0  0  0  0  0  0  0  0  0
  -10.1892   33.0072  -15.3176 O   0  0  0  0  0  0  0  0  0  0  0  0
   -6.3124   32.7850  -14.8818 C   0  0  1  0  0  0  0  0  0  0  0  0
  -10.3150   33.8859  -17.5744 C   0  0  1  0  0  0  0  0  0  0  0  0
   -5.3272   33.2167  -14.1569 O   0  0  0  0  0  0  0  0  0  0  0  0
  -11.5440   34.0068  -17.2760 O   0  0  0  0  0  0  0  0  0  0  0  0
   -7.5288   32.7540  -13.9854 C   0  0  1  0  0  0  0  0  0  0  0  0
   -9.7223   35.2311  -17.1095 C   0  0  1  0  0  0  0  0  0  0  0  0
   -8.2221   31.6303  -14.3095 O   0  0  0  0  0  0  0  0  0  0  0  0
   -8.7167   35.6213  -17.9021 O   0  0  0  0  0  0  0  0  0  0  0  0
   -6.9217   32.6229  -12.5451 C   0  0  1  0  0  0  0  0  0  0  0  0
  -10.8760   36.2597  -17.1226 C   0  0  1  0  0  0  0  0  0  0  0  0
   -7.0232   31.2154  -12.0739 O   0  0  0  0  0  0  0  0  0  0  0  0
  -10.7803   37.1399  -18.3315 O   0  0  0  0  0  0  0  0  0  0  0  0
   -5.6855   32.9977  -12.6281 C   0  0  2  0  0  0  0  0  0  0  0  0
  -11.9512   35.5521  -17.1877 C   0  0  2  0  0  0  0  0  0  0  0  0
   -6.6810   38.0994  -11.2853 N   0  0  0  0  0  0  0  0  0  0  0  0
   -7.3657   37.3739  -12.2137 C   0  0  0  0  0  0  0  0  0  0  0  0
   -7.0324   36.0711  -12.4840 N   0  0  0  0  0  0  0  0  0  0  0  0
   -5.9911   35.4984  -11.8072 C   0  0  0  0  0  0  0  0  0  0  0  0
   -5.3037   36.2015  -10.8965 C   0  0  0  0  0  0  0  0  0  0  0  0
   -5.6550   37.5219  -10.6210 C   0  0  0  0  0  0  0  0  0  0  0  0
   -5.0165   38.3660   -9.6911 N   0  0  0  0  0  0  0  0  0  0  0  0
   -4.3470   35.3962  -10.3880 N   0  0  0  0  0  0  0  0  0  0  0  0
   -4.4486   34.1842  -11.0045 C   0  0  0  0  0  0  0  0  0  0  0  0
   -5.4720   34.2395  -11.8668 N   0  0  0  0  0  0  0  0  0  0  0  0
  -12.4153   36.0212  -12.0219 N   0  0  0  0  0  0  0  0  0  0  0  0
  -11.2657   35.8389  -12.7230 C   0  0  0  0  0  0  0  0  0  0  0  0
  -11.3159   35.7266  -14.0840 N   0  0  0  0  0  0  0  0  0  0  0  0
  -12.5084   35.8024  -14.7342 C   0  0  0  0  0  0  0  0  0  0  0  0
  -13.6527   35.9877  -14.0454 C   0  0  0  0  0  0  0  0  0  0  0  0
  -13.5928   36.0971  -12.6591 C   0  0  0  0  0  0  0  0  0  0  0  0
  -14.6793   36.2771  -11.7306 N   0  0  0  0  0  0  0  0  0  0  0  0
  -14.6658   36.0197  -14.9441 N   0  0  0  0  0  0  0  0  0  0  0  0
  -14.1365   35.8583  -16.1906 C   0  0  0  0  0  0  0  0  0  0  0  0
  -12.8018   35.7279  -16.0503 N   0  0  0  0  0  0  0  0  0  0  0  0
  1  3  1  6  0  0  0
  1  5  2  0  0  0  0
  1  9  1  0  0  0  0
  1 18  1  0  0  0  0
  2  4  1  1  0  0  0
  2  6  2  0  0  0  0
  2 10  1  0  0  0  0
  2 17  1  0  0  0  0
  7  9  1  0  0  0  0
  8 10  1  0  0  0  0
 11  7  1  6  0  0  0
 11 13  1  0  0  0  0
 11 15  1  0  0  0  0
 12  8  1  1  0  0  0
 12 14  1  0  0  0  0
 12 16  1  0  0  0  0
 13 23  1  0  0  0  0
 14 24  1  0  0  0  0
 15 17  1  6  0  0  0
 15 19  1  0  0  0  0
 16 18  1  6  0  0  0
 16 20  1  0  0  0  0
 19 21  1  6  0  0  0
 19 23  1  0  0  0  0
 20 22  1  6  0  0  0
 20 24  1  0  0  0  0
 23 34  1  1  0  0  0
 24 44  1  1  0  0  0
 25 26  2  0  0  0  0
 25 30  1  0  0  0  0
 26 27  1  0  0  0  0
 27 28  2  0  0  0  0
 28 29  1  0  0  0  0
 28 34  1  0  0  0  0
 29 30  2  0  0  0  0
 29 32  1  0  0  0  0
 30 31  1  0  0  0  0
 32 33  2  0  0  0  0
 33 34  1  0  0  0  0
 35 36  2  0  0  0  0
 35 40  1  0  0  0  0
 36 37  1  0  0  0  0
 37 38  2  0  0  0  0
 38 39  1  0  0  0  0
 38 44  1  0  0  0  0
 39 40  2  0  0  0  0
 39 42  1  0  0  0  0
 40 41  1  0  0  0  0
 42 43  2  0  0  0  0
 43 44  1  0  0  0  0
M  CHG  2   3  -1   4  -1
M  END
>  <CHROM.1>
65.33753357,77.74765777,-8.93601824,34.77458223,-14.35223087,-0.42533015
0.28837115,-2.06463330

>  <Name>
ligand

>  <RI>
0

>  <Rbt.Current_Directory>
/home/itssahil/PROJECTS/Mol_Feturizer/New_Systems/rnas/4QLM

>  <Rbt.Executable>
rbdock ($Id: //depot/dev/client3/rdock/2013.1/src/exe/rbdock.cxx#4 $)

>  <Rbt.Library>
libRbt.so (2013.1, Build901 2013/11/27)

>  <Rbt.Parameter_File>
/export/apps/rDock/src/rDock_2013.1_src/data/scripts/dock_solv.prm

>  <Rbt.Receptor>
prm/pocket_docking_5.prm

>  <SCORE>
-6.1796

>  <SCORE.INTER>
-5.56696

>  <SCORE.INTER.CONST>
1

>  <SCORE.INTER.POLAR>
0

>  <SCORE.INTER.ROT>
2

>  <SCORE.INTER.SOLV>
15.6223

>  <SCORE.INTER.VDW>
-13.8521

>  <SCORE.INTER.norm>
-0.126522

>  <SCORE.INTRA>
-1.754

>  <SCORE.INTRA.DIHEDRAL>
0.0411766

>  <SCORE.INTRA.DIHEDRAL.0>
2.32994

>  <SCORE.INTRA.POLAR>
0

>  <SCORE.INTRA.POLAR.0>
0

>  <SCORE.INTRA.REPUL>
0

>  <SCORE.INTRA.REPUL.0>
0

>  <SCORE.INTRA.SOLV>
0.262001

>  <SCORE.INTRA.SOLV.lig_0>
-117.703

>  <SCORE.INTRA.VDW>
-1.90559

>  <SCORE.INTRA.VDW.0>
-1.59997

>  <SCORE.INTRA.norm>
-0.0398636

>  <SCORE.RESTR>
1.14136

>  <SCORE.RESTR.CAVITY>
1.14136

>  <SCORE.RESTR.norm>
0.02594

>  <SCORE.SYSTEM>
0

>  <SCORE.SYSTEM.CONST>
0

>  <SCORE.SYSTEM.DIHEDRAL>
0

>  <SCORE.SYSTEM.SOLV>
0

>  <SCORE.SYSTEM.norm>
0

>  <SCORE.heavy>
44

>  <SCORE.norm>
-0.140446

>  <RMSD>
7.101

$$$$
ligand
 OpenBabel11021811513D
libRbt.so/2013.1/901 2013/11/27
 44 50  0  0  0  0  0  0  0  0999 V2000
   -7.5348   36.1206  -16.6042 P   0  0  2  0  0  0  0  0  0  0  0  0
   -9.6635   31.6217  -14.4986 P   0  0  1  0  0  0  0  0  0  0  0  0
   -6.2167   36.2210  -17.3678 O   0  5  0  0  0  0  0  0  0  0  0  0
  -10.1752   32.0342  -13.1399 O   0  5  0  0  0  0  0  0  0  0  0  0
   -7.7756   37.4843  -16.0027 O   0  0  0  0  0  0  0  0  0  0  0  0
  -10.2548   30.2281  -14.8104 O   0  0  0  0  0  0  0  0  0  0  0  0
   -6.3760   33.9675  -15.9243 C   0  0  0  0  0  0  0  0  0  0  0  0
   -9.5380   32.7062  -16.8388 C   0  0  0  0  0  0  0  0  0  0  0  0
   -7.3053   34.9925  -15.5473 O   0  0  0  0  0  0  0  0  0  0  0  0
  -10.0557   32.8749  -15.4889 O   0  0  0  0  0  0  0  0  0  0  0  0
   -6.2124   32.9631  -14.7885 C   0  0  1  0  0  0  0  0  0  0  0  0
  -10.1129   33.9051  -17.6835 C   0  0  1  0  0  0  0  0  0  0  0  0
   -5.3219   33.4245  -13.9660 O   0  0  0  0  0  0  0  0  0  0  0  0
  -11.3649   33.8948  -17.4677 O   0  0  0  0  0  0  0  0  0  0  0  0
   -7.4774   32.7582  -13.9871 C   0  0  1  0  0  0  0  0  0  0  0  0
   -9.6801   35.2588  -17.0858 C   0  0  1  0  0  0  0  0  0  0  0  0
   -8.0401   31.6052  -14.4368 O   0  0  0  0  0  0  0  0  0  0  0  0
   -8.6649   35.7943  -17.7746 O   0  0  0  0  0  0  0  0  0  0  0  0
   -6.9574   32.5739  -12.5188 C   0  0  1  0  0  0  0  0  0  0  0  0
  -10.9211   36.1799  -17.1124 C   0  0  1  0  0  0  0  0  0  0  0  0
   -6.9584   31.1316  -12.1536 O   0  0  0  0  0  0  0  0  0  0  0  0
  -10.8280   37.1530  -18.2481 O   0  0  0  0  0  0  0  0  0  0  0  0
   -5.7586   33.0613  -12.4859 C   0  0  2  0  0  0  0  0  0  0  0  0
  -11.9192   35.3873  -17.3037 C   0  0  2  0  0  0  0  0  0  0  0  0
   -7.5331   37.7775  -10.6339 N   0  0  0  0  0  0  0  0  0  0  0  0
   -8.1438   37.0168  -11.5855 C   0  0  0  0  0  0  0  0  0  0  0  0
   -7.6078   35.8209  -11.9906 N   0  0  0  0  0  0  0  0  0  0  0  0
   -6.4380   35.3929  -11.4262 C   0  0  0  0  0  0  0  0  0  0  0  0
   -5.8219   36.1335  -10.4944 C   0  0  0  0  0  0  0  0  0  0  0  0
   -6.3783   37.3430  -10.0816 C   0  0  0  0  0  0  0  0  0  0  0  0
   -5.8335   38.2116   -9.1153 N   0  0  0  0  0  0  0  0  0  0  0  0
   -4.7063   35.4756  -10.1140 N   0  0  0  0  0  0  0  0  0  0  0  0
   -4.6375   34.3180  -10.8313 C   0  0  0  0  0  0  0  0  0  0  0  0
   -5.7126   34.2567  -11.6279 N   0  0  0  0  0  0  0  0  0  0  0  0
  -12.8665   34.6149  -12.2415 N   0  0  0  0  0  0  0  0  0  0  0  0
  -11.6825   34.4387  -12.8845 C   0  0  0  0  0  0  0  0  0  0  0  0
  -11.6014   34.6796  -14.2272 N   0  0  0  0  0  0  0  0  0  0  0  0
  -12.6974   35.0986  -14.9155 C   0  0  0  0  0  0  0  0  0  0  0  0
  -13.8744   35.2800  -14.2831 C   0  0  0  0  0  0  0  0  0  0  0  0
  -13.9490   35.0285  -12.9162 C   0  0  0  0  0  0  0  0  0  0  0  0
  -15.0954   35.1359  -12.0505 N   0  0  0  0  0  0  0  0  0  0  0  0
  -14.7728   35.6916  -15.2097 N   0  0  0  0  0  0  0  0  0  0  0  0
  -14.1393   35.7676  -16.4150 C   0  0  0  0  0  0  0  0  0  0  0  0
  -12.8559   35.4019  -16.2219 N   0  0  0  0  0  0  0  0  0  0  0  0
  1  3  1  6  0  0  0
  1  5  2  0  0  0  0
  1  9  1  0  0  0  0
  1 18  1  0  0  0  0
  2  4  1  1  0  0  0
  2  6  2  0  0  0  0
  2 10  1  0  0  0  0
  2 17  1  0  0  0  0
  7  9  1  0  0  0  0
  8 10  1  0  0  0  0
 11  7  1  6  0  0  0
 11 13  1  0  0  0  0
 11 15  1  0  0  0  0
 12  8  1  1  0  0  0
 12 14  1  0  0  0  0
 12 16  1  0  0  0  0
 13 23  1  0  0  0  0
 14 24  1  0  0  0  0
 15 17  1  6  0  0  0
 15 19  1  0  0  0  0
 16 18  1  6  0  0  0
 16 20  1  0  0  0  0
 19 21  1  6  0  0  0
 19 23  1  0  0  0  0
 20 22  1  6  0  0  0
 20 24  1  0  0  0  0
 23 34  1  1  0  0  0
 24 44  1  1  0  0  0
 25 26  2  0  0  0  0
 25 30  1  0  0  0  0
 26 27  1  0  0  0  0
 27 28  2  0  0  0  0
 28 29  1  0  0  0  0
 28 34  1  0  0  0  0
 29 30  2  0  0  0  0
 29 32  1  0  0  0  0
 30 31  1  0  0  0  0
 32 33  2  0  0  0  0
 33 34  1  0  0  0  0
 35 36  2  0  0  0  0
 35 40  1  0  0  0  0
 36 37  1  0  0  0  0
 37 38  2  0  0  0  0
 38 39  1  0  0  0  0
 38 44  1  0  0  0  0
 39 40  2  0  0  0  0
 39 42  1  0  0  0  0
 40 41  1  0  0  0  0
 42 43  2  0  0  0  0
 43 44  1  0  0  0  0
M  CHG  2   3  -1   4  -1
M  END
>  <CHROM.1>
74.45782023,60.40331703,-9.06223278,34.59566389,-14.30622744,-0.57047612
0.10746228,-1.77377360

>  <Name>
ligand

>  <RI>
0

>  <Rbt.Current_Directory>
/home/itssahil/PROJECTS/Mol_Feturizer/New_Systems/rnas/4QLM

>  <Rbt.Executable>
rbdock ($Id: //depot/dev/client3/rdock/2013.1/src/exe/rbdock.cxx#4 $)

>  <Rbt.Library>
libRbt.so (2013.1, Build901 2013/11/27)

>  <Rbt.Parameter_File>
/export/apps/rDock/src/rDock_2013.1_src/data/scripts/dock_solv.prm

>  <Rbt.Receptor>
prm/pocket_docking_5.prm

>  <SCORE>
-8.98005

>  <SCORE.INTER>
-8.48328

>  <SCORE.INTER.CONST>
1

>  <SCORE.INTER.POLAR>
0

>  <SCORE.INTER.ROT>
2

>  <SCORE.INTER.SOLV>
17.2721

>  <SCORE.INTER.VDW>
-16.3462

>  <SCORE.INTER.norm>
-0.192802

>  <SCORE.INTRA>
-1.62208

>  <SCORE.INTRA.DIHEDRAL>
-0.00803741

>  <SCORE.INTRA.DIHEDRAL.0>
2.32994

>  <SCORE.INTRA.POLAR>
0

>  <SCORE.INTRA.POLAR.0>
0

>  <SCORE.INTRA.REPUL>
0

>  <SCORE.INTRA.REPUL.0>
0

>  <SCORE.INTRA.SOLV>
0.977726

>  <SCORE.INTRA.SOLV.lig_0>
-117.703

>  <SCORE.INTRA.VDW>
-2.10692

>  <SCORE.INTRA.VDW.0>
-1.59997

>  <SCORE.INTRA.norm>
-0.0368654

>  <SCORE.RESTR>
1.12531

>  <SCORE.RESTR.CAVITY>
1.12531

>  <SCORE.RESTR.norm>
0.0255753

>  <SCORE.SYSTEM>
0

>  <SCORE.SYSTEM.CONST>
0

>  <SCORE.SYSTEM.DIHEDRAL>
0

>  <SCORE.SYSTEM.SOLV>
0

>  <SCORE.SYSTEM.norm>
0

>  <SCORE.heavy>
44

>  <SCORE.norm>
-0.204092

>  <RMSD>
7.105

$$$$
ligand
 OpenBabel11021811513D
libRbt.so/2013.1/901 2013/11/27
 44 50  0  0  0  0  0  0  0  0999 V2000
   -5.4060   33.8214  -13.1898 P   0  0  2  0  0  0  0  0  0  0  0  0
   -3.2367   36.6593  -17.2451 P   0  0  1  0  0  0  0  0  0  0  0  0
   -5.9020   32.3796  -13.2644 O   0  5  0  0  0  0  0  0  0  0  0  0
   -3.8636   38.0282  -17.1391 O   0  5  0  0  0  0  0  0  0  0  0  0
   -6.1860   34.4758  -12.0750 O   0  0  0  0  0  0  0  0  0  0  0  0
   -2.0451   36.7724  -18.2231 O   0  0  0  0  0  0  0  0  0  0  0  0
   -5.6635   33.4902  -15.6928 C   0  0  0  0  0  0  0  0  0  0  0  0
   -2.4185   34.8622  -15.5810 C   0  0  0  0  0  0  0  0  0  0  0  0
   -5.6943   34.4223  -14.6035 O   0  0  0  0  0  0  0  0  0  0  0  0
   -2.9305   36.2204  -15.6900 O   0  0  0  0  0  0  0  0  0  0  0  0
   -6.0068   34.1978  -16.9994 C   0  0  1  0  0  0  0  0  0  0  0  0
   -2.0494   34.6516  -14.0641 C   0  0  1  0  0  0  0  0  0  0  0  0
   -7.2985   34.2372  -17.1105 O   0  0  0  0  0  0  0  0  0  0  0  0
   -1.3160   35.6429  -13.7587 O   0  0  0  0  0  0  0  0  0  0  0  0
   -5.5240   35.6292  -17.0469 C   0  0  1  0  0  0  0  0  0  0  0  0
   -3.2833   34.8560  -13.1624 C   0  0  1  0  0  0  0  0  0  0  0  0
   -4.3753   35.6281  -17.7741 O   0  0  0  0  0  0  0  0  0  0  0  0
   -3.8048   33.6852  -12.7761 O   0  0  0  0  0  0  0  0  0  0  0  0
   -6.6616   36.3760  -17.8267 C   0  0  1  0  0  0  0  0  0  0  0  0
   -2.8189   35.6895  -11.9464 C   0  0  1  0  0  0  0  0  0  0  0  0
   -6.2500   36.6021  -19.2384 O   0  0  0  0  0  0  0  0  0  0  0  0
   -2.6376   34.8107  -10.7464 O   0  0  0  0  0  0  0  0  0  0  0  0
   -7.7116   35.6215  -17.7635 C   0  0  2  0  0  0  0  0  0  0  0  0
   -1.6807   36.1823  -12.2966 C   0  0  2  0  0  0  0  0  0  0  0  0
  -12.5135   37.8991  -17.0046 N   0  0  0  0  0  0  0  0  0  0  0  0
  -12.0568   37.3802  -18.1790 C   0  0  0  0  0  0  0  0  0  0  0  0
  -10.8095   36.8165  -18.2690 N   0  0  0  0  0  0  0  0  0  0  0  0
  -10.0155   36.7809  -17.1562 C   0  0  0  0  0  0  0  0  0  0  0  0
  -10.4481   37.2936  -15.9958 C   0  0  0  0  0  0  0  0  0  0  0  0
  -11.7205   37.8561  -15.9106 C   0  0  0  0  0  0  0  0  0  0  0  0
  -12.2921   38.4263  -14.7560 N   0  0  0  0  0  0  0  0  0  0  0  0
   -9.4737   37.1198  -15.0779 N   0  0  0  0  0  0  0  0  0  0  0  0
   -8.4269   36.4973  -15.6910 C   0  0  0  0  0  0  0  0  0  0  0  0
   -8.7653   36.2718  -16.9672 N   0  0  0  0  0  0  0  0  0  0  0  0
   -3.6550   40.5695  -14.2903 N   0  0  0  0  0  0  0  0  0  0  0  0
   -4.0071   39.2976  -14.6135 C   0  0  0  0  0  0  0  0  0  0  0  0
   -3.3835   38.2481  -13.9995 N   0  0  0  0  0  0  0  0  0  0  0  0
   -2.4200   38.4744  -13.0663 C   0  0  0  0  0  0  0  0  0  0  0  0
   -2.0686   39.7340  -12.7373 C   0  0  0  0  0  0  0  0  0  0  0  0
   -2.7061   40.7970  -13.3704 C   0  0  0  0  0  0  0  0  0  0  0  0
   -2.4794   42.2082  -13.1908 N   0  0  0  0  0  0  0  0  0  0  0  0
   -1.0970   39.6509  -11.7970 N   0  0  0  0  0  0  0  0  0  0  0  0
   -0.8570   38.3321  -11.5459 C   0  0  0  0  0  0  0  0  0  0  0  0
   -1.6821   37.6130  -12.3334 N   0  0  0  0  0  0  0  0  0  0  0  0
  1  3  1  6  0  0  0
  1  5  2  0  0  0  0
  1  9  1  0  0  0  0
  1 18  1  0  0  0  0
  2  4  1  1  0  0  0
  2  6  2  0  0  0  0
  2 10  1  0  0  0  0
  2 17  1  0  0  0  0
  7  9  1  0  0  0  0
  8 10  1  0  0  0  0
 11  7  1  1  0  0  0
 11 13  1  0  0  0  0
 11 15  1  0  0  0  0
 12  8  1  6  0  0  0
 12 14  1  0  0  0  0
 12 16  1  0  0  0  0
 13 23  1  0  0  0  0
 14 24  1  0  0  0  0
 15 17  1  6  0  0  0
 15 19  1  0  0  0  0
 16 18  1  1  0  0  0
 16 20  1  0  0  0  0
 19 21  1  6  0  0  0
 19 23  1  0  0  0  0
 20 22  1  1  0  0  0
 20 24  1  0  0  0  0
 23 34  1  1  0  0  0
 24 44  1  6  0  0  0
 25 26  2  0  0  0  0
 25 30  1  0  0  0  0
 26 27  1  0  0  0  0
 27 28  2  0  0  0  0
 28 29  1  0  0  0  0
 28 34  1  0  0  0  0
 29 30  2  0  0  0  0
 29 32  1  0  0  0  0
 30 31  1  0  0  0  0
 32 33  2  0  0  0  0
 33 34  1  0  0  0  0
 35 36  2  0  0  0  0
 35 40  1  0  0  0  0
 36 37  1  0  0  0  0
 37 38  2  0  0  0  0
 38 39  1  0  0  0  0
 38 44  1  0  0  0  0
 39 40  2  0  0  0  0
 39 42  1  0  0  0  0
 40 41  1  0  0  0  0
 42 43  2  0  0  0  0
 43 44  1  0  0  0  0
M  CHG  2   3  -1   4  -1
M  END
>  <CHROM.1>
-125.42442629,59.91483685,-5.24060618,36.48130054,-15.04777384,-0.01780205
0.45867134,3.04741143

>  <Name>
ligand

>  <RI>
0

>  <Rbt.Current_Directory>
/home/itssahil/PROJECTS/Mol_Feturizer/New_Systems/rnas/4QLM

>  <Rbt.Executable>
rbdock ($Id: //depot/dev/client3/rdock/2013.1/src/exe/rbdock.cxx#4 $)

>  <Rbt.Library>
libRbt.so (2013.1, Build901 2013/11/27)

>  <Rbt.Parameter_File>
/export/apps/rDock/src/rDock_2013.1_src/data/scripts/dock_solv.prm

>  <Rbt.Receptor>
prm/pocket_docking_7.prm

>  <SCORE>
-12.0142

>  <SCORE.INTER>
-11.72

>  <SCORE.INTER.CONST>
1

>  <SCORE.INTER.POLAR>
0

>  <SCORE.INTER.ROT>
2

>  <SCORE.INTER.SOLV>
17.7063

>  <SCORE.INTER.VDW>
-18.6487

>  <SCORE.INTER.norm>
-0.266363

>  <SCORE.INTRA>
-0.294187

>  <SCORE.INTRA.DIHEDRAL>
0.0494604

>  <SCORE.INTRA.DIHEDRAL.0>
2.32994

>  <SCORE.INTRA.POLAR>
0

>  <SCORE.INTRA.POLAR.0>
0

>  <SCORE.INTRA.REPUL>
0

>  <SCORE.INTRA.REPUL.0>
0

>  <SCORE.INTRA.SOLV>
0.999616

>  <SCORE.INTRA.SOLV.lig_0>
-117.703

>  <SCORE.INTRA.VDW>
-0.818725

>  <SCORE.INTRA.VDW.0>
-1.59997

>  <SCORE.INTRA.norm>
-0.00668607

>  <SCORE.RESTR>
0

>  <SCORE.RESTR.CAVITY>
0

>  <SCORE.RESTR.norm>
0

>  <SCORE.SYSTEM>
0

>  <SCORE.SYSTEM.CONST>
0

>  <SCORE.SYSTEM.DIHEDRAL>
0

>  <SCORE.SYSTEM.SOLV>
0

>  <SCORE.SYSTEM.norm>
0

>  <SCORE.heavy>
44

>  <SCORE.norm>
-0.273049

>  <RMSD>
7.116

$$$$
ligand
 OpenBabel11021811513D
libRbt.so/2013.1/901 2013/11/27
 44 50  0  0  0  0  0  0  0  0999 V2000
   -3.2669   36.0677  -16.6970 P   0  0  2  0  0  0  0  0  0  0  0  0
   -6.4639   33.5307  -13.1547 P   0  0  1  0  0  0  0  0  0  0  0  0
   -1.8804   35.6125  -17.1452 O   0  5  0  0  0  0  0  0  0  0  0  0
   -7.0274   34.6285  -12.2857 O   0  5  0  0  0  0  0  0  0  0  0  0
   -3.2952   37.5663  -16.8789 O   0  0  0  0  0  0  0  0  0  0  0  0
   -7.2834   32.2513  -12.8706 O   0  0  0  0  0  0  0  0  0  0  0  0
   -2.6406   34.4296  -14.8625 C   0  0  0  0  0  0  0  0  0  0  0  0
   -5.8723   33.2657  -15.6543 C   0  0  0  0  0  0  0  0  0  0  0  0
   -3.3825   35.6071  -15.2080 O   0  0  0  0  0  0  0  0  0  0  0  0
   -6.4891   34.1512  -14.6775 O   0  0  0  0  0  0  0  0  0  0  0  0
   -2.8042   34.1224  -13.3778 C   0  0  1  0  0  0  0  0  0  0  0  0
   -6.1021   33.9349  -17.0617 C   0  0  1  0  0  0  0  0  0  0  0  0
   -1.9341   34.8255  -12.7213 O   0  0  0  0  0  0  0  0  0  0  0  0
   -7.3469   34.1835  -17.1133 O   0  0  0  0  0  0  0  0  0  0  0  0
   -4.1639   34.5008  -12.8370 C   0  0  1  0  0  0  0  0  0  0  0  0
   -5.4758   35.3428  -17.1122 C   0  0  1  0  0  0  0  0  0  0  0  0
   -4.8927   33.3546  -12.7806 O   0  0  0  0  0  0  0  0  0  0  0  0
   -4.3058   35.3336  -17.7625 O   0  0  0  0  0  0  0  0  0  0  0  0
   -3.8532   35.0205  -11.3901 C   0  0  1  0  0  0  0  0  0  0  0  0
   -6.4983   36.2653  -17.8143 C   0  0  1  0  0  0  0  0  0  0  0  0
   -4.1808   33.9702  -10.3886 O   0  0  0  0  0  0  0  0  0  0  0  0
   -6.0909   36.5152  -19.2344 O   0  0  0  0  0  0  0  0  0  0  0  0
   -2.5922   35.3116  -11.3633 C   0  0  2  0  0  0  0  0  0  0  0  0
   -7.6074   35.6092  -17.7923 C   0  0  2  0  0  0  0  0  0  0  0  0
   -1.5715   40.3082  -13.0409 N   0  0  0  0  0  0  0  0  0  0  0  0
   -1.6452   39.2029  -13.8346 C   0  0  0  0  0  0  0  0  0  0  0  0
   -1.9141   37.9658  -13.3065 N   0  0  0  0  0  0  0  0  0  0  0  0
   -2.1076   37.8479  -11.9578 C   0  0  0  0  0  0  0  0  0  0  0  0
   -2.0311   38.9247  -11.1634 C   0  0  0  0  0  0  0  0  0  0  0  0
   -1.7669   40.1796  -11.7094 C   0  0  0  0  0  0  0  0  0  0  0  0
   -1.6611   41.3849  -10.9876 N   0  0  0  0  0  0  0  0  0  0  0  0
   -2.2661   38.5217   -9.8967 N   0  0  0  0  0  0  0  0  0  0  0  0
   -2.4823   37.1756   -9.9186 C   0  0  0  0  0  0  0  0  0  0  0  0
   -2.4023   36.7611  -11.1897 N   0  0  0  0  0  0  0  0  0  0  0  0
   -9.1708   37.7526  -13.3110 N   0  0  0  0  0  0  0  0  0  0  0  0
   -7.9713   37.1636  -13.5572 C   0  0  0  0  0  0  0  0  0  0  0  0
   -7.7181   36.6392  -14.7934 N   0  0  0  0  0  0  0  0  0  0  0  0
   -8.6584   36.7109  -15.7738 C   0  0  0  0  0  0  0  0  0  0  0  0
   -9.8492   37.2979  -15.5381 C   0  0  0  0  0  0  0  0  0  0  0  0
  -10.1002   37.8259  -14.2750 C   0  0  0  0  0  0  0  0  0  0  0  0
  -11.2962   38.4735  -13.8002 N   0  0  0  0  0  0  0  0  0  0  0  0
  -10.5726   37.2196  -16.6807 N   0  0  0  0  0  0  0  0  0  0  0  0
   -9.8169   36.5855  -17.6223 C   0  0  0  0  0  0  0  0  0  0  0  0
   -8.6341   36.2778  -17.0527 N   0  0  0  0  0  0  0  0  0  0  0  0
  1  3  1  6  0  0  0
  1  5  2  0  0  0  0
  1  9  1  0  0  0  0
  1 18  1  0  0  0  0
  2  4  1  1  0  0  0
  2  6  2  0  0  0  0
  2 10  1  0  0  0  0
  2 17  1  0  0  0  0
  7  9  1  0  0  0  0
  8 10  1  0  0  0  0
 11  7  1  6  0  0  0
 11 13  1  0  0  0  0
 11 15  1  0  0  0  0
 12  8  1  1  0  0  0
 12 14  1  0  0  0  0
 12 16  1  0  0  0  0
 13 23  1  0  0  0  0
 14 24  1  0  0  0  0
 15 17  1  1  0  0  0
 15 19  1  0  0  0  0
 16 18  1  6  0  0  0
 16 20  1  0  0  0  0
 19 21  1  1  0  0  0
 19 23  1  0  0  0  0
 20 22  1  6  0  0  0
 20 24  1  0  0  0  0
 23 34  1  6  0  0  0
 24 44  1  1  0  0  0
 25 26  2  0  0  0  0
 25 30  1  0  0  0  0
 26 27  1  0  0  0  0
 27 28  2  0  0  0  0
 28 29  1  0  0  0  0
 28 34  1  0  0  0  0
 29 30  2  0  0  0  0
 29 32  1  0  0  0  0
 30 31  1  0  0  0  0
 32 33  2  0  0  0  0
 33 34  1  0  0  0  0
 35 36  2  0  0  0  0
 35 40  1  0  0  0  0
 36 37  1  0  0  0  0
 37 38  2  0  0  0  0
 38 39  1  0  0  0  0
 38 44  1  0  0  0  0
 39 40  2  0  0  0  0
 39 42  1  0  0  0  0
 40 41  1  0  0  0  0
 42 43  2  0  0  0  0
 43 44  1  0  0  0  0
M  CHG  2   3  -1   4  -1
M  END
>  <CHROM.1>
19.21264154,63.81060668,-5.16548390,36.09911696,-14.33810513,-0.64635345
-0.07342418,-1.83412347

>  <Name>
ligand

>  <RI>
0

>  <Rbt.Current_Directory>
/home/itssahil/PROJECTS/Mol_Feturizer/New_Systems/rnas/4QLM

>  <Rbt.Executable>
rbdock ($Id: //depot/dev/client3/rdock/2013.1/src/exe/rbdock.cxx#4 $)

>  <Rbt.Library>
libRbt.so (2013.1, Build901 2013/11/27)

>  <Rbt.Parameter_File>
/export/apps/rDock/src/rDock_2013.1_src/data/scripts/dock_solv.prm

>  <Rbt.Receptor>
prm/pocket_docking_8.prm

>  <SCORE>
-10.5919

>  <SCORE.INTER>
-9.05737

>  <SCORE.INTER.CONST>
1

>  <SCORE.INTER.POLAR>
0

>  <SCORE.INTER.ROT>
2

>  <SCORE.INTER.SOLV>
15.9815

>  <SCORE.INTER.VDW>
-16.2987

>  <SCORE.INTER.norm>
-0.205849

>  <SCORE.INTRA>
-1.53457

>  <SCORE.INTRA.DIHEDRAL>
0.165061

>  <SCORE.INTRA.DIHEDRAL.0>
2.32994

>  <SCORE.INTRA.POLAR>
0

>  <SCORE.INTRA.POLAR.0>
0

>  <SCORE.INTRA.REPUL>
0

>  <SCORE.INTRA.REPUL.0>
0

>  <SCORE.INTRA.SOLV>
1.05901

>  <SCORE.INTRA.SOLV.lig_0>
-117.703

>  <SCORE.INTRA.VDW>
-2.1466

>  <SCORE.INTRA.VDW.0>
-1.59997

>  <SCORE.INTRA.norm>
-0.0348765

>  <SCORE.RESTR>
0

>  <SCORE.RESTR.CAVITY>
0

>  <SCORE.RESTR.norm>
0

>  <SCORE.SYSTEM>
0

>  <SCORE.SYSTEM.CONST>
0

>  <SCORE.SYSTEM.DIHEDRAL>
0

>  <SCORE.SYSTEM.SOLV>
0

>  <SCORE.SYSTEM.norm>
0

>  <SCORE.heavy>
44

>  <SCORE.norm>
-0.240726

>  <RMSD>
7.154

$$$$
ligand
 OpenBabel11021811513D
libRbt.so/2013.1/901 2013/11/27
 44 50  0  0  0  0  0  0  0  0999 V2000
   -3.9937   37.8151  -16.1651 P   0  0  2  0  0  0  0  0  0  0  0  0
   -4.5826   36.4592  -10.9670 P   0  0  1  0  0  0  0  0  0  0  0  0
   -3.0164   38.8478  -16.7209 O   0  5  0  0  0  0  0  0  0  0  0  0
   -6.0744   36.3661  -10.7573 O   0  5  0  0  0  0  0  0  0  0  0  0
   -5.1354   37.7455  -17.1506 O   0  0  0  0  0  0  0  0  0  0  0  0
   -3.9031   35.8198   -9.7348 O   0  0  0  0  0  0  0  0  0  0  0  0
   -3.4113   39.1498  -14.0864 C   0  0  0  0  0  0  0  0  0  0  0  0
   -2.9392   35.8749  -12.8712 C   0  0  0  0  0  0  0  0  0  0  0  0
   -4.4021   38.3605  -14.7585 O   0  0  0  0  0  0  0  0  0  0  0  0
   -4.3263   35.7766  -12.4411 O   0  0  0  0  0  0  0  0  0  0  0  0
   -3.9563   39.6539  -12.7543 C   0  0  1  0  0  0  0  0  0  0  0  0
   -2.8368   35.0613  -14.2162 C   0  0  1  0  0  0  0  0  0  0  0  0
   -4.6267   40.7417  -12.9774 O   0  0  0  0  0  0  0  0  0  0  0  0
   -3.3534   33.9290  -13.9610 O   0  0  0  0  0  0  0  0  0  0  0  0
   -4.9103   38.6845  -12.0953 C   0  0  1  0  0  0  0  0  0  0  0  0
   -3.7925   35.6342  -15.2817 C   0  0  1  0  0  0  0  0  0  0  0  0
   -4.1996   38.0286  -11.1397 O   0  0  0  0  0  0  0  0  0  0  0  0
   -3.1368   36.3941  -16.1674 O   0  0  0  0  0  0  0  0  0  0  0  0
   -5.9832   39.6169  -11.4323 C   0  0  1  0  0  0  0  0  0  0  0  0
   -4.4705   34.4292  -15.9727 C   0  0  1  0  0  0  0  0  0  0  0  0
   -5.7202   39.7418   -9.9733 O   0  0  0  0  0  0  0  0  0  0  0  0
   -3.8450   34.1708  -17.3096 O   0  0  0  0  0  0  0  0  0  0  0  0
   -5.8913   40.7658  -12.0216 C   0  0  2  0  0  0  0  0  0  0  0  0
   -4.2472   33.4291  -15.1910 C   0  0  2  0  0  0  0  0  0  0  0  0
  -10.3607   39.4477  -14.6877 N   0  0  0  0  0  0  0  0  0  0  0  0
   -9.5166   38.5738  -14.0705 C   0  0  0  0  0  0  0  0  0  0  0  0
   -8.3966   39.0133  -13.4118 N   0  0  0  0  0  0  0  0  0  0  0  0
   -8.1281   40.3539  -13.3809 C   0  0  0  0  0  0  0  0  0  0  0  0
   -8.9450   41.2249  -13.9895 C   0  0  0  0  0  0  0  0  0  0  0  0
  -10.0861   40.7708  -14.6486 C   0  0  0  0  0  0  0  0  0  0  0  0
  -11.0220   41.5786  -15.3243 N   0  0  0  0  0  0  0  0  0  0  0  0
   -8.4460   42.4643  -13.7966 N   0  0  0  0  0  0  0  0  0  0  0  0
   -7.3019   42.3459  -13.0644 C   0  0  0  0  0  0  0  0  0  0  0  0
   -7.1134   41.0479  -12.7924 N   0  0  0  0  0  0  0  0  0  0  0  0
   -9.0682   31.6632  -16.0626 N   0  0  0  0  0  0  0  0  0  0  0  0
   -8.2146   32.1874  -16.9807 C   0  0  0  0  0  0  0  0  0  0  0  0
   -6.9781   32.6147  -16.5858 N   0  0  0  0  0  0  0  0  0  0  0  0
   -6.6013   32.5112  -15.2829 C   0  0  0  0  0  0  0  0  0  0  0  0
   -7.4414   31.9879  -14.3672 C   0  0  0  0  0  0  0  0  0  0  0  0
   -8.7003   31.5588  -14.7773 C   0  0  0  0  0  0  0  0  0  0  0  0
   -9.7546   30.9920  -13.9760 N   0  0  0  0  0  0  0  0  0  0  0  0
   -6.8049   32.0144  -13.1717 N   0  0  0  0  0  0  0  0  0  0  0  0
   -5.5658   32.5522  -13.3591 C   0  0  0  0  0  0  0  0  0  0  0  0
   -5.4485   32.8533  -14.6682 N   0  0  0  0  0  0  0  0  0  0  0  0
  1  3  1  6  0  0  0
  1  5  2  0  0  0  0
  1  9  1  0  0  0  0
  1 18  1  0  0  0  0
  2  4  1  1  0  0  0
  2  6  2  0  0  0  0
  2 10  1  0  0  0  0
  2 17  1  0  0  0  0
  7  9  1  0  0  0  0
  8 10  1  0  0  0  0
 11  7  1  6  0  0  0
 11 13  1  0  0  0  0
 11 15  1  0  0  0  0
 12  8  1  1  0  0  0
 12 14  1  0  0  0  0
 12 16  1  0  0  0  0
 13 23  1  0  0  0  0
 14 24  1  0  0  0  0
 15 17  1  1  0  0  0
 15 19  1  0  0  0  0
 16 18  1  6  0  0  0
 16 20  1  0  0  0  0
 19 21  1  1  0  0  0
 19 23  1  0  0  0  0
 20 22  1  6  0  0  0
 20 24  1  0  0  0  0
 23 34  1  6  0  0  0
 24 44  1  1  0  0  0
 25 26  2  0  0  0  0
 25 30  1  0  0  0  0
 26 27  1  0  0  0  0
 27 28  2  0  0  0  0
 28 29  1  0  0  0  0
 28 34  1  0  0  0  0
 29 30  2  0  0  0  0
 29 32  1  0  0  0  0
 30 31  1  0  0  0  0
 32 33  2  0  0  0  0
 33 34  1  0  0  0  0
 35 36  2  0  0  0  0
 35 40  1  0  0  0  0
 36 37  1  0  0  0  0
 37 38  2  0  0  0  0
 38 39  1  0  0  0  0
 38 44  1  0  0  0  0
 39 40  2  0  0  0  0
 39 42  1  0  0  0  0
 40 41  1  0  0  0  0
 42 43  2  0  0  0  0
 43 44  1  0  0  0  0
M  CHG  2   3  -1   4  -1
M  END
>  <CHROM.1>
95.97604881,166.88671419,-5.85976215,36.86162754,-13.92303191,-1.68624134
0.29199946,-2.87568593

>  <Name>
ligand

>  <RI>
0

>  <Rbt.Current_Directory>
/home/itssahil/PROJECTS/Mol_Feturizer/New_Systems/rnas/4QLM

>  <Rbt.Executable>
rbdock ($Id: //depot/dev/client3/rdock/2013.1/src/exe/rbdock.cxx#4 $)

>  <Rbt.Library>
libRbt.so (2013.1, Build901 2013/11/27)

>  <Rbt.Parameter_File>
/export/apps/rDock/src/rDock_2013.1_src/data/scripts/dock_solv.prm

>  <Rbt.Receptor>
prm/pocket_docking_8.prm

>  <SCORE>
-10.1514

>  <SCORE.INTER>
-10.0648

>  <SCORE.INTER.CONST>
1

>  <SCORE.INTER.POLAR>
0

>  <SCORE.INTER.ROT>
2

>  <SCORE.INTER.SOLV>
23.3188

>  <SCORE.INTER.VDW>
-19.4161

>  <SCORE.INTER.norm>
-0.228745

>  <SCORE.INTRA>
-0.0865618

>  <SCORE.INTRA.DIHEDRAL>
-0.0332839

>  <SCORE.INTRA.DIHEDRAL.0>
2.32994

>  <SCORE.INTRA.POLAR>
0

>  <SCORE.INTRA.POLAR.0>
0

>  <SCORE.INTRA.REPUL>
0

>  <SCORE.INTRA.REPUL.0>
0

>  <SCORE.INTRA.SOLV>
0.0693559

>  <SCORE.INTRA.SOLV.lig_0>
-117.703

>  <SCORE.INTRA.VDW>
-0.104598

>  <SCORE.INTRA.VDW.0>
-1.59997

>  <SCORE.INTRA.norm>
-0.00196731

>  <SCORE.RESTR>
0

>  <SCORE.RESTR.CAVITY>
0

>  <SCORE.RESTR.norm>
0

>  <SCORE.SYSTEM>
0

>  <SCORE.SYSTEM.CONST>
0

>  <SCORE.SYSTEM.DIHEDRAL>
0

>  <SCORE.SYSTEM.SOLV>
0

>  <SCORE.SYSTEM.norm>
0

>  <SCORE.heavy>
44

>  <SCORE.norm>
-0.230713

>  <RMSD>
7.177

$$$$
ligand
 OpenBabel11021811513D
libRbt.so/2013.1/901 2013/11/27
 44 50  0  0  0  0  0  0  0  0999 V2000
   -5.4442   34.3497  -12.5786 P   0  0  2  0  0  0  0  0  0  0  0  0
   -3.8670   36.1107  -17.4383 P   0  0  1  0  0  0  0  0  0  0  0  0
   -6.2175   33.0646  -12.2941 O   0  5  0  0  0  0  0  0  0  0  0  0
   -4.1629   37.5907  -17.4291 O   0  5  0  0  0  0  0  0  0  0  0  0
   -5.7683   35.2934  -11.4455 O   0  0  0  0  0  0  0  0  0  0  0  0
   -2.9669   35.8281  -18.6626 O   0  0  0  0  0  0  0  0  0  0  0  0
   -6.3930   33.7978  -14.8669 C   0  0  0  0  0  0  0  0  0  0  0  0
   -3.0223   34.3794  -15.7186 C   0  0  0  0  0  0  0  0  0  0  0  0
   -5.9597   34.8319  -13.9731 O   0  0  0  0  0  0  0  0  0  0  0  0
   -3.2665   35.7972  -15.9397 O   0  0  0  0  0  0  0  0  0  0  0  0
   -6.9120   34.4083  -16.1644 C   0  0  1  0  0  0  0  0  0  0  0  0
   -2.3270   34.2671  -14.3096 C   0  0  1  0  0  0  0  0  0  0  0  0
   -8.1551   34.7343  -15.9888 O   0  0  0  0  0  0  0  0  0  0  0  0
   -1.3591   35.0890  -14.3491 O   0  0  0  0  0  0  0  0  0  0  0  0
   -6.1845   35.6722  -16.5614 C   0  0  1  0  0  0  0  0  0  0  0  0
   -3.2239   34.8572  -13.2031 C   0  0  1  0  0  0  0  0  0  0  0  0
   -5.2834   35.3187  -17.5160 O   0  0  0  0  0  0  0  0  0  0  0  0
   -3.8500   33.8935  -12.5166 O   0  0  0  0  0  0  0  0  0  0  0  0
   -7.3130   36.5672  -17.1823 C   0  0  1  0  0  0  0  0  0  0  0  0
   -2.3091   35.6957  -12.2816 C   0  0  1  0  0  0  0  0  0  0  0  0
   -7.2395   36.5248  -18.6677 O   0  0  0  0  0  0  0  0  0  0  0  0
   -2.0044   34.9452  -11.0210 O   0  0  0  0  0  0  0  0  0  0  0  0
   -8.4396   36.0908  -16.7585 C   0  0  2  0  0  0  0  0  0  0  0  0
   -1.2240   35.8654  -12.9561 C   0  0  2  0  0  0  0  0  0  0  0  0
   -8.6011   39.8461  -12.9254 N   0  0  0  0  0  0  0  0  0  0  0  0
   -7.4739   39.2528  -13.4097 C   0  0  0  0  0  0  0  0  0  0  0  0
   -7.5396   38.3009  -14.3950 N   0  0  0  0  0  0  0  0  0  0  0  0
   -8.7624   37.9447  -14.8931 C   0  0  0  0  0  0  0  0  0  0  0  0
   -9.8804   38.5142  -14.4219 C   0  0  0  0  0  0  0  0  0  0  0  0
   -9.8041   39.4875  -13.4271 C   0  0  0  0  0  0  0  0  0  0  0  0
  -10.8987   40.1601  -12.8488 N   0  0  0  0  0  0  0  0  0  0  0  0
  -10.9276   37.9836  -15.0884 N   0  0  0  0  0  0  0  0  0  0  0  0
  -10.4400   37.0702  -15.9756 C   0  0  0  0  0  0  0  0  0  0  0  0
   -9.1049   37.0571  -15.8692 N   0  0  0  0  0  0  0  0  0  0  0  0
   -2.9119   40.4433  -14.7765 N   0  0  0  0  0  0  0  0  0  0  0  0
   -3.6135   39.2810  -14.7195 C   0  0  0  0  0  0  0  0  0  0  0  0
   -3.0190   38.1581  -14.2164 N   0  0  0  0  0  0  0  0  0  0  0  0
   -1.7348   38.2040  -13.7701 C   0  0  0  0  0  0  0  0  0  0  0  0
   -1.0341   39.3550  -13.8195 C   0  0  0  0  0  0  0  0  0  0  0  0
   -1.6460   40.4930  -14.3370 C   0  0  0  0  0  0  0  0  0  0  0  0
   -1.0867   41.8103  -14.5011 N   0  0  0  0  0  0  0  0  0  0  0  0
    0.1979   39.1010  -13.3168 N   0  0  0  0  0  0  0  0  0  0  0  0
    0.2485   37.7877  -12.9528 C   0  0  0  0  0  0  0  0  0  0  0  0
   -0.9522   37.2427  -13.2343 N   0  0  0  0  0  0  0  0  0  0  0  0
  1  3  1  1  0  0  0
  1  5  2  0  0  0  0
  1  9  1  0  0  0  0
  1 18  1  0  0  0  0
  2  4  1  6  0  0  0
  2  6  2  0  0  0  0
  2 10  1  0  0  0  0
  2 17  1  0  0  0  0
  7  9  1  0  0  0  0
  8 10  1  0  0  0  0
 11  7  1  1  0  0  0
 11 13  1  0  0  0  0
 11 15  1  0  0  0  0
 12  8  1  6  0  0  0
 12 14  1  0  0  0  0
 12 16  1  0  0  0  0
 13 23  1  0  0  0  0
 14 24  1  0  0  0  0
 15 17  1  6  0  0  0
 15 19  1  0  0  0  0
 16 18  1  1  0  0  0
 16 20  1  0  0  0  0
 19 21  1  6  0  0  0
 19 23  1  0  0  0  0
 20 22  1  1  0  0  0
 20 24  1  0  0  0  0
 23 34  1  1  0  0  0
 24 44  1  6  0  0  0
 25 26  2  0  0  0  0
 25 30  1  0  0  0  0
 26 27  1  0  0  0  0
 27 28  2  0  0  0  0
 28 29  1  0  0  0  0
 28 34  1  0  0  0  0
 29 30  2  0  0  0  0
 29 32  1  0  0  0  0
 30 31  1  0  0  0  0
 32 33  2  0  0  0  0
 33 34  1  0  0  0  0
 35 36  2  0  0  0  0
 35 40  1  0  0  0  0
 36 37  1  0  0  0  0
 37 38  2  0  0  0  0
 38 39  1  0  0  0  0
 38 44  1  0  0  0  0
 39 40  2  0  0  0  0
 39 42  1  0  0  0  0
 40 41  1  0  0  0  0
 42 43  2  0  0  0  0
 43 44  1  0  0  0  0
M  CHG  2   3  -1   4  -1
M  END
>  <CHROM.1>
81.10020252,69.38647145,-5.00134731,36.68747098,-14.65184160,0.01552272,0.18088237
-3.06077211

>  <Name>
ligand

>  <RI>
0

>  <Rbt.Current_Directory>
/home/itssahil/PROJECTS/Mol_Feturizer/New_Systems/rnas/4QLM

>  <Rbt.Executable>
rbdock ($Id: //depot/dev/client3/rdock/2013.1/src/exe/rbdock.cxx#4 $)

>  <Rbt.Library>
libRbt.so (2013.1, Build901 2013/11/27)

>  <Rbt.Parameter_File>
/export/apps/rDock/src/rDock_2013.1_src/data/scripts/dock_solv.prm

>  <Rbt.Receptor>
prm/pocket_docking_7.prm

>  <SCORE>
-8.77538

>  <SCORE.INTER>
-7.03319

>  <SCORE.INTER.CONST>
1

>  <SCORE.INTER.POLAR>
0

>  <SCORE.INTER.ROT>
2

>  <SCORE.INTER.SOLV>
20.5242

>  <SCORE.INTER.VDW>
-16.4635

>  <SCORE.INTER.norm>
-0.159845

>  <SCORE.INTRA>
-1.74322

>  <SCORE.INTRA.DIHEDRAL>
-0.0221349

>  <SCORE.INTRA.DIHEDRAL.0>
2.32994

>  <SCORE.INTRA.POLAR>
0

>  <SCORE.INTRA.POLAR.0>
0

>  <SCORE.INTRA.REPUL>
0

>  <SCORE.INTRA.REPUL.0>
0

>  <SCORE.INTRA.SOLV>
0.548887

>  <SCORE.INTRA.SOLV.lig_0>
-117.703

>  <SCORE.INTRA.VDW>
-2.00659

>  <SCORE.INTRA.VDW.0>
-1.59997

>  <SCORE.INTRA.norm>
-0.0396186

>  <SCORE.RESTR>
0.00103323

>  <SCORE.RESTR.CAVITY>
0.00103323

>  <SCORE.RESTR.norm>
2.34826e-05

>  <SCORE.SYSTEM>
0

>  <SCORE.SYSTEM.CONST>
0

>  <SCORE.SYSTEM.DIHEDRAL>
0

>  <SCORE.SYSTEM.SOLV>
0

>  <SCORE.SYSTEM.norm>
0

>  <SCORE.heavy>
44

>  <SCORE.norm>
-0.19944

>  <RMSD>
7.196

$$$$
ligand
 OpenBabel11021811513D
libRbt.so/2013.1/901 2013/11/27
 44 50  0  0  0  0  0  0  0  0999 V2000
   -3.3345   36.0763  -16.6673 P   0  0  2  0  0  0  0  0  0  0  0  0
   -6.5836   33.5217  -13.1855 P   0  0  1  0  0  0  0  0  0  0  0  0
   -1.9542   35.6074  -17.1205 O   0  5  0  0  0  0  0  0  0  0  0  0
   -7.1319   34.6111  -12.2963 O   0  5  0  0  0  0  0  0  0  0  0  0
   -3.3377   37.5784  -16.8193 O   0  0  0  0  0  0  0  0  0  0  0  0
   -7.4248   32.2505  -12.9295 O   0  0  0  0  0  0  0  0  0  0  0  0
   -2.7408   34.3918  -14.8642 C   0  0  0  0  0  0  0  0  0  0  0  0
   -5.9885   33.2970  -15.6882 C   0  0  0  0  0  0  0  0  0  0  0  0
   -3.4622   35.5879  -15.1881 O   0  0  0  0  0  0  0  0  0  0  0  0
   -6.5939   34.1728  -14.6957 O   0  0  0  0  0  0  0  0  0  0  0  0
   -2.9141   34.0577  -13.3864 C   0  0  1  0  0  0  0  0  0  0  0  0
   -6.2029   33.9979  -17.0827 C   0  0  1  0  0  0  0  0  0  0  0  0
   -2.0347   34.7332  -12.7134 O   0  0  0  0  0  0  0  0  0  0  0  0
   -7.4433   34.2678  -17.1328 O   0  0  0  0  0  0  0  0  0  0  0  0
   -4.2691   34.4475  -12.8420 C   0  0  1  0  0  0  0  0  0  0  0  0
   -5.5536   35.3961  -17.1032 C   0  0  1  0  0  0  0  0  0  0  0  0
   -5.0167   33.3124  -12.8106 O   0  0  0  0  0  0  0  0  0  0  0  0
   -4.3818   35.3806  -17.7502 O   0  0  0  0  0  0  0  0  0  0  0  0
   -3.9546   34.9330  -11.3841 C   0  0  1  0  0  0  0  0  0  0  0  0
   -6.5586   36.3490  -17.7895 C   0  0  1  0  0  0  0  0  0  0  0  0
   -4.3024   33.8684  -10.4048 O   0  0  0  0  0  0  0  0  0  0  0  0
   -6.1427   36.6205  -19.2032 O   0  0  0  0  0  0  0  0  0  0  0  0
   -2.6890   35.2029  -11.3479 C   0  0  2  0  0  0  0  0  0  0  0  0
   -7.6784   35.7109  -17.7839 C   0  0  2  0  0  0  0  0  0  0  0  0
   -2.9591   40.3882  -12.7119 N   0  0  0  0  0  0  0  0  0  0  0  0
   -3.4422   39.3470  -13.4465 C   0  0  0  0  0  0  0  0  0  0  0  0
   -3.3239   38.0529  -13.0076 N   0  0  0  0  0  0  0  0  0  0  0  0
   -2.7063   37.8116  -11.8116 C   0  0  0  0  0  0  0  0  0  0  0  0
   -2.2197   38.8247  -11.0813 C   0  0  0  0  0  0  0  0  0  0  0  0
   -2.3525   40.1376  -11.5301 C   0  0  0  0  0  0  0  0  0  0  0  0
   -1.8872   41.2866  -10.8606 N   0  0  0  0  0  0  0  0  0  0  0  0
   -1.6747   38.3032   -9.9618 N   0  0  0  0  0  0  0  0  0  0  0  0
   -1.8253   36.9490  -10.0142 C   0  0  0  0  0  0  0  0  0  0  0  0
   -2.4761   36.6453  -11.1448 N   0  0  0  0  0  0  0  0  0  0  0  0
   -9.1447   37.9796  -13.3316 N   0  0  0  0  0  0  0  0  0  0  0  0
   -7.9395   37.4111  -13.5975 C   0  0  0  0  0  0  0  0  0  0  0  0
   -7.7146   36.8478  -14.8220 N   0  0  0  0  0  0  0  0  0  0  0  0
   -8.6887   36.8606  -15.7714 C   0  0  0  0  0  0  0  0  0  0  0  0
   -9.8855   37.4269  -15.5162 C   0  0  0  0  0  0  0  0  0  0  0  0
  -10.1074   37.9949  -14.2650 C   0  0  0  0  0  0  0  0  0  0  0  0
  -11.3029   38.6304  -13.7730 N   0  0  0  0  0  0  0  0  0  0  0  0
  -10.6446   37.2890  -16.6296 N   0  0  0  0  0  0  0  0  0  0  0  0
   -9.9049   36.6391  -17.5733 C   0  0  0  0  0  0  0  0  0  0  0  0
   -8.6963   36.3813  -17.0340 N   0  0  0  0  0  0  0  0  0  0  0  0
  1  3  1  6  0  0  0
  1  5  2  0  0  0  0
  1  9  1  0  0  0  0
  1 18  1  0  0  0  0
  2  4  1  1  0  0  0
  2  6  2  0  0  0  0
  2 10  1  0  0  0  0
  2 17  1  0  0  0  0
  7  9  1  0  0  0  0
  8 10  1  0  0  0  0
 11  7  1  6  0  0  0
 11 13  1  0  0  0  0
 11 15  1  0  0  0  0
 12  8  1  1  0  0  0
 12 14  1  0  0  0  0
 12 16  1  0  0  0  0
 13 23  1  0  0  0  0
 14 24  1  0  0  0  0
 15 17  1  1  0  0  0
 15 19  1  0  0  0  0
 16 18  1  6  0  0  0
 16 20  1  0  0  0  0
 19 21  1  1  0  0  0
 19 23  1  0  0  0  0
 20 22  1  6  0  0  0
 20 24  1  0  0  0  0
 23 34  1  6  0  0  0
 24 44  1  1  0  0  0
 25 26  2  0  0  0  0
 25 30  1  0  0  0  0
 26 27  1  0  0  0  0
 27 28  2  0  0  0  0
 28 29  1  0  0  0  0
 28 34  1  0  0  0  0
 29 30  2  0  0  0  0
 29 32  1  0  0  0  0
 30 31  1  0  0  0  0
 32 33  2  0  0  0  0
 33 34  1  0  0  0  0
 35 36  2  0  0  0  0
 35 40  1  0  0  0  0
 36 37  1  0  0  0  0
 37 38  2  0  0  0  0
 38 39  1  0  0  0  0
 38 44  1  0  0  0  0
 39 40  2  0  0  0  0
 39 42  1  0  0  0  0
 40 41  1  0  0  0  0
 42 43  2  0  0  0  0
 43 44  1  0  0  0  0
M  CHG  2   3  -1   4  -1
M  END
>  <CHROM.1>
54.84687029,68.33947050,-5.32721246,36.11839932,-14.30751533,-0.58996413
0.38591172,-2.34916873

>  <Name>
ligand

>  <RI>
0

>  <Rbt.Current_Directory>
/home/itssahil/PROJECTS/Mol_Feturizer/New_Systems/rnas/4QLM

>  <Rbt.Executable>
rbdock ($Id: //depot/dev/client3/rdock/2013.1/src/exe/rbdock.cxx#4 $)

>  <Rbt.Library>
libRbt.so (2013.1, Build901 2013/11/27)

>  <Rbt.Parameter_File>
/export/apps/rDock/src/rDock_2013.1_src/data/scripts/dock_solv.prm

>  <Rbt.Receptor>
prm/pocket_docking_8.prm

>  <SCORE>
-10.6175

>  <SCORE.INTER>
-8.71151

>  <SCORE.INTER.CONST>
1

>  <SCORE.INTER.POLAR>
0

>  <SCORE.INTER.ROT>
2

>  <SCORE.INTER.SOLV>
15.576

>  <SCORE.INTER.VDW>
-15.933

>  <SCORE.INTER.norm>
-0.197989

>  <SCORE.INTRA>
-1.90602

>  <SCORE.INTRA.DIHEDRAL>
0.0935582

>  <SCORE.INTRA.DIHEDRAL.0>
2.32994

>  <SCORE.INTRA.POLAR>
0

>  <SCORE.INTRA.POLAR.0>
0

>  <SCORE.INTRA.REPUL>
0

>  <SCORE.INTRA.REPUL.0>
0

>  <SCORE.INTRA.SOLV>
0.791992

>  <SCORE.INTRA.SOLV.lig_0>
-117.703

>  <SCORE.INTRA.VDW>
-2.3488

>  <SCORE.INTRA.VDW.0>
-1.59997

>  <SCORE.INTRA.norm>
-0.0433187

>  <SCORE.RESTR>
0

>  <SCORE.RESTR.CAVITY>
0

>  <SCORE.RESTR.norm>
0

>  <SCORE.SYSTEM>
0

>  <SCORE.SYSTEM.CONST>
0

>  <SCORE.SYSTEM.DIHEDRAL>
0

>  <SCORE.SYSTEM.SOLV>
0

>  <SCORE.SYSTEM.norm>
0

>  <SCORE.heavy>
44

>  <SCORE.norm>
-0.241308

>  <RMSD>
7.227

$$$$
ligand
 OpenBabel11021811513D
libRbt.so/2013.1/901 2013/11/27
 44 50  0  0  0  0  0  0  0  0999 V2000
   -3.3150   36.0926  -16.6762 P   0  0  2  0  0  0  0  0  0  0  0  0
   -6.5559   33.5266  -13.1951 P   0  0  1  0  0  0  0  0  0  0  0  0
   -1.9288   35.6337  -17.1215 O   0  5  0  0  0  0  0  0  0  0  0  0
   -7.1174   34.6155  -12.3135 O   0  5  0  0  0  0  0  0  0  0  0  0
   -3.3308   37.5939  -16.8355 O   0  0  0  0  0  0  0  0  0  0  0  0
   -7.3870   32.2494  -12.9362 O   0  0  0  0  0  0  0  0  0  0  0  0
   -2.7140   34.4222  -14.8624 C   0  0  0  0  0  0  0  0  0  0  0  0
   -5.9486   33.2950  -15.6942 C   0  0  0  0  0  0  0  0  0  0  0  0
   -3.4446   35.6104  -15.1952 O   0  0  0  0  0  0  0  0  0  0  0  0
   -6.5657   34.1703  -14.7085 O   0  0  0  0  0  0  0  0  0  0  0  0
   -2.8904   34.0939  -13.3837 C   0  0  1  0  0  0  0  0  0  0  0  0
   -6.1634   33.9871  -17.0929 C   0  0  1  0  0  0  0  0  0  0  0  0
   -2.0198   34.7804  -12.7105 O   0  0  0  0  0  0  0  0  0  0  0  0
   -7.4059   34.2458  -17.1495 O   0  0  0  0  0  0  0  0  0  0  0  0
   -4.2510   34.4744  -12.8467 C   0  0  1  0  0  0  0  0  0  0  0  0
   -5.5263   35.3908  -17.1177 C   0  0  1  0  0  0  0  0  0  0  0  0
   -4.9888   33.3330  -12.8128 O   0  0  0  0  0  0  0  0  0  0  0  0
   -4.3518   35.3825  -17.7599 O   0  0  0  0  0  0  0  0  0  0  0  0
   -3.9468   34.9698  -11.3899 C   0  0  1  0  0  0  0  0  0  0  0  0
   -6.5368   36.3315  -17.8128 C   0  0  1  0  0  0  0  0  0  0  0  0
   -4.2893   33.9070  -10.4068 O   0  0  0  0  0  0  0  0  0  0  0  0
   -6.1175   36.5997  -19.2261 O   0  0  0  0  0  0  0  0  0  0  0  0
   -2.6838   35.2510  -11.3499 C   0  0  2  0  0  0  0  0  0  0  0  0
   -7.6510   35.6836  -17.8086 C   0  0  2  0  0  0  0  0  0  0  0  0
   -3.2958   40.4446  -12.5637 N   0  0  0  0  0  0  0  0  0  0  0  0
   -3.8512   39.3997  -13.2397 C   0  0  0  0  0  0  0  0  0  0  0  0
   -3.6338   38.1036  -12.8467 N   0  0  0  0  0  0  0  0  0  0  0  0
   -2.8421   37.8643  -11.7576 C   0  0  0  0  0  0  0  0  0  0  0  0
   -2.2831   38.8812  -11.0870 C   0  0  0  0  0  0  0  0  0  0  0  0
   -2.5168   40.1957  -11.4872 C   0  0  0  0  0  0  0  0  0  0  0  0
   -1.9916   41.3488  -10.8711 N   0  0  0  0  0  0  0  0  0  0  0  0
   -1.5664   38.3608  -10.0683 N   0  0  0  0  0  0  0  0  0  0  0  0
   -1.6847   37.0035  -10.1234 C   0  0  0  0  0  0  0  0  0  0  0  0
   -2.4844   36.6962  -11.1531 N   0  0  0  0  0  0  0  0  0  0  0  0
   -9.1367   38.0133  -13.3944 N   0  0  0  0  0  0  0  0  0  0  0  0
   -7.9218   37.4638  -13.6562 C   0  0  0  0  0  0  0  0  0  0  0  0
   -7.6928   36.8800  -14.8703 N   0  0  0  0  0  0  0  0  0  0  0  0
   -8.6725   36.8538  -15.8137 C   0  0  0  0  0  0  0  0  0  0  0  0
   -9.8789   37.4011  -15.5625 C   0  0  0  0  0  0  0  0  0  0  0  0
  -10.1049   37.9901  -14.3219 C   0  0  0  0  0  0  0  0  0  0  0  0
  -11.3101   38.6115  -13.8354 N   0  0  0  0  0  0  0  0  0  0  0  0
  -10.6416   37.2253  -16.6682 N   0  0  0  0  0  0  0  0  0  0  0  0
   -9.8945   36.5711  -17.6030 C   0  0  0  0  0  0  0  0  0  0  0  0
   -8.6778   36.3487  -17.0661 N   0  0  0  0  0  0  0  0  0  0  0  0
  1  3  1  6  0  0  0
  1  5  2  0  0  0  0
  1  9  1  0  0  0  0
  1 18  1  0  0  0  0
  2  4  1  1  0  0  0
  2  6  2  0  0  0  0
  2 10  1  0  0  0  0
  2 17  1  0  0  0  0
  7  9  1  0  0  0  0
  8 10  1  0  0  0  0
 11  7  1  6  0  0  0
 11 13  1  0  0  0  0
 11 15  1  0  0  0  0
 12  8  1  1  0  0  0
 12 14  1  0  0  0  0
 12 16  1  0  0  0  0
 13 23  1  0  0  0  0
 14 24  1  0  0  0  0
 15 17  1  1  0  0  0
 15 19  1  0  0  0  0
 16 18  1  6  0  0  0
 16 20  1  0  0  0  0
 19 21  1  1  0  0  0
 19 23  1  0  0  0  0
 20 22  1  6  0  0  0
 20 24  1  0  0  0  0
 23 34  1  6  0  0  0
 24 44  1  1  0  0  0
 25 26  2  0  0  0  0
 25 30  1  0  0  0  0
 26 27  1  0  0  0  0
 27 28  2  0  0  0  0
 28 29  1  0  0  0  0
 28 34  1  0  0  0  0
 29 30  2  0  0  0  0
 29 32  1  0  0  0  0
 30 31  1  0  0  0  0
 32 33  2  0  0  0  0
 33 34  1  0  0  0  0
 35 36  2  0  0  0  0
 35 40  1  0  0  0  0
 36 37  1  0  0  0  0
 37 38  2  0  0  0  0
 38 39  1  0  0  0  0
 38 44  1  0  0  0  0
 39 40  2  0  0  0  0
 39 42  1  0  0  0  0
 40 41  1  0  0  0  0
 42 43  2  0  0  0  0
 43 44  1  0  0  0  0
M  CHG  2   3  -1   4  -1
M  END
>  <CHROM.1>
63.60773191,69.58567579,-5.33706656,36.13408381,-14.31506026,-0.59488757
0.40998716,-2.37364327

>  <Name>
ligand

>  <RI>
0

>  <Rbt.Current_Directory>
/home/itssahil/PROJECTS/Mol_Feturizer/New_Systems/rnas/4QLM

>  <Rbt.Executable>
rbdock ($Id: //depot/dev/client3/rdock/2013.1/src/exe/rbdock.cxx#4 $)

>  <Rbt.Library>
libRbt.so (2013.1, Build901 2013/11/27)

>  <Rbt.Parameter_File>
/export/apps/rDock/src/rDock_2013.1_src/data/scripts/dock_solv.prm

>  <Rbt.Receptor>
prm/pocket_docking_8.prm

>  <SCORE>
-10.6459

>  <SCORE.INTER>
-8.71673

>  <SCORE.INTER.CONST>
1

>  <SCORE.INTER.POLAR>
0

>  <SCORE.INTER.ROT>
2

>  <SCORE.INTER.SOLV>
15.712

>  <SCORE.INTER.VDW>
-15.9818

>  <SCORE.INTER.norm>
-0.198107

>  <SCORE.INTRA>
-1.92919

>  <SCORE.INTRA.DIHEDRAL>
0.0466609

>  <SCORE.INTRA.DIHEDRAL.0>
2.32994

>  <SCORE.INTRA.POLAR>
0

>  <SCORE.INTRA.POLAR.0>
0

>  <SCORE.INTRA.REPUL>
0

>  <SCORE.INTRA.REPUL.0>
0

>  <SCORE.INTRA.SOLV>
0.57154

>  <SCORE.INTRA.SOLV.lig_0>
-117.703

>  <SCORE.INTRA.VDW>
-2.23829

>  <SCORE.INTRA.VDW.0>
-1.59997

>  <SCORE.INTRA.norm>
-0.0438452

>  <SCORE.RESTR>
0

>  <SCORE.RESTR.CAVITY>
0

>  <SCORE.RESTR.norm>
0

>  <SCORE.SYSTEM>
0

>  <SCORE.SYSTEM.CONST>
0

>  <SCORE.SYSTEM.DIHEDRAL>
0

>  <SCORE.SYSTEM.SOLV>
0

>  <SCORE.SYSTEM.norm>
0

>  <SCORE.heavy>
44

>  <SCORE.norm>
-0.241953

>  <RMSD>
7.252

$$$$
ligand
 OpenBabel11021811513D
libRbt.so/2013.1/901 2013/11/27
 44 50  0  0  0  0  0  0  0  0999 V2000
  -10.6911   31.9024  -14.4543 P   0  0  2  0  0  0  0  0  0  0  0  0
   -8.1535   35.8946  -17.0675 P   0  0  1  0  0  0  0  0  0  0  0  0
  -11.7195   30.9458  -15.0526 O   0  5  0  0  0  0  0  0  0  0  0  0
   -8.1706   37.0588  -16.1071 O   0  5  0  0  0  0  0  0  0  0  0  0
  -10.9913   31.9697  -12.9762 O   0  0  0  0  0  0  0  0  0  0  0  0
   -7.1586   36.2437  -18.1976 O   0  0  0  0  0  0  0  0  0  0  0  0
  -11.3959   33.1442  -16.5525 C   0  0  0  0  0  0  0  0  0  0  0  0
   -7.8903   33.3333  -16.8698 C   0  0  0  0  0  0  0  0  0  0  0  0
  -10.9091   33.2540  -15.2082 O   0  0  0  0  0  0  0  0  0  0  0  0
   -7.8364   34.5836  -16.1265 O   0  0  0  0  0  0  0  0  0  0  0  0
  -11.6073   34.5315  -17.1496 C   0  0  1  0  0  0  0  0  0  0  0  0
   -7.4314   32.2065  -15.8693 C   0  0  1  0  0  0  0  0  0  0  0  0
  -12.7814   34.9509  -16.7918 O   0  0  0  0  0  0  0  0  0  0  0  0
   -6.3330   32.6198  -15.3828 O   0  0  0  0  0  0  0  0  0  0  0  0
  -10.6116   35.5533  -16.6507 C   0  0  1  0  0  0  0  0  0  0  0  0
   -8.3503   32.1593  -14.6322 C   0  0  1  0  0  0  0  0  0  0  0  0
   -9.6664   35.6804  -17.6197 O   0  0  0  0  0  0  0  0  0  0  0  0
   -9.2325   31.1562  -14.7175 O   0  0  0  0  0  0  0  0  0  0  0  0
  -11.4582   36.8689  -16.5397 C   0  0  1  0  0  0  0  0  0  0  0  0
   -7.4347   31.9951  -13.3976 C   0  0  1  0  0  0  0  0  0  0  0  0
  -11.1869   37.7511  -17.7066 O   0  0  0  0  0  0  0  0  0  0  0  0
   -7.4525   30.5761  -12.9163 O   0  0  0  0  0  0  0  0  0  0  0  0
  -12.7012   36.5086  -16.5080 C   0  0  2  0  0  0  0  0  0  0  0  0
   -6.2536   32.2937  -13.8179 C   0  0  2  0  0  0  0  0  0  0  0  0
  -13.5118   35.7994  -11.2486 N   0  0  0  0  0  0  0  0  0  0  0  0
  -12.6742   35.0614  -12.0302 C   0  0  0  0  0  0  0  0  0  0  0  0
  -12.5362   35.3247  -13.3693 N   0  0  0  0  0  0  0  0  0  0  0  0
  -13.2579   36.3461  -13.9226 C   0  0  0  0  0  0  0  0  0  0  0  0
  -14.0911   37.0761  -13.1682 C   0  0  0  0  0  0  0  0  0  0  0  0
  -14.2183   36.8081  -11.8063 C   0  0  0  0  0  0  0  0  0  0  0  0
  -15.0552   37.4978  -10.9069 N   0  0  0  0  0  0  0  0  0  0  0  0
  -14.6616   38.0061  -13.9631 N   0  0  0  0  0  0  0  0  0  0  0  0
  -14.1733   37.8352  -15.2247 C   0  0  0  0  0  0  0  0  0  0  0  0
  -13.2951   36.8242  -15.1985 N   0  0  0  0  0  0  0  0  0  0  0  0
   -7.0354   36.7662  -11.2673 N   0  0  0  0  0  0  0  0  0  0  0  0
   -7.9879   35.9438  -11.7798 C   0  0  0  0  0  0  0  0  0  0  0  0
   -7.6143   34.8028  -12.4323 N   0  0  0  0  0  0  0  0  0  0  0  0
   -6.2973   34.4885  -12.5634 C   0  0  0  0  0  0  0  0  0  0  0  0
   -5.3468   35.2975  -12.0534 C   0  0  0  0  0  0  0  0  0  0  0  0
   -5.7361   36.4597  -11.3938 C   0  0  0  0  0  0  0  0  0  0  0  0
   -4.9001   37.4681  -10.7944 N   0  0  0  0  0  0  0  0  0  0  0  0
   -4.1454   34.7386  -12.3351 N   0  0  0  0  0  0  0  0  0  0  0  0
   -4.3634   33.5778  -13.0168 C   0  0  0  0  0  0  0  0  0  0  0  0
   -5.6970   33.4306  -13.1502 N   0  0  0  0  0  0  0  0  0  0  0  0
  1  3  1  6  0  0  0
  1  5  2  0  0  0  0
  1  9  1  0  0  0  0
  1 18  1  0  0  0  0
  2  4  1  1  0  0  0
  2  6  2  0  0  0  0
  2 10  1  0  0  0  0
  2 17  1  0  0  0  0
  7  9  1  0  0  0  0
  8 10  1  0  0  0  0
 11  7  1  1  0  0  0
 11 13  1  0  0  0  0
 11 15  1  0  0  0  0
 12  8  1  6  0  0  0
 12 14  1  0  0  0  0
 12 16  1  0  0  0  0
 13 23  1  0  0  0  0
 14 24  1  0  0  0  0
 15 17  1  6  0  0  0
 15 19  1  0  0  0  0
 16 18  1  6  0  0  0
 16 20  1  0  0  0  0
 19 21  1  6  0  0  0
 19 23  1  0  0  0  0
 20 22  1  6  0  0  0
 20 24  1  0  0  0  0
 23 34  1  1  0  0  0
 24 44  1  1  0  0  0
 25 26  2  0  0  0  0
 25 30  1  0  0  0  0
 26 27  1  0  0  0  0
 27 28  2  0  0  0  0
 28 29  1  0  0  0  0
 28 34  1  0  0  0  0
 29 30  2  0  0  0  0
 29 32  1  0  0  0  0
 30 31  1  0  0  0  0
 32 33  2  0  0  0  0
 33 34  1  0  0  0  0
 35 36  2  0  0  0  0
 35 40  1  0  0  0  0
 36 37  1  0  0  0  0
 37 38  2  0  0  0  0
 38 39  1  0  0  0  0
 38 44  1  0  0  0  0
 39 40  2  0  0  0  0
 39 42  1  0  0  0  0
 40 41  1  0  0  0  0
 42 43  2  0  0  0  0
 43 44  1  0  0  0  0
M  CHG  2   3  -1   4  -1
M  END
>  <CHROM.1>
45.56141440,93.07786262,-9.61507527,34.72845153,-14.47987645,3.10613155,-0.36052855
1.11974208

>  <Name>
ligand

>  <RI>
0

>  <Rbt.Current_Directory>
/home/itssahil/PROJECTS/Mol_Feturizer/New_Systems/rnas/4QLM

>  <Rbt.Executable>
rbdock ($Id: //depot/dev/client3/rdock/2013.1/src/exe/rbdock.cxx#4 $)

>  <Rbt.Library>
libRbt.so (2013.1, Build901 2013/11/27)

>  <Rbt.Parameter_File>
/export/apps/rDock/src/rDock_2013.1_src/data/scripts/dock_solv.prm

>  <Rbt.Receptor>
prm/pocket_docking_7.prm

>  <SCORE>
-9.08088

>  <SCORE.INTER>
-7.92973

>  <SCORE.INTER.CONST>
1

>  <SCORE.INTER.POLAR>
0

>  <SCORE.INTER.ROT>
2

>  <SCORE.INTER.SOLV>
17.7603

>  <SCORE.INTER.VDW>
-16.1399

>  <SCORE.INTER.norm>
-0.180221

>  <SCORE.INTRA>
-1.19335

>  <SCORE.INTRA.DIHEDRAL>
0.145678

>  <SCORE.INTRA.DIHEDRAL.0>
2.32994

>  <SCORE.INTRA.POLAR>
0

>  <SCORE.INTRA.POLAR.0>
0

>  <SCORE.INTRA.REPUL>
0

>  <SCORE.INTRA.REPUL.0>
0

>  <SCORE.INTRA.SOLV>
0.340384

>  <SCORE.INTRA.SOLV.lig_0>
-117.703

>  <SCORE.INTRA.VDW>
-1.43638

>  <SCORE.INTRA.VDW.0>
-1.59997

>  <SCORE.INTRA.norm>
-0.0271216

>  <SCORE.RESTR>
0.0422064

>  <SCORE.RESTR.CAVITY>
0.0422064

>  <SCORE.RESTR.norm>
0.000959235

>  <SCORE.SYSTEM>
0

>  <SCORE.SYSTEM.CONST>
0

>  <SCORE.SYSTEM.DIHEDRAL>
0

>  <SCORE.SYSTEM.SOLV>
0

>  <SCORE.SYSTEM.norm>
0

>  <SCORE.heavy>
44

>  <SCORE.norm>
-0.206384

>  <RMSD>
7.279

$$$$
ligand
 OpenBabel11021811513D
libRbt.so/2013.1/901 2013/11/27
 44 50  0  0  0  0  0  0  0  0999 V2000
   -3.3106   36.1016  -16.6763 P   0  0  2  0  0  0  0  0  0  0  0  0
   -6.5547   33.5165  -13.2125 P   0  0  1  0  0  0  0  0  0  0  0  0
   -1.9226   35.6468  -17.1203 O   0  5  0  0  0  0  0  0  0  0  0  0
   -7.1201   34.6009  -12.3280 O   0  5  0  0  0  0  0  0  0  0  0  0
   -3.3287   37.6034  -16.8300 O   0  0  0  0  0  0  0  0  0  0  0  0
   -7.3840   32.2368  -12.9604 O   0  0  0  0  0  0  0  0  0  0  0  0
   -2.7106   34.4253  -14.8677 C   0  0  0  0  0  0  0  0  0  0  0  0
   -5.9413   33.2955  -15.7111 C   0  0  0  0  0  0  0  0  0  0  0  0
   -3.4426   35.6134  -15.1975 O   0  0  0  0  0  0  0  0  0  0  0  0
   -6.5623   34.1659  -14.7234 O   0  0  0  0  0  0  0  0  0  0  0  0
   -2.8898   34.0910  -13.3906 C   0  0  1  0  0  0  0  0  0  0  0  0
   -6.1542   33.9926  -17.1077 C   0  0  1  0  0  0  0  0  0  0  0  0
   -2.0219   34.7763  -12.7129 O   0  0  0  0  0  0  0  0  0  0  0  0
   -7.3971   34.2494  -17.1660 O   0  0  0  0  0  0  0  0  0  0  0  0
   -4.2523   34.4670  -12.8553 C   0  0  1  0  0  0  0  0  0  0  0  0
   -5.5196   35.3976  -17.1255 C   0  0  1  0  0  0  0  0  0  0  0  0
   -4.9881   33.3241  -12.8274 O   0  0  0  0  0  0  0  0  0  0  0  0
   -4.3437   35.3938  -17.7651 O   0  0  0  0  0  0  0  0  0  0  0  0
   -3.9522   34.9573  -11.3959 C   0  0  1  0  0  0  0  0  0  0  0  0
   -6.5302   36.3391  -17.8193 C   0  0  1  0  0  0  0  0  0  0  0  0
   -4.2950   33.8901  -10.4177 O   0  0  0  0  0  0  0  0  0  0  0  0
   -6.1082   36.6135  -19.2306 O   0  0  0  0  0  0  0  0  0  0  0  0
   -2.6898   35.2405  -11.3520 C   0  0  2  0  0  0  0  0  0  0  0  0
   -7.6432   35.6893  -17.8201 C   0  0  2  0  0  0  0  0  0  0  0  0
   -3.8304   40.4394  -12.0536 N   0  0  0  0  0  0  0  0  0  0  0  0
   -4.5255   39.3945  -12.5850 C   0  0  0  0  0  0  0  0  0  0  0  0
   -4.1520   38.0969  -12.3436 N   0  0  0  0  0  0  0  0  0  0  0  0
   -3.0598   37.8562  -11.5566 C   0  0  0  0  0  0  0  0  0  0  0  0
   -2.3619   38.8736  -11.0328 C   0  0  0  0  0  0  0  0  0  0  0  0
   -2.7538   40.1890  -11.2753 C   0  0  0  0  0  0  0  0  0  0  0  0
   -2.1096   41.3426  -10.7862 N   0  0  0  0  0  0  0  0  0  0  0  0
   -1.3521   38.3512  -10.3050 N   0  0  0  0  0  0  0  0  0  0  0  0
   -1.4316   36.9928  -10.3927 C   0  0  0  0  0  0  0  0  0  0  0  0
   -2.4934   36.6853  -11.1491 N   0  0  0  0  0  0  0  0  0  0  0  0
   -9.1295   38.0385  -13.4164 N   0  0  0  0  0  0  0  0  0  0  0  0
   -7.9104   37.4993  -13.6804 C   0  0  0  0  0  0  0  0  0  0  0  0
   -7.6818   36.9084  -14.8911 N   0  0  0  0  0  0  0  0  0  0  0  0
   -8.6662   36.8647  -15.8290 C   0  0  0  0  0  0  0  0  0  0  0  0
   -9.8768   37.4016  -15.5757 C   0  0  0  0  0  0  0  0  0  0  0  0
  -10.1023   37.9981  -14.3385 C   0  0  0  0  0  0  0  0  0  0  0  0
  -11.3112   38.6109  -13.8505 N   0  0  0  0  0  0  0  0  0  0  0  0
  -10.6434   37.2092  -16.6758 N   0  0  0  0  0  0  0  0  0  0  0  0
   -9.8947   36.5554  -17.6095 C   0  0  0  0  0  0  0  0  0  0  0  0
   -8.6729   36.3496  -17.0774 N   0  0  0  0  0  0  0  0  0  0  0  0
  1  3  1  6  0  0  0
  1  5  2  0  0  0  0
  1  9  1  0  0  0  0
  1 18  1  0  0  0  0
  2  4  1  1  0  0  0
  2  6  2  0  0  0  0
  2 10  1  0  0  0  0
  2 17  1  0  0  0  0
  7  9  1  0  0  0  0
  8 10  1  0  0  0  0
 11  7  1  6  0  0  0
 11 13  1  0  0  0  0
 11 15  1  0  0  0  0
 12  8  1  1  0  0  0
 12 14  1  0  0  0  0
 12 16  1  0  0  0  0
 13 23  1  0  0  0  0
 14 24  1  0  0  0  0
 15 17  1  1  0  0  0
 15 19  1  0  0  0  0
 16 18  1  6  0  0  0
 16 20  1  0  0  0  0
 19 21  1  1  0  0  0
 19 23  1  0  0  0  0
 20 22  1  6  0  0  0
 20 24  1  0  0  0  0
 23 34  1  6  0  0  0
 24 44  1  1  0  0  0
 25 26  2  0  0  0  0
 25 30  1  0  0  0  0
 26 27  1  0  0  0  0
 27 28  2  0  0  0  0
 28 29  1  0  0  0  0
 28 34  1  0  0  0  0
 29 30  2  0  0  0  0
 29 32  1  0  0  0  0
 30 31  1  0  0  0  0
 32 33  2  0  0  0  0
 33 34  1  0  0  0  0
 35 36  2  0  0  0  0
 35 40  1  0  0  0  0
 36 37  1  0  0  0  0
 37 38  2  0  0  0  0
 38 39  1  0  0  0  0
 38 44  1  0  0  0  0
 39 40  2  0  0  0  0
 39 42  1  0  0  0  0
 40 41  1  0  0  0  0
 42 43  2  0  0  0  0
 43 44  1  0  0  0  0
M  CHG  2   3  -1   4  -1
M  END
>  <CHROM.1>
81.62242573,70.52123255,-5.37319003,36.13378603,-14.28871300,-2.51852782
-0.40947134,0.80582997

>  <Name>
ligand

>  <RI>
0

>  <Rbt.Current_Directory>
/home/itssahil/PROJECTS/Mol_Feturizer/New_Systems/rnas/4QLM

>  <Rbt.Executable>
rbdock ($Id: //depot/dev/client3/rdock/2013.1/src/exe/rbdock.cxx#4 $)

>  <Rbt.Library>
libRbt.so (2013.1, Build901 2013/11/27)

>  <Rbt.Parameter_File>
/export/apps/rDock/src/rDock_2013.1_src/data/scripts/dock_solv.prm

>  <Rbt.Receptor>
prm/pocket_docking_8.prm

>  <SCORE>
-10.3554

>  <SCORE.INTER>
-8.6128

>  <SCORE.INTER.CONST>
1

>  <SCORE.INTER.POLAR>
0

>  <SCORE.INTER.ROT>
2

>  <SCORE.INTER.SOLV>
15.7271

>  <SCORE.INTER.VDW>
-15.9176

>  <SCORE.INTER.norm>
-0.195745

>  <SCORE.INTRA>
-1.7426

>  <SCORE.INTRA.DIHEDRAL>
-0.0225935

>  <SCORE.INTRA.DIHEDRAL.0>
2.32994

>  <SCORE.INTRA.POLAR>
0

>  <SCORE.INTRA.POLAR.0>
0

>  <SCORE.INTRA.REPUL>
0

>  <SCORE.INTRA.REPUL.0>
0

>  <SCORE.INTRA.SOLV>
0.505999

>  <SCORE.INTRA.SOLV.lig_0>
-117.703

>  <SCORE.INTRA.VDW>
-1.9843

>  <SCORE.INTRA.VDW.0>
-1.59997

>  <SCORE.INTRA.norm>
-0.0396045

>  <SCORE.RESTR>
0

>  <SCORE.RESTR.CAVITY>
0

>  <SCORE.RESTR.norm>
0

>  <SCORE.SYSTEM>
0

>  <SCORE.SYSTEM.CONST>
0

>  <SCORE.SYSTEM.DIHEDRAL>
0

>  <SCORE.SYSTEM.SOLV>
0

>  <SCORE.SYSTEM.norm>
0

>  <SCORE.heavy>
44

>  <SCORE.norm>
-0.23535

>  <RMSD>
7.314

$$$$
ligand
 OpenBabel11021811513D
libRbt.so/2013.1/901 2013/11/27
 44 50  0  0  0  0  0  0  0  0999 V2000
   -3.6834   37.8239  -16.3143 P   0  0  2  0  0  0  0  0  0  0  0  0
   -4.7109   33.0247  -14.0521 P   0  0  1  0  0  0  0  0  0  0  0  0
   -2.4000   38.2211  -17.0393 O   0  5  0  0  0  0  0  0  0  0  0  0
   -5.3684   33.3508  -12.7332 O   0  5  0  0  0  0  0  0  0  0  0  0
   -4.2833   39.1067  -15.7909 O   0  0  0  0  0  0  0  0  0  0  0  0
   -4.9211   31.5156  -14.3114 O   0  0  0  0  0  0  0  0  0  0  0  0
   -2.0544   36.0613  -15.4890 C   0  0  0  0  0  0  0  0  0  0  0  0
   -4.7579   34.0087  -16.4391 C   0  0  0  0  0  0  0  0  0  0  0  0
   -3.2259   36.8342  -15.1945 O   0  0  0  0  0  0  0  0  0  0  0  0
   -5.3599   34.0971  -15.1168 O   0  0  0  0  0  0  0  0  0  0  0  0
   -1.6950   35.1781  -14.2989 C   0  0  1  0  0  0  0  0  0  0  0  0
   -5.5766   34.9886  -17.3616 C   0  0  1  0  0  0  0  0  0  0  0  0
   -0.9849   35.8821  -13.4729 O   0  0  0  0  0  0  0  0  0  0  0  0
   -6.7945   34.6725  -17.1858 O   0  0  0  0  0  0  0  0  0  0  0  0
   -2.9025   34.6946  -13.5291 C   0  0  1  0  0  0  0  0  0  0  0  0
   -5.5222   36.4310  -16.8199 C   0  0  1  0  0  0  0  0  0  0  0  0
   -3.1391   33.4197  -13.9375 O   0  0  0  0  0  0  0  0  0  0  0  0
   -4.6438   37.1758  -17.5022 O   0  0  0  0  0  0  0  0  0  0  0  0
   -2.4178   34.7077  -12.0375 C   0  0  1  0  0  0  0  0  0  0  0  0
   -6.9516   37.0084  -16.9331 C   0  0  1  0  0  0  0  0  0  0  0  0
   -2.0745   33.3279  -11.5997 O   0  0  0  0  0  0  0  0  0  0  0  0
   -7.0548   37.9260  -18.1133 O   0  0  0  0  0  0  0  0  0  0  0  0
   -1.3814   35.4819  -11.9910 C   0  0  2  0  0  0  0  0  0  0  0  0
   -7.7106   35.9830  -17.1158 C   0  0  2  0  0  0  0  0  0  0  0  0
   -3.5269   40.3256  -11.1213 N   0  0  0  0  0  0  0  0  0  0  0  0
   -3.6606   39.5902  -12.2608 C   0  0  0  0  0  0  0  0  0  0  0  0
   -3.0715   38.3576  -12.3838 N   0  0  0  0  0  0  0  0  0  0  0  0
   -2.3363   37.8664  -11.3405 C   0  0  0  0  0  0  0  0  0  0  0  0
   -2.1897   38.5812  -10.2162 C   0  0  0  0  0  0  0  0  0  0  0  0
   -2.7995   39.8287  -10.0959 C   0  0  0  0  0  0  0  0  0  0  0  0
   -2.7241   40.6761   -8.9728 N   0  0  0  0  0  0  0  0  0  0  0  0
   -1.4293   37.8612   -9.3644 N   0  0  0  0  0  0  0  0  0  0  0  0
   -1.1009   36.6912   -9.9828 C   0  0  0  0  0  0  0  0  0  0  0  0
   -1.6730   36.6847  -11.1938 N   0  0  0  0  0  0  0  0  0  0  0  0
  -12.4374   37.0291  -15.1967 N   0  0  0  0  0  0  0  0  0  0  0  0
  -11.9114   37.4896  -16.3618 C   0  0  0  0  0  0  0  0  0  0  0  0
  -10.6445   37.1246  -16.7211 N   0  0  0  0  0  0  0  0  0  0  0  0
   -9.9158   36.3008  -15.9205 C   0  0  0  0  0  0  0  0  0  0  0  0
  -10.4330   35.8364  -14.7651 C   0  0  0  0  0  0  0  0  0  0  0  0
  -11.7226   36.2163  -14.4050 C   0  0  0  0  0  0  0  0  0  0  0  0
  -12.4597   35.8596  -13.2198 N   0  0  0  0  0  0  0  0  0  0  0  0
   -9.4918   35.0528  -14.1861 N   0  0  0  0  0  0  0  0  0  0  0  0
   -8.3944   35.0339  -14.9957 C   0  0  0  0  0  0  0  0  0  0  0  0
   -8.6677   35.8060  -16.0667 N   0  0  0  0  0  0  0  0  0  0  0  0
  1  3  1  6  0  0  0
  1  5  2  0  0  0  0
  1  9  1  0  0  0  0
  1 18  1  0  0  0  0
  2  4  1  1  0  0  0
  2  6  2  0  0  0  0
  2 10  1  0  0  0  0
  2 17  1  0  0  0  0
  7  9  1  0  0  0  0
  8 10  1  0  0  0  0
 11  7  1  6  0  0  0
 11 13  1  0  0  0  0
 11 15  1  0  0  0  0
 12  8  1  1  0  0  0
 12 14  1  0  0  0  0
 12 16  1  0  0  0  0
 13 23  1  0  0  0  0
 14 24  1  0  0  0  0
 15 17  1  6  0  0  0
 15 19  1  0  0  0  0
 16 18  1  6  0  0  0
 16 20  1  0  0  0  0
 19 21  1  6  0  0  0
 19 23  1  0  0  0  0
 20 22  1  6  0  0  0
 20 24  1  0  0  0  0
 23 34  1  1  0  0  0
 24 44  1  1  0  0  0
 25 26  2  0  0  0  0
 25 30  1  0  0  0  0
 26 27  1  0  0  0  0
 27 28  2  0  0  0  0
 28 29  1  0  0  0  0
 28 34  1  0  0  0  0
 29 30  2  0  0  0  0
 29 32  1  0  0  0  0
 30 31  1  0  0  0  0
 32 33  2  0  0  0  0
 33 34  1  0  0  0  0
 35 36  2  0  0  0  0
 35 40  1  0  0  0  0
 36 37  1  0  0  0  0
 37 38  2  0  0  0  0
 38 39  1  0  0  0  0
 38 44  1  0  0  0  0
 39 40  2  0  0  0  0
 39 42  1  0  0  0  0
 40 41  1  0  0  0  0
 42 43  2  0  0  0  0
 43 44  1  0  0  0  0
M  CHG  2   3  -1   4  -1
M  END
>  <CHROM.1>
42.64476953,-150.93106699,-5.11309480,36.24163365,-14.27780976,-0.38172723
0.34970880,-2.51096677

>  <Name>
ligand

>  <RI>
0

>  <Rbt.Current_Directory>
/home/itssahil/PROJECTS/Mol_Feturizer/New_Systems/rnas/4QLM

>  <Rbt.Executable>
rbdock ($Id: //depot/dev/client3/rdock/2013.1/src/exe/rbdock.cxx#4 $)

>  <Rbt.Library>
libRbt.so (2013.1, Build901 2013/11/27)

>  <Rbt.Parameter_File>
/export/apps/rDock/src/rDock_2013.1_src/data/scripts/dock_solv.prm

>  <Rbt.Receptor>
prm/pocket_docking_7.prm

>  <SCORE>
-6.7272

>  <SCORE.INTER>
-5.75163

>  <SCORE.INTER.CONST>
1

>  <SCORE.INTER.POLAR>
0

>  <SCORE.INTER.ROT>
2

>  <SCORE.INTER.SOLV>
23.9052

>  <SCORE.INTER.VDW>
-16.7362

>  <SCORE.INTER.norm>
-0.130719

>  <SCORE.INTRA>
-0.975568

>  <SCORE.INTRA.DIHEDRAL>
0.157522

>  <SCORE.INTRA.DIHEDRAL.0>
2.32994

>  <SCORE.INTRA.POLAR>
0

>  <SCORE.INTRA.POLAR.0>
0

>  <SCORE.INTRA.REPUL>
0

>  <SCORE.INTRA.REPUL.0>
0

>  <SCORE.INTRA.SOLV>
0.346541

>  <SCORE.INTRA.SOLV.lig_0>
-117.703

>  <SCORE.INTRA.VDW>
-1.2276

>  <SCORE.INTRA.VDW.0>
-1.59997

>  <SCORE.INTRA.norm>
-0.022172

>  <SCORE.RESTR>
3.55671e-07

>  <SCORE.RESTR.CAVITY>
3.55671e-07

>  <SCORE.RESTR.norm>
8.08343e-09

>  <SCORE.SYSTEM>
0

>  <SCORE.SYSTEM.CONST>
0

>  <SCORE.SYSTEM.DIHEDRAL>
0

>  <SCORE.SYSTEM.SOLV>
0

>  <SCORE.SYSTEM.norm>
0

>  <SCORE.heavy>
44

>  <SCORE.norm>
-0.152891

>  <RMSD>
7.346

$$$$
ligand
 OpenBabel11021811513D
libRbt.so/2013.1/901 2013/11/27
 44 50  0  0  0  0  0  0  0  0999 V2000
   -5.0194   33.1299  -13.5505 P   0  0  2  0  0  0  0  0  0  0  0  0
   -4.0958   37.9931  -15.7190 P   0  0  1  0  0  0  0  0  0  0  0  0
   -4.5788   31.7878  -14.1292 O   0  5  0  0  0  0  0  0  0  0  0  0
   -5.3965   38.7420  -15.5593 O   0  5  0  0  0  0  0  0  0  0  0  0
   -6.2368   32.8424  -12.7049 O   0  0  0  0  0  0  0  0  0  0  0  0
   -3.0148   39.0252  -16.1127 O   0  0  0  0  0  0  0  0  0  0  0  0
   -4.5360   33.7401  -15.9661 C   0  0  0  0  0  0  0  0  0  0  0  0
   -2.7525   36.2928  -14.3144 C   0  0  0  0  0  0  0  0  0  0  0  0
   -5.3090   34.0313  -14.7939 O   0  0  0  0  0  0  0  0  0  0  0  0
   -3.9125   37.1720  -14.3058 O   0  0  0  0  0  0  0  0  0  0  0  0
   -4.9517   34.6579  -17.1108 C   0  0  1  0  0  0  0  0  0  0  0  0
   -2.6413   35.6967  -12.8605 C   0  0  1  0  0  0  0  0  0  0  0  0
   -5.9818   34.1314  -17.6974 O   0  0  0  0  0  0  0  0  0  0  0  0
   -2.6822   36.7017  -12.0843 O   0  0  0  0  0  0  0  0  0  0  0  0
   -5.3725   36.0341  -16.6489 C   0  0  1  0  0  0  0  0  0  0  0  0
   -3.9216   34.9264  -12.4806 C   0  0  1  0  0  0  0  0  0  0  0  0
   -4.3107   36.8566  -16.8599 O   0  0  0  0  0  0  0  0  0  0  0  0
   -3.7478   33.6041  -12.5956 O   0  0  0  0  0  0  0  0  0  0  0  0
   -6.5491   36.4041  -17.6179 C   0  0  1  0  0  0  0  0  0  0  0  0
   -4.2690   35.3201  -11.0268 C   0  0  1  0  0  0  0  0  0  0  0  0
   -6.0676   37.3343  -18.6744 O   0  0  0  0  0  0  0  0  0  0  0  0
   -3.8637   34.2336  -10.0778 O   0  0  0  0  0  0  0  0  0  0  0  0
   -6.9692   35.2931  -18.1325 C   0  0  2  0  0  0  0  0  0  0  0  0
   -3.5722   36.3790  -10.7938 C   0  0  2  0  0  0  0  0  0  0  0  0
  -11.9866   36.5682  -16.7109 N   0  0  0  0  0  0  0  0  0  0  0  0
  -11.0330   37.4454  -17.1331 C   0  0  0  0  0  0  0  0  0  0  0  0
   -9.7758   37.0171  -17.4760 N   0  0  0  0  0  0  0  0  0  0  0  0
   -9.4816   35.6845  -17.3871 C   0  0  0  0  0  0  0  0  0  0  0  0
  -10.4068   34.8107  -16.9666 C   0  0  0  0  0  0  0  0  0  0  0  0
  -11.6847   35.2531  -16.6292 C   0  0  0  0  0  0  0  0  0  0  0  0
  -12.7431   34.4411  -16.1757 N   0  0  0  0  0  0  0  0  0  0  0  0
   -9.8510   33.5806  -16.9814 N   0  0  0  0  0  0  0  0  0  0  0  0
   -8.5632   33.7079  -17.4112 C   0  0  0  0  0  0  0  0  0  0  0  0
   -8.3387   35.0011  -17.6783 N   0  0  0  0  0  0  0  0  0  0  0  0
   -7.3658   39.6187  -12.2883 N   0  0  0  0  0  0  0  0  0  0  0  0
   -6.8798   38.5577  -12.9843 C   0  0  0  0  0  0  0  0  0  0  0  0
   -5.8703   37.8064  -12.4516 N   0  0  0  0  0  0  0  0  0  0  0  0
   -5.3582   38.1148  -11.2296 C   0  0  0  0  0  0  0  0  0  0  0  0
   -5.8386   39.1635  -10.5313 C   0  0  0  0  0  0  0  0  0  0  0  0
   -6.8642   39.9257  -11.0831 C   0  0  0  0  0  0  0  0  0  0  0  0
   -7.5093   41.0882  -10.5288 N   0  0  0  0  0  0  0  0  0  0  0  0
   -5.1452   39.2282   -9.3694 N   0  0  0  0  0  0  0  0  0  0  0  0
   -4.2390   38.2091   -9.3552 C   0  0  0  0  0  0  0  0  0  0  0  0
   -4.3808   37.5248  -10.5083 N   0  0  0  0  0  0  0  0  0  0  0  0
  1  3  1  6  0  0  0
  1  5  2  0  0  0  0
  1  9  1  0  0  0  0
  1 18  1  0  0  0  0
  2  4  1  1  0  0  0
  2  6  2  0  0  0  0
  2 10  1  0  0  0  0
  2 17  1  0  0  0  0
  7  9  1  0  0  0  0
  8 10  1  0  0  0  0
 11  7  1  1  0  0  0
 11 13  1  0  0  0  0
 11 15  1  0  0  0  0
 12  8  1  6  0  0  0
 12 14  1  0  0  0  0
 12 16  1  0  0  0  0
 13 23  1  0  0  0  0
 14 24  1  0  0  0  0
 15 17  1  6  0  0  0
 15 19  1  0  0  0  0
 16 18  1  1  0  0  0
 16 20  1  0  0  0  0
 19 21  1  6  0  0  0
 19 23  1  0  0  0  0
 20 22  1  1  0  0  0
 20 24  1  0  0  0  0
 23 34  1  1  0  0  0
 24 44  1  6  0  0  0
 25 26  2  0  0  0  0
 25 30  1  0  0  0  0
 26 27  1  0  0  0  0
 27 28  2  0  0  0  0
 28 29  1  0  0  0  0
 28 34  1  0  0  0  0
 29 30  2  0  0  0  0
 29 32  1  0  0  0  0
 30 31  1  0  0  0  0
 32 33  2  0  0  0  0
 33 34  1  0  0  0  0
 35 36  2  0  0  0  0
 35 40  1  0  0  0  0
 36 37  1  0  0  0  0
 37 38  2  0  0  0  0
 38 39  1  0  0  0  0
 38 44  1  0  0  0  0
 39 40  2  0  0  0  0
 39 42  1  0  0  0  0
 40 41  1  0  0  0  0
 42 43  2  0  0  0  0
 43 44  1  0  0  0  0
M  CHG  2   3  -1   4  -1
M  END
>  <CHROM.1>
156.11292035,63.53818507,-6.02061115,36.17132870,-14.40931637,-0.74262005
0.56171925,-2.40729343

>  <Name>
ligand

>  <RI>
0

>  <Rbt.Current_Directory>
/home/itssahil/PROJECTS/Mol_Feturizer/New_Systems/rnas/4QLM

>  <Rbt.Executable>
rbdock ($Id: //depot/dev/client3/rdock/2013.1/src/exe/rbdock.cxx#4 $)

>  <Rbt.Library>
libRbt.so (2013.1, Build901 2013/11/27)

>  <Rbt.Parameter_File>
/export/apps/rDock/src/rDock_2013.1_src/data/scripts/dock_solv.prm

>  <Rbt.Receptor>
prm/pocket_docking_6.prm

>  <SCORE>
-9.82453

>  <SCORE.INTER>
-9.26017

>  <SCORE.INTER.CONST>
1

>  <SCORE.INTER.POLAR>
0

>  <SCORE.INTER.ROT>
2

>  <SCORE.INTER.SOLV>
22.2239

>  <SCORE.INTER.VDW>
-18.5148

>  <SCORE.INTER.norm>
-0.210458

>  <SCORE.INTRA>
-0.564354

>  <SCORE.INTRA.DIHEDRAL>
0.168049

>  <SCORE.INTRA.DIHEDRAL.0>
2.32994

>  <SCORE.INTRA.POLAR>
0

>  <SCORE.INTRA.POLAR.0>
0

>  <SCORE.INTRA.REPUL>
0

>  <SCORE.INTRA.REPUL.0>
0

>  <SCORE.INTRA.SOLV>
0.855641

>  <SCORE.INTRA.SOLV.lig_0>
-117.703

>  <SCORE.INTRA.VDW>
-1.0762

>  <SCORE.INTRA.VDW.0>
-1.59997

>  <SCORE.INTRA.norm>
-0.0128262

>  <SCORE.RESTR>
0

>  <SCORE.RESTR.CAVITY>
0

>  <SCORE.RESTR.norm>
0

>  <SCORE.SYSTEM>
0

>  <SCORE.SYSTEM.CONST>
0

>  <SCORE.SYSTEM.DIHEDRAL>
0

>  <SCORE.SYSTEM.SOLV>
0

>  <SCORE.SYSTEM.norm>
0

>  <SCORE.heavy>
44

>  <SCORE.norm>
-0.223285

>  <RMSD>
7.350

$$$$
ligand
 OpenBabel11021811513D
libRbt.so/2013.1/901 2013/11/27
 44 50  0  0  0  0  0  0  0  0999 V2000
   -5.0176   33.1350  -13.5438 P   0  0  2  0  0  0  0  0  0  0  0  0
   -4.0956   37.9986  -15.7120 P   0  0  1  0  0  0  0  0  0  0  0  0
   -4.5760   31.7931  -14.1223 O   0  5  0  0  0  0  0  0  0  0  0  0
   -5.3967   38.7468  -15.5530 O   0  5  0  0  0  0  0  0  0  0  0  0
   -6.2352   32.8469  -12.6988 O   0  0  0  0  0  0  0  0  0  0  0  0
   -3.0150   39.0313  -16.1053 O   0  0  0  0  0  0  0  0  0  0  0  0
   -4.5335   33.7454  -15.9592 C   0  0  0  0  0  0  0  0  0  0  0  0
   -2.7520   36.2991  -14.3068 C   0  0  0  0  0  0  0  0  0  0  0  0
   -5.3071   34.0363  -14.7874 O   0  0  0  0  0  0  0  0  0  0  0  0
   -3.9124   37.1777  -14.2987 O   0  0  0  0  0  0  0  0  0  0  0  0
   -4.9491   34.6629  -17.1042 C   0  0  1  0  0  0  0  0  0  0  0  0
   -2.6412   35.7031  -12.8528 C   0  0  1  0  0  0  0  0  0  0  0  0
   -5.9787   34.1359  -17.6912 O   0  0  0  0  0  0  0  0  0  0  0  0
   -2.6829   36.7081  -12.0767 O   0  0  0  0  0  0  0  0  0  0  0  0
   -5.3708   36.0389  -16.6425 C   0  0  1  0  0  0  0  0  0  0  0  0
   -3.9212   34.9321  -12.4734 C   0  0  1  0  0  0  0  0  0  0  0  0
   -4.3094   36.8619  -16.8530 O   0  0  0  0  0  0  0  0  0  0  0  0
   -3.7467   33.6099  -12.5884 O   0  0  0  0  0  0  0  0  0  0  0  0
   -6.5471   36.4083  -17.6120 C   0  0  1  0  0  0  0  0  0  0  0  0
   -4.2695   35.3257  -11.0198 C   0  0  1  0  0  0  0  0  0  0  0  0
   -6.0657   37.3387  -18.6683 O   0  0  0  0  0  0  0  0  0  0  0  0
   -3.8641   34.2395  -10.0706 O   0  0  0  0  0  0  0  0  0  0  0  0
   -6.9664   35.2970  -18.1267 C   0  0  2  0  0  0  0  0  0  0  0  0
   -3.5734   36.3850  -10.7866 C   0  0  2  0  0  0  0  0  0  0  0  0
  -11.9827   36.5704  -16.6994 N   0  0  0  0  0  0  0  0  0  0  0  0
  -11.0286   37.4484  -17.1190 C   0  0  0  0  0  0  0  0  0  0  0  0
   -9.7718   37.0205  -17.4636 N   0  0  0  0  0  0  0  0  0  0  0  0
   -9.4784   35.6875  -17.3794 C   0  0  0  0  0  0  0  0  0  0  0  0
  -10.4040   34.8128  -16.9616 C   0  0  0  0  0  0  0  0  0  0  0  0
  -11.6816   35.2548  -16.6223 C   0  0  0  0  0  0  0  0  0  0  0  0
  -12.7403   34.4419  -16.1713 N   0  0  0  0  0  0  0  0  0  0  0  0
   -9.8489   33.5824  -16.9807 N   0  0  0  0  0  0  0  0  0  0  0  0
   -8.5612   33.7104  -17.4104 C   0  0  0  0  0  0  0  0  0  0  0  0
   -8.3360   35.0044  -17.6732 N   0  0  0  0  0  0  0  0  0  0  0  0
   -7.3624   39.6274  -12.2865 N   0  0  0  0  0  0  0  0  0  0  0  0
   -6.8746   38.5675  -12.9829 C   0  0  0  0  0  0  0  0  0  0  0  0
   -5.8667   37.8153  -12.4485 N   0  0  0  0  0  0  0  0  0  0  0  0
   -5.3580   38.1216  -11.2246 C   0  0  0  0  0  0  0  0  0  0  0  0
   -5.8403   39.1692  -10.5259 C   0  0  0  0  0  0  0  0  0  0  0  0
   -6.8643   39.9323  -11.0794 C   0  0  0  0  0  0  0  0  0  0  0  0
   -7.5109   41.0940  -10.5250 N   0  0  0  0  0  0  0  0  0  0  0  0
   -5.1502   39.2319   -9.3619 N   0  0  0  0  0  0  0  0  0  0  0  0
   -4.2442   38.2127   -9.3468 C   0  0  0  0  0  0  0  0  0  0  0  0
   -4.3827   37.5303  -10.5015 N   0  0  0  0  0  0  0  0  0  0  0  0
  1  3  1  6  0  0  0
  1  5  2  0  0  0  0
  1  9  1  0  0  0  0
  1 18  1  0  0  0  0
  2  4  1  1  0  0  0
  2  6  2  0  0  0  0
  2 10  1  0  0  0  0
  2 17  1  0  0  0  0
  7  9  1  0  0  0  0
  8 10  1  0  0  0  0
 11  7  1  1  0  0  0
 11 13  1  0  0  0  0
 11 15  1  0  0  0  0
 12  8  1  6  0  0  0
 12 14  1  0  0  0  0
 12 16  1  0  0  0  0
 13 23  1  0  0  0  0
 14 24  1  0  0  0  0
 15 17  1  6  0  0  0
 15 19  1  0  0  0  0
 16 18  1  1  0  0  0
 16 20  1  0  0  0  0
 19 21  1  6  0  0  0
 19 23  1  0  0  0  0
 20 22  1  1  0  0  0
 20 24  1  0  0  0  0
 23 34  1  1  0  0  0
 24 44  1  6  0  0  0
 25 26  2  0  0  0  0
 25 30  1  0  0  0  0
 26 27  1  0  0  0  0
 27 28  2  0  0  0  0
 28 29  1  0  0  0  0
 28 34  1  0  0  0  0
 29 30  2  0  0  0  0
 29 32  1  0  0  0  0
 30 31  1  0  0  0  0
 32 33  2  0  0  0  0
 33 34  1  0  0  0  0
 35 36  2  0  0  0  0
 35 40  1  0  0  0  0
 36 37  1  0  0  0  0
 37 38  2  0  0  0  0
 38 39  1  0  0  0  0
 38 44  1  0  0  0  0
 39 40  2  0  0  0  0
 39 42  1  0  0  0  0
 40 41  1  0  0  0  0
 42 43  2  0  0  0  0
 43 44  1  0  0  0  0
M  CHG  2   3  -1   4  -1
M  END
>  <CHROM.1>
155.90232929,63.36658409,-6.01942035,36.17630534,-14.40292494,-0.74338558
0.56200991,-2.40771192

>  <Name>
ligand

>  <RI>
0

>  <Rbt.Current_Directory>
/home/itssahil/PROJECTS/Mol_Feturizer/New_Systems/rnas/4QLM

>  <Rbt.Executable>
rbdock ($Id: //depot/dev/client3/rdock/2013.1/src/exe/rbdock.cxx#4 $)

>  <Rbt.Library>
libRbt.so (2013.1, Build901 2013/11/27)

>  <Rbt.Parameter_File>
/export/apps/rDock/src/rDock_2013.1_src/data/scripts/dock_solv.prm

>  <Rbt.Receptor>
prm/pocket_docking_6.prm

>  <SCORE>
-9.85365

>  <SCORE.INTER>
-9.29545

>  <SCORE.INTER.CONST>
1

>  <SCORE.INTER.POLAR>
0

>  <SCORE.INTER.ROT>
2

>  <SCORE.INTER.SOLV>
22.1914

>  <SCORE.INTER.VDW>
-18.5274

>  <SCORE.INTER.norm>
-0.21126

>  <SCORE.INTRA>
-0.561491

>  <SCORE.INTRA.DIHEDRAL>
0.168404

>  <SCORE.INTRA.DIHEDRAL.0>
2.32994

>  <SCORE.INTRA.POLAR>
0

>  <SCORE.INTRA.POLAR.0>
0

>  <SCORE.INTRA.REPUL>
0

>  <SCORE.INTRA.REPUL.0>
0

>  <SCORE.INTRA.SOLV>
0.863528

>  <SCORE.INTRA.SOLV.lig_0>
-117.703

>  <SCORE.INTRA.VDW>
-1.07746

>  <SCORE.INTRA.VDW.0>
-1.59997

>  <SCORE.INTRA.norm>
-0.0127612

>  <SCORE.RESTR>
0.00328942

>  <SCORE.RESTR.CAVITY>
0.00328942

>  <SCORE.RESTR.norm>
7.47596e-05

>  <SCORE.SYSTEM>
0

>  <SCORE.SYSTEM.CONST>
0

>  <SCORE.SYSTEM.DIHEDRAL>
0

>  <SCORE.SYSTEM.SOLV>
0

>  <SCORE.SYSTEM.norm>
0

>  <SCORE.heavy>
44

>  <SCORE.norm>
-0.223947

>  <RMSD>
7.352

$$$$
ligand
 OpenBabel11021811513D
libRbt.so/2013.1/901 2013/11/27
 44 50  0  0  0  0  0  0  0  0999 V2000
   -5.0022   33.1788  -13.5595 P   0  0  2  0  0  0  0  0  0  0  0  0
   -4.0216   38.0381  -15.7116 P   0  0  1  0  0  0  0  0  0  0  0  0
   -4.5689   31.8341  -14.1377 O   0  5  0  0  0  0  0  0  0  0  0  0
   -5.3170   38.7978  -15.5598 O   0  5  0  0  0  0  0  0  0  0  0  0
   -6.2280   32.9001  -12.7232 O   0  0  0  0  0  0  0  0  0  0  0  0
   -2.9290   39.0618  -16.0955 O   0  0  0  0  0  0  0  0  0  0  0  0
   -4.4963   33.7896  -15.9703 C   0  0  0  0  0  0  0  0  0  0  0  0
   -2.7029   36.3237  -14.3009 C   0  0  0  0  0  0  0  0  0  0  0  0
   -5.2752   34.0851  -14.8032 O   0  0  0  0  0  0  0  0  0  0  0  0
   -3.8554   37.2127  -14.2988 O   0  0  0  0  0  0  0  0  0  0  0  0
   -4.8959   34.7131  -17.1162 C   0  0  1  0  0  0  0  0  0  0  0  0
   -2.6073   35.7239  -12.8474 C   0  0  1  0  0  0  0  0  0  0  0  0
   -5.9262   34.1966  -17.7111 O   0  0  0  0  0  0  0  0  0  0  0  0
   -2.6451   36.7277  -12.0695 O   0  0  0  0  0  0  0  0  0  0  0  0
   -5.3082   36.0919  -16.6546 C   0  0  1  0  0  0  0  0  0  0  0  0
   -3.8968   34.9638  -12.4781 C   0  0  1  0  0  0  0  0  0  0  0  0
   -4.2380   36.9057  -16.8563 O   0  0  0  0  0  0  0  0  0  0  0  0
   -3.7335   33.6403  -12.5946 O   0  0  0  0  0  0  0  0  0  0  0  0
   -6.4746   36.4738  -17.6312 C   0  0  1  0  0  0  0  0  0  0  0  0
   -4.2513   35.3577  -11.0261 C   0  0  1  0  0  0  0  0  0  0  0  0
   -5.9777   37.4019  -18.6824 O   0  0  0  0  0  0  0  0  0  0  0  0
   -3.8621   34.2659  -10.0764 O   0  0  0  0  0  0  0  0  0  0  0  0
   -6.9005   35.3674  -18.1510 C   0  0  2  0  0  0  0  0  0  0  0  0
   -3.5472   36.4101  -10.7860 C   0  0  2  0  0  0  0  0  0  0  0  0
  -11.5786   36.5506  -15.7979 N   0  0  0  0  0  0  0  0  0  0  0  0
  -10.5193   37.3976  -15.9309 C   0  0  0  0  0  0  0  0  0  0  0  0
   -9.3638   36.9975  -16.5524 N   0  0  0  0  0  0  0  0  0  0  0  0
   -9.2805   35.7234  -17.0421 C   0  0  0  0  0  0  0  0  0  0  0  0
  -10.3114   34.8767  -16.9125 C   0  0  0  0  0  0  0  0  0  0  0  0
  -11.4854   35.2942  -16.2880 C   0  0  0  0  0  0  0  0  0  0  0  0
  -12.6362   34.5061  -16.0889 N   0  0  0  0  0  0  0  0  0  0  0  0
   -9.9589   33.7053  -17.4835 N   0  0  0  0  0  0  0  0  0  0  0  0
   -8.6893   33.8382  -17.9626 C   0  0  0  0  0  0  0  0  0  0  0  0
   -8.2757   35.0863  -17.7072 N   0  0  0  0  0  0  0  0  0  0  0  0
   -7.4516   39.5550  -12.1949 N   0  0  0  0  0  0  0  0  0  0  0  0
   -6.9979   38.4671  -12.8708 C   0  0  0  0  0  0  0  0  0  0  0  0
   -5.9519   37.7470  -12.3662 N   0  0  0  0  0  0  0  0  0  0  0  0
   -5.3716   38.1130  -11.1915 C   0  0  0  0  0  0  0  0  0  0  0  0
   -5.8195   39.1887  -10.5130 C   0  0  0  0  0  0  0  0  0  0  0  0
   -6.8828   39.9188  -11.0362 C   0  0  0  0  0  0  0  0  0  0  0  0
   -7.5048   41.1007  -10.4966 N   0  0  0  0  0  0  0  0  0  0  0  0
   -5.0595   39.3097   -9.3982 N   0  0  0  0  0  0  0  0  0  0  0  0
   -4.1448   38.2982   -9.3927 C   0  0  0  0  0  0  0  0  0  0  0  0
   -4.3479   37.5622  -10.5040 N   0  0  0  0  0  0  0  0  0  0  0  0
  1  3  1  6  0  0  0
  1  5  2  0  0  0  0
  1  9  1  0  0  0  0
  1 18  1  0  0  0  0
  2  4  1  1  0  0  0
  2  6  2  0  0  0  0
  2 10  1  0  0  0  0
  2 17  1  0  0  0  0
  7  9  1  0  0  0  0
  8 10  1  0  0  0  0
 11  7  1  1  0  0  0
 11 13  1  0  0  0  0
 11 15  1  0  0  0  0
 12  8  1  6  0  0  0
 12 14  1  0  0  0  0
 12 16  1  0  0  0  0
 13 23  1  0  0  0  0
 14 24  1  0  0  0  0
 15 17  1  6  0  0  0
 15 19  1  0  0  0  0
 16 18  1  1  0  0  0
 16 20  1  0  0  0  0
 19 21  1  6  0  0  0
 19 23  1  0  0  0  0
 20 22  1  1  0  0  0
 20 24  1  0  0  0  0
 23 34  1  1  0  0  0
 24 44  1  6  0  0  0
 25 26  2  0  0  0  0
 25 30  1  0  0  0  0
 26 27  1  0  0  0  0
 27 28  2  0  0  0  0
 28 29  1  0  0  0  0
 28 34  1  0  0  0  0
 29 30  2  0  0  0  0
 29 32  1  0  0  0  0
 30 31  1  0  0  0  0
 32 33  2  0  0  0  0
 33 34  1  0  0  0  0
 35 36  2  0  0  0  0
 35 40  1  0  0  0  0
 36 37  1  0  0  0  0
 37 38  2  0  0  0  0
 38 39  1  0  0  0  0
 38 44  1  0  0  0  0
 39 40  2  0  0  0  0
 39 42  1  0  0  0  0
 40 41  1  0  0  0  0
 42 43  2  0  0  0  0
 43 44  1  0  0  0  0
M  CHG  2   3  -1   4  -1
M  END
>  <CHROM.1>
130.14796671,68.27008156,-5.95953456,36.20934541,-14.34649384,-0.82564856
0.49137163,-2.33380891

>  <Name>
ligand

>  <RI>
0

>  <Rbt.Current_Directory>
/home/itssahil/PROJECTS/Mol_Feturizer/New_Systems/rnas/4QLM

>  <Rbt.Executable>
rbdock ($Id: //depot/dev/client3/rdock/2013.1/src/exe/rbdock.cxx#4 $)

>  <Rbt.Library>
libRbt.so (2013.1, Build901 2013/11/27)

>  <Rbt.Parameter_File>
/export/apps/rDock/src/rDock_2013.1_src/data/scripts/dock_solv.prm

>  <Rbt.Receptor>
prm/pocket_docking_6.prm

>  <SCORE>
-9.05009

>  <SCORE.INTER>
-8.09898

>  <SCORE.INTER.CONST>
1

>  <SCORE.INTER.POLAR>
0

>  <SCORE.INTER.ROT>
2

>  <SCORE.INTER.SOLV>
22.0773

>  <SCORE.INTER.VDW>
-17.6918

>  <SCORE.INTER.norm>
-0.184068

>  <SCORE.INTRA>
-0.958967

>  <SCORE.INTRA.DIHEDRAL>
0.135221

>  <SCORE.INTRA.DIHEDRAL.0>
2.32994

>  <SCORE.INTRA.POLAR>
0

>  <SCORE.INTRA.POLAR.0>
0

>  <SCORE.INTRA.REPUL>
0

>  <SCORE.INTRA.REPUL.0>
0

>  <SCORE.INTRA.SOLV>
0.616521

>  <SCORE.INTRA.SOLV.lig_0>
-117.703

>  <SCORE.INTRA.VDW>
-1.33484

>  <SCORE.INTRA.VDW.0>
-1.59997

>  <SCORE.INTRA.norm>
-0.0217947

>  <SCORE.RESTR>
0.00786133

>  <SCORE.RESTR.CAVITY>
0.00786133

>  <SCORE.RESTR.norm>
0.000178667

>  <SCORE.SYSTEM>
0

>  <SCORE.SYSTEM.CONST>
0

>  <SCORE.SYSTEM.DIHEDRAL>
0

>  <SCORE.SYSTEM.SOLV>
0

>  <SCORE.SYSTEM.norm>
0

>  <SCORE.heavy>
44

>  <SCORE.norm>
-0.205684

>  <RMSD>
7.354

$$$$
ligand
 OpenBabel11021811513D
libRbt.so/2013.1/901 2013/11/27
 44 50  0  0  0  0  0  0  0  0999 V2000
   -8.3189   37.9330  -14.3677 P   0  0  2  0  0  0  0  0  0  0  0  0
   -5.3496   33.5810  -13.1642 P   0  0  1  0  0  0  0  0  0  0  0  0
   -7.7835   39.3083  -14.7581 O   0  5  0  0  0  0  0  0  0  0  0  0
   -6.0258   32.9712  -11.9605 O   0  5  0  0  0  0  0  0  0  0  0  0
   -9.6830   38.1698  -13.7654 O   0  0  0  0  0  0  0  0  0  0  0  0
   -4.3420   32.5404  -13.7034 O   0  0  0  0  0  0  0  0  0  0  0  0
   -5.9207   37.8083  -13.5466 C   0  0  0  0  0  0  0  0  0  0  0  0
   -6.1258   34.7696  -15.3213 C   0  0  0  0  0  0  0  0  0  0  0  0
   -7.2705   37.3619  -13.3592 O   0  0  0  0  0  0  0  0  0  0  0  0
   -6.5856   34.0499  -14.1426 O   0  0  0  0  0  0  0  0  0  0  0  0
   -5.0169   37.2146  -12.4714 C   0  0  1  0  0  0  0  0  0  0  0  0
   -7.4023   35.0198  -16.2098 C   0  0  1  0  0  0  0  0  0  0  0  0
   -5.0882   37.9712  -11.4203 O   0  0  0  0  0  0  0  0  0  0  0  0
   -7.9564   33.8824  -16.3250 O   0  0  0  0  0  0  0  0  0  0  0  0
   -5.4375   35.8293  -12.0373 C   0  0  1  0  0  0  0  0  0  0  0  0
   -8.4610   35.8328  -15.4382 C   0  0  1  0  0  0  0  0  0  0  0  0
   -4.6247   34.9546  -12.6873 O   0  0  0  0  0  0  0  0  0  0  0  0
   -8.4531   37.1193  -15.8077 O   0  0  0  0  0  0  0  0  0  0  0  0
   -5.1319   35.8167  -10.4989 C   0  0  1  0  0  0  0  0  0  0  0  0
   -9.8305   35.1767  -15.7267 C   0  0  1  0  0  0  0  0  0  0  0  0
   -3.8618   35.0878  -10.2363 O   0  0  0  0  0  0  0  0  0  0  0  0
  -10.5933   35.9776  -16.7376 O   0  0  0  0  0  0  0  0  0  0  0  0
   -5.0436   37.0538  -10.1281 C   0  0  2  0  0  0  0  0  0  0  0  0
   -9.5474   34.0190  -16.2174 C   0  0  2  0  0  0  0  0  0  0  0  0
  -10.1945   37.4192   -8.6600 N   0  0  0  0  0  0  0  0  0  0  0  0
   -9.7371   36.8888   -9.8290 C   0  0  0  0  0  0  0  0  0  0  0  0
   -8.3954   36.8406  -10.1101 N   0  0  0  0  0  0  0  0  0  0  0  0
   -7.5077   37.3384   -9.1966 C   0  0  0  0  0  0  0  0  0  0  0  0
   -7.9429   37.8697   -8.0457 C   0  0  0  0  0  0  0  0  0  0  0  0
   -9.3074   37.9061   -7.7637 C   0  0  0  0  0  0  0  0  0  0  0  0
   -9.8921   38.4347   -6.5959 N   0  0  0  0  0  0  0  0  0  0  0  0
   -6.8637   38.2726   -7.3418 N   0  0  0  0  0  0  0  0  0  0  0  0
   -5.7527   37.9886   -8.0795 C   0  0  0  0  0  0  0  0  0  0  0  0
   -6.1461   37.3972   -9.2151 N   0  0  0  0  0  0  0  0  0  0  0  0
   -8.5321   30.1528  -12.8796 N   0  0  0  0  0  0  0  0  0  0  0  0
   -7.6314   31.0006  -13.4420 C   0  0  0  0  0  0  0  0  0  0  0  0
   -8.0623   31.9638  -14.3102 N   0  0  0  0  0  0  0  0  0  0  0  0
   -9.3852   32.0776  -14.6058 C   0  0  0  0  0  0  0  0  0  0  0  0
  -10.2852   31.2427  -14.0480 C   0  0  0  0  0  0  0  0  0  0  0  0
   -9.8372   30.2620  -13.1678 C   0  0  0  0  0  0  0  0  0  0  0  0
  -10.6106   29.2613  -12.4782 N   0  0  0  0  0  0  0  0  0  0  0  0
  -11.5061   31.5870  -14.5234 N   0  0  0  0  0  0  0  0  0  0  0  0
  -11.3518   32.6426  -15.3730 C   0  0  0  0  0  0  0  0  0  0  0  0
  -10.0374   32.9403  -15.4148 N   0  0  0  0  0  0  0  0  0  0  0  0
  1  3  1  6  0  0  0
  1  5  2  0  0  0  0
  1  9  1  0  0  0  0
  1 18  1  0  0  0  0
  2  4  1  1  0  0  0
  2  6  2  0  0  0  0
  2 10  1  0  0  0  0
  2 17  1  0  0  0  0
  7  9  1  0  0  0  0
  8 10  1  0  0  0  0
 11  7  1  6  0  0  0
 11 13  1  0  0  0  0
 11 15  1  0  0  0  0
 12  8  1  1  0  0  0
 12 14  1  0  0  0  0
 12 16  1  0  0  0  0
 13 23  1  0  0  0  0
 14 24  1  0  0  0  0
 15 17  1  6  0  0  0
 15 19  1  0  0  0  0
 16 18  1  6  0  0  0
 16 20  1  0  0  0  0
 19 21  1  6  0  0  0
 19 23  1  0  0  0  0
 20 22  1  6  0  0  0
 20 24  1  0  0  0  0
 23 34  1  1  0  0  0
 24 44  1  1  0  0  0
 25 26  2  0  0  0  0
 25 30  1  0  0  0  0
 26 27  1  0  0  0  0
 27 28  2  0  0  0  0
 28 29  1  0  0  0  0
 28 34  1  0  0  0  0
 29 30  2  0  0  0  0
 29 32  1  0  0  0  0
 30 31  1  0  0  0  0
 32 33  2  0  0  0  0
 33 34  1  0  0  0  0
 35 36  2  0  0  0  0
 35 40  1  0  0  0  0
 36 37  1  0  0  0  0
 37 38  2  0  0  0  0
 38 39  1  0  0  0  0
 38 44  1  0  0  0  0
 39 40  2  0  0  0  0
 39 42  1  0  0  0  0
 40 41  1  0  0  0  0
 42 43  2  0  0  0  0
 43 44  1  0  0  0  0
M  CHG  2   3  -1   4  -1
M  END
>  <CHROM.1>
66.06169915,13.86536572,-7.68309962,35.26809304,-12.74533164,0.64035308,-1.22932220
-0.08217850

>  <Name>
ligand

>  <RI>
0

>  <Rbt.Current_Directory>
/home/itssahil/PROJECTS/Mol_Feturizer/New_Systems/rnas/4QLM

>  <Rbt.Executable>
rbdock ($Id: //depot/dev/client3/rdock/2013.1/src/exe/rbdock.cxx#4 $)

>  <Rbt.Library>
libRbt.so (2013.1, Build901 2013/11/27)

>  <Rbt.Parameter_File>
/export/apps/rDock/src/rDock_2013.1_src/data/scripts/dock_solv.prm

>  <Rbt.Receptor>
prm/pocket_docking_8.prm

>  <SCORE>
-10.5454

>  <SCORE.INTER>
-9.44423

>  <SCORE.INTER.CONST>
1

>  <SCORE.INTER.POLAR>
0

>  <SCORE.INTER.ROT>
2

>  <SCORE.INTER.SOLV>
29.1161

>  <SCORE.INTER.VDW>
-20.9349

>  <SCORE.INTER.norm>
-0.214642

>  <SCORE.INTRA>
-1.10113

>  <SCORE.INTRA.DIHEDRAL>
0.0217138

>  <SCORE.INTRA.DIHEDRAL.0>
2.32994

>  <SCORE.INTRA.POLAR>
0

>  <SCORE.INTRA.POLAR.0>
0

>  <SCORE.INTRA.REPUL>
0

>  <SCORE.INTRA.REPUL.0>
0

>  <SCORE.INTRA.SOLV>
1.38619

>  <SCORE.INTRA.SOLV.lig_0>
-117.703

>  <SCORE.INTRA.VDW>
-1.80508

>  <SCORE.INTRA.VDW.0>
-1.59997

>  <SCORE.INTRA.norm>
-0.0250257

>  <SCORE.RESTR>
0

>  <SCORE.RESTR.CAVITY>
0

>  <SCORE.RESTR.norm>
0

>  <SCORE.SYSTEM>
0

>  <SCORE.SYSTEM.CONST>
0

>  <SCORE.SYSTEM.DIHEDRAL>
0

>  <SCORE.SYSTEM.SOLV>
0

>  <SCORE.SYSTEM.norm>
0

>  <SCORE.heavy>
44

>  <SCORE.norm>
-0.239667

>  <RMSD>
7.394

$$$$
ligand
 OpenBabel11021811513D
libRbt.so/2013.1/901 2013/11/27
 44 50  0  0  0  0  0  0  0  0999 V2000
   -4.7177   35.0855  -12.2900 P   0  0  2  0  0  0  0  0  0  0  0  0
   -8.5044   38.5391  -14.0045 P   0  0  1  0  0  0  0  0  0  0  0  0
   -3.4342   34.7168  -13.0297 O   0  5  0  0  0  0  0  0  0  0  0  0
   -9.8166   37.8645  -13.6867 O   0  5  0  0  0  0  0  0  0  0  0  0
   -5.0430   33.9082  -11.4025 O   0  0  0  0  0  0  0  0  0  0  0  0
   -8.8164   40.0109  -14.3587 O   0  0  0  0  0  0  0  0  0  0  0  0
   -5.2500   35.8324  -14.6564 C   0  0  0  0  0  0  0  0  0  0  0  0
   -6.1920   38.7210  -12.8694 C   0  0  0  0  0  0  0  0  0  0  0  0
   -5.7727   35.3435  -13.4138 O   0  0  0  0  0  0  0  0  0  0  0  0
   -7.5536   38.2361  -12.6972 O   0  0  0  0  0  0  0  0  0  0  0  0
   -6.3755   35.9938  -15.6726 C   0  0  1  0  0  0  0  0  0  0  0  0
   -5.4624   38.4814  -11.4940 C   0  0  1  0  0  0  0  0  0  0  0  0
   -6.5727   34.8458  -16.2431 O   0  0  0  0  0  0  0  0  0  0  0  0
   -6.2241   38.9978  -10.6182 O   0  0  0  0  0  0  0  0  0  0  0  0
   -7.6904   36.3982  -15.0466 C   0  0  1  0  0  0  0  0  0  0  0  0
   -5.4778   36.9873  -11.1141 C   0  0  1  0  0  0  0  0  0  0  0  0
   -7.8172   37.7379  -15.2396 O   0  0  0  0  0  0  0  0  0  0  0  0
   -4.3008   36.4053  -11.3745 O   0  0  0  0  0  0  0  0  0  0  0  0
   -8.7567   35.6222  -15.8958 C   0  0  1  0  0  0  0  0  0  0  0  0
   -5.8191   36.9093   -9.6085 C   0  0  1  0  0  0  0  0  0  0  0  0
   -9.3916   36.5394  -16.8803 O   0  0  0  0  0  0  0  0  0  0  0  0
   -4.5830   36.6470   -8.8033 O   0  0  0  0  0  0  0  0  0  0  0  0
   -8.1274   34.6618  -16.4935 C   0  0  2  0  0  0  0  0  0  0  0  0
   -6.2878   38.0730   -9.3134 C   0  0  2  0  0  0  0  0  0  0  0  0
   -8.1201   30.5131  -13.0862 N   0  0  0  0  0  0  0  0  0  0  0  0
   -7.3474   31.6305  -12.9794 C   0  0  0  0  0  0  0  0  0  0  0  0
   -7.4252   32.6390  -13.9058 N   0  0  0  0  0  0  0  0  0  0  0  0
   -8.2946   32.5118  -14.9538 C   0  0  0  0  0  0  0  0  0  0  0  0
   -9.0559   31.4155  -15.0762 C   0  0  0  0  0  0  0  0  0  0  0  0
   -8.9774   30.3996  -14.1253 C   0  0  0  0  0  0  0  0  0  0  0  0
   -9.7196   29.2020  -14.1380 N   0  0  0  0  0  0  0  0  0  0  0  0
   -9.8124   31.5589  -16.1850 N   0  0  0  0  0  0  0  0  0  0  0  0
   -9.5016   32.7595  -16.7518 C   0  0  0  0  0  0  0  0  0  0  0  0
   -8.5792   33.3561  -15.9854 N   0  0  0  0  0  0  0  0  0  0  0  0
  -11.2439   36.7908  -10.2691 N   0  0  0  0  0  0  0  0  0  0  0  0
  -10.1860   36.6333  -11.1071 C   0  0  0  0  0  0  0  0  0  0  0  0
   -8.9418   37.0305  -10.7051 N   0  0  0  0  0  0  0  0  0  0  0  0
   -8.7616   37.5750   -9.4716 C   0  0  0  0  0  0  0  0  0  0  0  0
   -9.8061   37.7301   -8.6330 C   0  0  0  0  0  0  0  0  0  0  0  0
  -11.0705   37.3265   -9.0520 C   0  0  0  0  0  0  0  0  0  0  0  0
  -12.3178   37.4144   -8.3367 N   0  0  0  0  0  0  0  0  0  0  0  0
   -9.3320   38.2922   -7.4952 N   0  0  0  0  0  0  0  0  0  0  0  0
   -7.9883   38.4766   -7.6374 C   0  0  0  0  0  0  0  0  0  0  0  0
   -7.6449   38.0273   -8.8614 N   0  0  0  0  0  0  0  0  0  0  0  0
  1  3  1  6  0  0  0
  1  5  2  0  0  0  0
  1  9  1  0  0  0  0
  1 18  1  0  0  0  0
  2  4  1  1  0  0  0
  2  6  2  0  0  0  0
  2 10  1  0  0  0  0
  2 17  1  0  0  0  0
  7  9  1  0  0  0  0
  8 10  1  0  0  0  0
 11  7  1  1  0  0  0
 11 13  1  0  0  0  0
 11 15  1  0  0  0  0
 12  8  1  6  0  0  0
 12 14  1  0  0  0  0
 12 16  1  0  0  0  0
 13 23  1  0  0  0  0
 14 24  1  0  0  0  0
 15 17  1  6  0  0  0
 15 19  1  0  0  0  0
 16 18  1  1  0  0  0
 16 20  1  0  0  0  0
 19 21  1  6  0  0  0
 19 23  1  0  0  0  0
 20 22  1  1  0  0  0
 20 24  1  0  0  0  0
 23 34  1  1  0  0  0
 24 44  1  6  0  0  0
 25 26  2  0  0  0  0
 25 30  1  0  0  0  0
 26 27  1  0  0  0  0
 27 28  2  0  0  0  0
 28 29  1  0  0  0  0
 28 34  1  0  0  0  0
 29 30  2  0  0  0  0
 29 32  1  0  0  0  0
 30 31  1  0  0  0  0
 32 33  2  0  0  0  0
 33 34  1  0  0  0  0
 35 36  2  0  0  0  0
 35 40  1  0  0  0  0
 36 37  1  0  0  0  0
 37 38  2  0  0  0  0
 38 39  1  0  0  0  0
 38 44  1  0  0  0  0
 39 40  2  0  0  0  0
 39 42  1  0  0  0  0
 40 41  1  0  0  0  0
 42 43  2  0  0  0  0
 43 44  1  0  0  0  0
M  CHG  2   3  -1   4  -1
M  END
>  <CHROM.1>
34.59142831,61.23232878,-7.64261874,35.88507469,-12.67448554,-1.61314868
0.02478741,0.81098064

>  <Name>
ligand

>  <RI>
0

>  <Rbt.Current_Directory>
/home/itssahil/PROJECTS/Mol_Feturizer/New_Systems/rnas/4QLM

>  <Rbt.Executable>
rbdock ($Id: //depot/dev/client3/rdock/2013.1/src/exe/rbdock.cxx#4 $)

>  <Rbt.Library>
libRbt.so (2013.1, Build901 2013/11/27)

>  <Rbt.Parameter_File>
/export/apps/rDock/src/rDock_2013.1_src/data/scripts/dock_solv.prm

>  <Rbt.Receptor>
prm/pocket_docking_8.prm

>  <SCORE>
-11.0708

>  <SCORE.INTER>
-9.38268

>  <SCORE.INTER.CONST>
1

>  <SCORE.INTER.POLAR>
0

>  <SCORE.INTER.ROT>
2

>  <SCORE.INTER.SOLV>
20.0274

>  <SCORE.INTER.VDW>
-17.8643

>  <SCORE.INTER.norm>
-0.213243

>  <SCORE.INTRA>
-1.6881

>  <SCORE.INTRA.DIHEDRAL>
0.169742

>  <SCORE.INTRA.DIHEDRAL.0>
2.32994

>  <SCORE.INTRA.POLAR>
0

>  <SCORE.INTRA.POLAR.0>
0

>  <SCORE.INTRA.REPUL>
0

>  <SCORE.INTRA.REPUL.0>
0

>  <SCORE.INTRA.SOLV>
1.31497

>  <SCORE.INTRA.SOLV.lig_0>
-117.703

>  <SCORE.INTRA.VDW>
-2.43046

>  <SCORE.INTRA.VDW.0>
-1.59997

>  <SCORE.INTRA.norm>
-0.038366

>  <SCORE.RESTR>
0

>  <SCORE.RESTR.CAVITY>
0

>  <SCORE.RESTR.norm>
0

>  <SCORE.SYSTEM>
0

>  <SCORE.SYSTEM.CONST>
0

>  <SCORE.SYSTEM.DIHEDRAL>
0

>  <SCORE.SYSTEM.SOLV>
0

>  <SCORE.SYSTEM.norm>
0

>  <SCORE.heavy>
44

>  <SCORE.norm>
-0.251609

>  <RMSD>
7.403

$$$$
ligand
 OpenBabel11021811513D
libRbt.so/2013.1/901 2013/11/27
 44 50  0  0  0  0  0  0  0  0999 V2000
   -5.0511   33.2127  -13.5104 P   0  0  2  0  0  0  0  0  0  0  0  0
   -4.2687   38.1723  -15.5094 P   0  0  1  0  0  0  0  0  0  0  0  0
   -4.5269   31.9088  -14.1065 O   0  5  0  0  0  0  0  0  0  0  0  0
   -5.6077   38.8571  -15.3823 O   0  5  0  0  0  0  0  0  0  0  0  0
   -6.2859   32.8468  -12.7225 O   0  0  0  0  0  0  0  0  0  0  0  0
   -3.2219   39.2628  -15.8317 O   0  0  0  0  0  0  0  0  0  0  0  0
   -4.5026   33.9126  -15.8875 C   0  0  0  0  0  0  0  0  0  0  0  0
   -2.9042   36.4948  -14.0979 C   0  0  0  0  0  0  0  0  0  0  0  0
   -5.3333   34.1353  -14.7400 O   0  0  0  0  0  0  0  0  0  0  0  0
   -4.1029   37.3203  -14.1124 O   0  0  0  0  0  0  0  0  0  0  0  0
   -4.9152   34.8430  -17.0231 C   0  0  1  0  0  0  0  0  0  0  0  0
   -2.8224   35.8632  -12.6571 C   0  0  1  0  0  0  0  0  0  0  0  0
   -5.8963   34.2876  -17.6644 O   0  0  0  0  0  0  0  0  0  0  0  0
   -2.9397   36.8428  -11.8566 O   0  0  0  0  0  0  0  0  0  0  0  0
   -5.4166   36.1851  -16.5419 C   0  0  1  0  0  0  0  0  0  0  0  0
   -4.0797   35.0255  -12.3496 C   0  0  1  0  0  0  0  0  0  0  0  0
   -4.3864   37.0602  -16.6880 O   0  0  0  0  0  0  0  0  0  0  0  0
   -3.8408   33.7162  -12.4928 O   0  0  0  0  0  0  0  0  0  0  0  0
   -6.5703   36.5293  -17.5472 C   0  0  1  0  0  0  0  0  0  0  0  0
   -4.5013   35.3617  -10.9010 C   0  0  1  0  0  0  0  0  0  0  0  0
   -6.0914   37.5100  -18.5583 O   0  0  0  0  0  0  0  0  0  0  0  0
   -4.0836   34.2679   -9.9658 O   0  0  0  0  0  0  0  0  0  0  0  0
   -6.9184   35.4156  -18.1077 C   0  0  2  0  0  0  0  0  0  0  0  0
   -3.8636   36.4438  -10.6120 C   0  0  2  0  0  0  0  0  0  0  0  0
  -12.0193   36.4284  -16.7748 N   0  0  0  0  0  0  0  0  0  0  0  0
  -11.0855   37.3621  -17.1115 C   0  0  0  0  0  0  0  0  0  0  0  0
   -9.8039   36.9990  -17.4389 N   0  0  0  0  0  0  0  0  0  0  0  0
   -9.4647   35.6743  -17.4219 C   0  0  0  0  0  0  0  0  0  0  0  0
  -10.3702   34.7450  -17.0858 C   0  0  0  0  0  0  0  0  0  0  0  0
  -11.6729   35.1218  -16.7637 C   0  0  0  0  0  0  0  0  0  0  0  0
  -12.7146   34.2477  -16.3952 N   0  0  0  0  0  0  0  0  0  0  0  0
   -9.7703   33.5378  -17.1575 N   0  0  0  0  0  0  0  0  0  0  0  0
   -8.4755   33.7354  -17.5367 C   0  0  0  0  0  0  0  0  0  0  0  0
   -8.2898   35.0496  -17.7170 N   0  0  0  0  0  0  0  0  0  0  0  0
   -7.7997   39.4950  -12.1342 N   0  0  0  0  0  0  0  0  0  0  0  0
   -7.2496   38.4668  -12.8317 C   0  0  0  0  0  0  0  0  0  0  0  0
   -6.2098   37.7644  -12.2907 N   0  0  0  0  0  0  0  0  0  0  0  0
   -5.7314   38.0882  -11.0592 C   0  0  0  0  0  0  0  0  0  0  0  0
   -6.2753   39.1043  -10.3593 C   0  0  0  0  0  0  0  0  0  0  0  0
   -7.3315   39.8170  -10.9195 C   0  0  0  0  0  0  0  0  0  0  0  0
   -8.0439   40.9396  -10.3651 N   0  0  0  0  0  0  0  0  0  0  0  0
   -5.6023   39.1947   -9.1872 N   0  0  0  0  0  0  0  0  0  0  0  0
   -4.6446   38.2240   -9.1683 C   0  0  0  0  0  0  0  0  0  0  0  0
   -4.7346   37.5434  -10.3288 N   0  0  0  0  0  0  0  0  0  0  0  0
  1  3  1  6  0  0  0
  1  5  2  0  0  0  0
  1  9  1  0  0  0  0
  1 18  1  0  0  0  0
  2  4  1  1  0  0  0
  2  6  2  0  0  0  0
  2 10  1  0  0  0  0
  2 17  1  0  0  0  0
  7  9  1  0  0  0  0
  8 10  1  0  0  0  0
 11  7  1  1  0  0  0
 11 13  1  0  0  0  0
 11 15  1  0  0  0  0
 12  8  1  6  0  0  0
 12 14  1  0  0  0  0
 12 16  1  0  0  0  0
 13 23  1  0  0  0  0
 14 24  1  0  0  0  0
 15 17  1  6  0  0  0
 15 19  1  0  0  0  0
 16 18  1  1  0  0  0
 16 20  1  0  0  0  0
 19 21  1  6  0  0  0
 19 23  1  0  0  0  0
 20 22  1  1  0  0  0
 20 24  1  0  0  0  0
 23 34  1  1  0  0  0
 24 44  1  6  0  0  0
 25 26  2  0  0  0  0
 25 30  1  0  0  0  0
 26 27  1  0  0  0  0
 27 28  2  0  0  0  0
 28 29  1  0  0  0  0
 28 34  1  0  0  0  0
 29 30  2  0  0  0  0
 29 32  1  0  0  0  0
 30 31  1  0  0  0  0
 32 33  2  0  0  0  0
 33 34  1  0  0  0  0
 35 36  2  0  0  0  0
 35 40  1  0  0  0  0
 36 37  1  0  0  0  0
 37 38  2  0  0  0  0
 38 39  1  0  0  0  0
 38 44  1  0  0  0  0
 39 40  2  0  0  0  0
 39 42  1  0  0  0  0
 40 41  1  0  0  0  0
 42 43  2  0  0  0  0
 43 44  1  0  0  0  0
M  CHG  2   3  -1   4  -1
M  END
>  <CHROM.1>
154.02136398,65.40694554,-6.16008040,36.22518536,-14.31904431,-0.82330784
0.54603966,-2.32790814

>  <Name>
ligand

>  <RI>
0

>  <Rbt.Current_Directory>
/home/itssahil/PROJECTS/Mol_Feturizer/New_Systems/rnas/4QLM

>  <Rbt.Executable>
rbdock ($Id: //depot/dev/client3/rdock/2013.1/src/exe/rbdock.cxx#4 $)

>  <Rbt.Library>
libRbt.so (2013.1, Build901 2013/11/27)

>  <Rbt.Parameter_File>
/export/apps/rDock/src/rDock_2013.1_src/data/scripts/dock_solv.prm

>  <Rbt.Receptor>
prm/pocket_docking_7.prm

>  <SCORE>
-10.4522

>  <SCORE.INTER>
-9.87596

>  <SCORE.INTER.CONST>
1

>  <SCORE.INTER.POLAR>
0

>  <SCORE.INTER.ROT>
2

>  <SCORE.INTER.SOLV>
21.599

>  <SCORE.INTER.VDW>
-18.717

>  <SCORE.INTER.norm>
-0.224454

>  <SCORE.INTRA>
-0.57619

>  <SCORE.INTRA.DIHEDRAL>
0.173041

>  <SCORE.INTRA.DIHEDRAL.0>
2.32994

>  <SCORE.INTRA.POLAR>
0

>  <SCORE.INTRA.POLAR.0>
0

>  <SCORE.INTRA.REPUL>
0

>  <SCORE.INTRA.REPUL.0>
0

>  <SCORE.INTRA.SOLV>
0.766224

>  <SCORE.INTRA.SOLV.lig_0>
-117.703

>  <SCORE.INTRA.VDW>
-1.04582

>  <SCORE.INTRA.VDW.0>
-1.59997

>  <SCORE.INTRA.norm>
-0.0130952

>  <SCORE.RESTR>
0

>  <SCORE.RESTR.CAVITY>
0

>  <SCORE.RESTR.norm>
0

>  <SCORE.SYSTEM>
0

>  <SCORE.SYSTEM.CONST>
0

>  <SCORE.SYSTEM.DIHEDRAL>
0

>  <SCORE.SYSTEM.SOLV>
0

>  <SCORE.SYSTEM.norm>
0

>  <SCORE.heavy>
44

>  <SCORE.norm>
-0.237549

>  <RMSD>
7.422

$$$$
ligand
 OpenBabel11021811513D
libRbt.so/2013.1/901 2013/11/27
 44 50  0  0  0  0  0  0  0  0999 V2000
  -12.5045   32.2202  -14.8271 P   0  0  2  0  0  0  0  0  0  0  0  0
   -8.9211   35.8065  -16.6987 P   0  0  1  0  0  0  0  0  0  0  0  0
  -13.7851   31.7764  -15.5298 O   0  5  0  0  0  0  0  0  0  0  0  0
   -8.5672   36.6598  -15.5051 O   0  5  0  0  0  0  0  0  0  0  0  0
  -12.7442   32.0156  -13.3505 O   0  0  0  0  0  0  0  0  0  0  0  0
   -7.8871   36.1114  -17.8063 O   0  0  0  0  0  0  0  0  0  0  0  0
  -12.8358   34.0781  -16.5240 C   0  0  0  0  0  0  0  0  0  0  0  0
   -9.4444   33.3101  -17.1017 C   0  0  0  0  0  0  0  0  0  0  0  0
  -12.3151   33.7162  -15.2378 O   0  0  0  0  0  0  0  0  0  0  0  0
   -9.0004   34.2744  -16.1059 O   0  0  0  0  0  0  0  0  0  0  0  0
  -12.6266   35.5676  -16.7752 C   0  0  1  0  0  0  0  0  0  0  0  0
   -9.3317   31.8931  -16.4228 C   0  0  1  0  0  0  0  0  0  0  0  0
  -13.6114   36.2118  -16.2298 O   0  0  0  0  0  0  0  0  0  0  0  0
   -8.1513   31.8400  -15.9561 O   0  0  0  0  0  0  0  0  0  0  0  0
  -11.3591   36.1051  -16.1516 C   0  0  1  0  0  0  0  0  0  0  0  0
  -10.1997   31.8201  -15.1507 C   0  0  1  0  0  0  0  0  0  0  0  0
  -10.4371   36.1802  -17.1478 O   0  0  0  0  0  0  0  0  0  0  0  0
  -11.3461   31.1679  -15.3788 O   0  0  0  0  0  0  0  0  0  0  0  0
  -11.7643   37.5434  -15.6749 C   0  0  1  0  0  0  0  0  0  0  0  0
   -9.3557   31.1060  -14.0704 C   0  0  1  0  0  0  0  0  0  0  0  0
  -11.2585   38.5613  -16.6349 O   0  0  0  0  0  0  0  0  0  0  0  0
   -9.7949   29.6815  -13.9182 O   0  0  0  0  0  0  0  0  0  0  0  0
  -13.0572   37.5635  -15.6139 C   0  0  2  0  0  0  0  0  0  0  0  0
   -8.1472   31.1399  -14.5168 C   0  0  2  0  0  0  0  0  0  0  0  0
  -13.8168   35.9306  -10.5565 N   0  0  0  0  0  0  0  0  0  0  0  0
  -13.2182   35.2068  -11.5438 C   0  0  0  0  0  0  0  0  0  0  0  0
  -13.0706   35.7168  -12.8085 N   0  0  0  0  0  0  0  0  0  0  0  0
  -13.5378   36.9740  -13.0757 C   0  0  0  0  0  0  0  0  0  0  0  0
  -14.1352   37.6952  -12.1169 C   0  0  0  0  0  0  0  0  0  0  0  0
  -14.2727   37.1731  -10.8319 C   0  0  0  0  0  0  0  0  0  0  0  0
  -14.8781   37.8252   -9.7396 N   0  0  0  0  0  0  0  0  0  0  0  0
  -14.4879   38.8833  -12.6520 N   0  0  0  0  0  0  0  0  0  0  0  0
  -14.1055   38.8833  -13.9607 C   0  0  0  0  0  0  0  0  0  0  0  0
  -13.5043   37.7147  -14.2195 N   0  0  0  0  0  0  0  0  0  0  0  0
   -3.8296   34.0088  -14.0185 N   0  0  0  0  0  0  0  0  0  0  0  0
   -4.3169   33.4629  -15.1634 C   0  0  0  0  0  0  0  0  0  0  0  0
   -5.4665   32.7253  -15.1232 N   0  0  0  0  0  0  0  0  0  0  0  0
   -6.1227   32.5428  -13.9457 C   0  0  0  0  0  0  0  0  0  0  0  0
   -5.6475   33.0854  -12.8064 C   0  0  0  0  0  0  0  0  0  0  0  0
   -4.4738   33.8319  -12.8557 C   0  0  0  0  0  0  0  0  0  0  0  0
   -3.7823   34.4799  -11.7709 N   0  0  0  0  0  0  0  0  0  0  0  0
   -6.4952   32.7386  -11.8083 N   0  0  0  0  0  0  0  0  0  0  0  0
   -7.4979   31.9840  -12.3421 C   0  0  0  0  0  0  0  0  0  0  0  0
   -7.2601   31.8712  -13.6645 N   0  0  0  0  0  0  0  0  0  0  0  0
  1  3  1  6  0  0  0
  1  5  2  0  0  0  0
  1  9  1  0  0  0  0
  1 18  1  0  0  0  0
  2  4  1  1  0  0  0
  2  6  2  0  0  0  0
  2 10  1  0  0  0  0
  2 17  1  0  0  0  0
  7  9  1  0  0  0  0
  8 10  1  0  0  0  0
 11  7  1  1  0  0  0
 11 13  1  0  0  0  0
 11 15  1  0  0  0  0
 12  8  1  1  0  0  0
 12 14  1  0  0  0  0
 12 16  1  0  0  0  0
 13 23  1  0  0  0  0
 14 24  1  0  0  0  0
 15 17  1  6  0  0  0
 15 19  1  0  0  0  0
 16 18  1  6  0  0  0
 16 20  1  0  0  0  0
 19 21  1  6  0  0  0
 19 23  1  0  0  0  0
 20 22  1  6  0  0  0
 20 24  1  0  0  0  0
 23 34  1  1  0  0  0
 24 44  1  1  0  0  0
 25 26  2  0  0  0  0
 25 30  1  0  0  0  0
 26 27  1  0  0  0  0
 27 28  2  0  0  0  0
 28 29  1  0  0  0  0
 28 34  1  0  0  0  0
 29 30  2  0  0  0  0
 29 32  1  0  0  0  0
 30 31  1  0  0  0  0
 32 33  2  0  0  0  0
 33 34  1  0  0  0  0
 35 36  2  0  0  0  0
 35 40  1  0  0  0  0
 36 37  1  0  0  0  0
 37 38  2  0  0  0  0
 38 39  1  0  0  0  0
 38 44  1  0  0  0  0
 39 40  2  0  0  0  0
 39 42  1  0  0  0  0
 40 41  1  0  0  0  0
 42 43  2  0  0  0  0
 43 44  1  0  0  0  0
M  CHG  2   3  -1   4  -1
M  END
>  <CHROM.1>
49.28390119,-32.49715505,-10.33222068,34.46694022,-14.54865100,2.64633732
0.16588407,-0.12614487

>  <Name>
ligand

>  <RI>
0

>  <Rbt.Current_Directory>
/home/itssahil/PROJECTS/Mol_Feturizer/New_Systems/rnas/4QLM

>  <Rbt.Executable>
rbdock ($Id: //depot/dev/client3/rdock/2013.1/src/exe/rbdock.cxx#4 $)

>  <Rbt.Library>
libRbt.so (2013.1, Build901 2013/11/27)

>  <Rbt.Parameter_File>
/export/apps/rDock/src/rDock_2013.1_src/data/scripts/dock_solv.prm

>  <Rbt.Receptor>
prm/pocket_docking_8.prm

>  <SCORE>
-12.1584

>  <SCORE.INTER>
-12.4525

>  <SCORE.INTER.CONST>
1

>  <SCORE.INTER.POLAR>
0

>  <SCORE.INTER.ROT>
2

>  <SCORE.INTER.SOLV>
19.5115

>  <SCORE.INTER.VDW>
-19.7388

>  <SCORE.INTER.norm>
-0.283011

>  <SCORE.INTRA>
0.294114

>  <SCORE.INTRA.DIHEDRAL>
0.128566

>  <SCORE.INTRA.DIHEDRAL.0>
2.32994

>  <SCORE.INTRA.POLAR>
0

>  <SCORE.INTRA.POLAR.0>
0

>  <SCORE.INTRA.REPUL>
0

>  <SCORE.INTRA.REPUL.0>
0

>  <SCORE.INTRA.SOLV>
0.361893

>  <SCORE.INTRA.SOLV.lig_0>
-117.703

>  <SCORE.INTRA.VDW>
0.0488842

>  <SCORE.INTRA.VDW.0>
-1.59997

>  <SCORE.INTRA.norm>
0.0066844

>  <SCORE.RESTR>
0

>  <SCORE.RESTR.CAVITY>
0

>  <SCORE.RESTR.norm>
0

>  <SCORE.SYSTEM>
0

>  <SCORE.SYSTEM.CONST>
0

>  <SCORE.SYSTEM.DIHEDRAL>
0

>  <SCORE.SYSTEM.SOLV>
0

>  <SCORE.SYSTEM.norm>
0

>  <SCORE.heavy>
44

>  <SCORE.norm>
-0.276326

>  <RMSD>
7.429

$$$$
ligand
 OpenBabel11021811513D
libRbt.so/2013.1/901 2013/11/27
 44 50  0  0  0  0  0  0  0  0999 V2000
   -5.5259   33.9625  -13.0966 P   0  0  2  0  0  0  0  0  0  0  0  0
   -3.2747   36.6426  -17.2143 P   0  0  1  0  0  0  0  0  0  0  0  0
   -6.0723   32.5378  -13.1412 O   0  5  0  0  0  0  0  0  0  0  0  0
   -3.8529   38.0344  -17.1332 O   0  5  0  0  0  0  0  0  0  0  0  0
   -6.2780   34.6656  -11.9924 O   0  0  0  0  0  0  0  0  0  0  0  0
   -2.0838   36.6947  -18.1982 O   0  0  0  0  0  0  0  0  0  0  0  0
   -5.8048   33.5916  -15.5918 C   0  0  0  0  0  0  0  0  0  0  0  0
   -2.5133   34.8508  -15.5177 C   0  0  0  0  0  0  0  0  0  0  0  0
   -5.7986   34.5453  -14.5209 O   0  0  0  0  0  0  0  0  0  0  0  0
   -2.9779   36.2237  -15.6518 O   0  0  0  0  0  0  0  0  0  0  0  0
   -6.1283   34.2850  -16.9109 C   0  0  1  0  0  0  0  0  0  0  0  0
   -2.1458   34.6571  -13.9982 C   0  0  1  0  0  0  0  0  0  0  0  0
   -7.4183   34.3676  -17.0185 O   0  0  0  0  0  0  0  0  0  0  0  0
   -1.3769   35.6280  -13.7149 O   0  0  0  0  0  0  0  0  0  0  0  0
   -5.5959   35.6974  -16.9882 C   0  0  1  0  0  0  0  0  0  0  0  0
   -3.3681   34.9223  -13.0967 C   0  0  1  0  0  0  0  0  0  0  0  0
   -4.4508   35.6418  -17.7190 O   0  0  0  0  0  0  0  0  0  0  0  0
   -3.9287   33.7784  -12.6857 O   0  0  0  0  0  0  0  0  0  0  0  0
   -6.7098   36.4683  -17.7789 C   0  0  1  0  0  0  0  0  0  0  0  0
   -2.8700   35.7627  -11.8989 C   0  0  1  0  0  0  0  0  0  0  0  0
   -6.2961   36.6521  -19.1961 O   0  0  0  0  0  0  0  0  0  0  0  0
   -2.7148   34.9018  -10.6824 O   0  0  0  0  0  0  0  0  0  0  0  0
   -7.7853   35.7525  -17.6973 C   0  0  2  0  0  0  0  0  0  0  0  0
   -1.7166   36.2083  -12.2625 C   0  0  2  0  0  0  0  0  0  0  0  0
   -9.7429   38.1473  -13.3094 N   0  0  0  0  0  0  0  0  0  0  0  0
   -8.4881   37.6321  -13.4407 C   0  0  0  0  0  0  0  0  0  0  0  0
   -8.0826   37.0389  -14.6091 N   0  0  0  0  0  0  0  0  0  0  0  0
   -8.9603   36.9649  -15.6552 C   0  0  0  0  0  0  0  0  0  0  0  0
  -10.2001   37.4606  -15.5387 C   0  0  0  0  0  0  0  0  0  0  0  0
  -10.6010   38.0703  -14.3511 C   0  0  0  0  0  0  0  0  0  0  0  0
  -11.8701   38.6287  -14.1009 N   0  0  0  0  0  0  0  0  0  0  0  0
  -10.8388   37.2573  -16.7104 N   0  0  0  0  0  0  0  0  0  0  0  0
   -9.9761   36.6205  -17.5527 C   0  0  0  0  0  0  0  0  0  0  0  0
   -8.8124   36.4548  -16.9105 N   0  0  0  0  0  0  0  0  0  0  0  0
   -3.3941   40.7937  -10.4513 N   0  0  0  0  0  0  0  0  0  0  0  0
   -3.7833   39.5611  -10.0325 C   0  0  0  0  0  0  0  0  0  0  0  0
   -3.2491   38.4490  -10.6200 N   0  0  0  0  0  0  0  0  0  0  0  0
   -2.3292   38.5742  -11.6142 C   0  0  0  0  0  0  0  0  0  0  0  0
   -1.9349   39.7941  -12.0318 C   0  0  0  0  0  0  0  0  0  0  0  0
   -2.4869   40.9215  -11.4306 C   0  0  0  0  0  0  0  0  0  0  0  0
   -2.2295   42.3074  -11.7274 N   0  0  0  0  0  0  0  0  0  0  0  0
   -1.0265   39.6100  -13.0198 N   0  0  0  0  0  0  0  0  0  0  0  0
   -0.8606   38.2689  -13.2033 C   0  0  0  0  0  0  0  0  0  0  0  0
   -1.6681   37.6371  -12.3275 N   0  0  0  0  0  0  0  0  0  0  0  0
  1  3  1  6  0  0  0
  1  5  2  0  0  0  0
  1  9  1  0  0  0  0
  1 18  1  0  0  0  0
  2  4  1  1  0  0  0
  2  6  2  0  0  0  0
  2 10  1  0  0  0  0
  2 17  1  0  0  0  0
  7  9  1  0  0  0  0
  8 10  1  0  0  0  0
 11  7  1  1  0  0  0
 11 13  1  0  0  0  0
 11 15  1  0  0  0  0
 12  8  1  6  0  0  0
 12 14  1  0  0  0  0
 12 16  1  0  0  0  0
 13 23  1  0  0  0  0
 14 24  1  0  0  0  0
 15 17  1  6  0  0  0
 15 19  1  0  0  0  0
 16 18  1  1  0  0  0
 16 20  1  0  0  0  0
 19 21  1  6  0  0  0
 19 23  1  0  0  0  0
 20 22  1  1  0  0  0
 20 24  1  0  0  0  0
 23 34  1  1  0  0  0
 24 44  1  6  0  0  0
 25 26  2  0  0  0  0
 25 30  1  0  0  0  0
 26 27  1  0  0  0  0
 27 28  2  0  0  0  0
 28 29  1  0  0  0  0
 28 34  1  0  0  0  0
 29 30  2  0  0  0  0
 29 32  1  0  0  0  0
 30 31  1  0  0  0  0
 32 33  2  0  0  0  0
 33 34  1  0  0  0  0
 35 36  2  0  0  0  0
 35 40  1  0  0  0  0
 36 37  1  0  0  0  0
 37 38  2  0  0  0  0
 38 39  1  0  0  0  0
 38 44  1  0  0  0  0
 39 40  2  0  0  0  0
 39 42  1  0  0  0  0
 40 41  1  0  0  0  0
 42 43  2  0  0  0  0
 43 44  1  0  0  0  0
M  CHG  2   3  -1   4  -1
M  END
>  <CHROM.1>
60.90653331,151.10546460,-5.08008261,36.57826113,-14.45975437,-2.56622861
-0.21006165,0.87232028

>  <Name>
ligand

>  <RI>
0

>  <Rbt.Current_Directory>
/home/itssahil/PROJECTS/Mol_Feturizer/New_Systems/rnas/4QLM

>  <Rbt.Executable>
rbdock ($Id: //depot/dev/client3/rdock/2013.1/src/exe/rbdock.cxx#4 $)

>  <Rbt.Library>
libRbt.so (2013.1, Build901 2013/11/27)

>  <Rbt.Parameter_File>
/export/apps/rDock/src/rDock_2013.1_src/data/scripts/dock_solv.prm

>  <Rbt.Receptor>
prm/pocket_docking_8.prm

>  <SCORE>
-7.88004

>  <SCORE.INTER>
-7.41683

>  <SCORE.INTER.CONST>
1

>  <SCORE.INTER.POLAR>
0

>  <SCORE.INTER.ROT>
2

>  <SCORE.INTER.SOLV>
15.8646

>  <SCORE.INTER.VDW>
-15.1661

>  <SCORE.INTER.norm>
-0.168564

>  <SCORE.INTRA>
-0.463209

>  <SCORE.INTRA.DIHEDRAL>
0.0451438

>  <SCORE.INTRA.DIHEDRAL.0>
2.32994

>  <SCORE.INTRA.POLAR>
0

>  <SCORE.INTRA.POLAR.0>
0

>  <SCORE.INTRA.REPUL>
0

>  <SCORE.INTRA.REPUL.0>
0

>  <SCORE.INTRA.SOLV>
0.151752

>  <SCORE.INTRA.SOLV.lig_0>
-117.703

>  <SCORE.INTRA.VDW>
-0.561657

>  <SCORE.INTRA.VDW.0>
-1.59997

>  <SCORE.INTRA.norm>
-0.0105275

>  <SCORE.RESTR>
0

>  <SCORE.RESTR.CAVITY>
0

>  <SCORE.RESTR.norm>
0

>  <SCORE.SYSTEM>
0

>  <SCORE.SYSTEM.CONST>
0

>  <SCORE.SYSTEM.DIHEDRAL>
0

>  <SCORE.SYSTEM.SOLV>
0

>  <SCORE.SYSTEM.norm>
0

>  <SCORE.heavy>
44

>  <SCORE.norm>
-0.179092

>  <RMSD>
7.446

$$$$
ligand
 OpenBabel11021811513D
libRbt.so/2013.1/901 2013/11/27
 44 50  0  0  0  0  0  0  0  0999 V2000
   -4.3911   38.6570  -14.8697 P   0  0  2  0  0  0  0  0  0  0  0  0
   -4.9813   33.3808  -13.8604 P   0  0  1  0  0  0  0  0  0  0  0  0
   -3.0993   39.4598  -14.7382 O   0  5  0  0  0  0  0  0  0  0  0  0
   -6.2847   33.2737  -13.1070 O   0  5  0  0  0  0  0  0  0  0  0  0
   -5.5186   39.6440  -14.6851 O   0  0  0  0  0  0  0  0  0  0  0  0
   -4.5769   31.9514  -14.2875 O   0  0  0  0  0  0  0  0  0  0  0  0
   -2.9868   37.1422  -13.3952 C   0  0  0  0  0  0  0  0  0  0  0  0
   -4.0797   34.8166  -15.8082 C   0  0  0  0  0  0  0  0  0  0  0  0
   -4.3087   37.5710  -13.7488 O   0  0  0  0  0  0  0  0  0  0  0  0
   -5.2707   34.4938  -15.0362 O   0  0  0  0  0  0  0  0  0  0  0  0
   -3.0506   36.1222  -12.2634 C   0  0  1  0  0  0  0  0  0  0  0  0
   -4.5520   35.7756  -16.9653 C   0  0  1  0  0  0  0  0  0  0  0  0
   -3.1080   36.7680  -11.1400 O   0  0  0  0  0  0  0  0  0  0  0  0
   -5.5324   35.1806  -17.5120 O   0  0  0  0  0  0  0  0  0  0  0  0
   -4.2791   35.2436  -12.3212 C   0  0  1  0  0  0  0  0  0  0  0  0
   -5.2078   37.0486  -16.3939 C   0  0  1  0  0  0  0  0  0  0  0  0
   -3.8877   34.0638  -12.8719 O   0  0  0  0  0  0  0  0  0  0  0  0
   -4.3660   38.0888  -16.4286 O   0  0  0  0  0  0  0  0  0  0  0  0
   -4.6586   35.0412  -10.8129 C   0  0  1  0  0  0  0  0  0  0  0  0
   -6.4710   37.3232  -17.2412 C   0  0  1  0  0  0  0  0  0  0  0  0
   -4.2038   33.7036  -10.3465 O   0  0  0  0  0  0  0  0  0  0  0  0
   -6.2157   38.4277  -18.2211 O   0  0  0  0  0  0  0  0  0  0  0  0
   -4.0726   35.9880  -10.1527 C   0  0  2  0  0  0  0  0  0  0  0  0
   -6.6900   36.2238  -17.8772 C   0  0  2  0  0  0  0  0  0  0  0  0
   -8.9811   38.0851   -9.5781 N   0  0  0  0  0  0  0  0  0  0  0  0
   -8.6497   37.0525  -10.4034 C   0  0  0  0  0  0  0  0  0  0  0  0
   -7.3614   36.5874  -10.4769 N   0  0  0  0  0  0  0  0  0  0  0  0
   -6.3977   37.1780   -9.7069 C   0  0  0  0  0  0  0  0  0  0  0  0
   -6.7070   38.1992   -8.8959 C   0  0  0  0  0  0  0  0  0  0  0  0
   -8.0204   38.6595   -8.8201 C   0  0  0  0  0  0  0  0  0  0  0  0
   -8.4750   39.7197   -8.0112 N   0  0  0  0  0  0  0  0  0  0  0  0
   -5.5783   38.5792   -8.2603 N   0  0  0  0  0  0  0  0  0  0  0  0
   -4.5628   37.7809   -8.6968 C   0  0  0  0  0  0  0  0  0  0  0  0
   -5.0688   36.9054   -9.5753 N   0  0  0  0  0  0  0  0  0  0  0  0
   -9.3730   31.9765  -16.5055 N   0  0  0  0  0  0  0  0  0  0  0  0
   -8.0383   32.0533  -16.7483 C   0  0  0  0  0  0  0  0  0  0  0  0
   -7.4857   33.2502  -17.1081 N   0  0  0  0  0  0  0  0  0  0  0  0
   -8.2654   34.3596  -17.2173 C   0  0  0  0  0  0  0  0  0  0  0  0
   -9.5898   34.2918  -16.9734 C   0  0  0  0  0  0  0  0  0  0  0  0
  -10.1450   33.0679  -16.6113 C   0  0  0  0  0  0  0  0  0  0  0  0
  -11.5236   32.7630  -16.3260 N   0  0  0  0  0  0  0  0  0  0  0  0
  -10.1002   35.5325  -17.1607 N   0  0  0  0  0  0  0  0  0  0  0  0
   -9.0802   36.3651  -17.5160 C   0  0  0  0  0  0  0  0  0  0  0  0
   -7.9495   35.6310  -17.5452 N   0  0  0  0  0  0  0  0  0  0  0  0
  1  3  1  1  0  0  0
  1  5  2  0  0  0  0
  1  9  1  0  0  0  0
  1 18  1  0  0  0  0
  2  4  1  1  0  0  0
  2  6  2  0  0  0  0
  2 10  1  0  0  0  0
  2 17  1  0  0  0  0
  7  9  1  0  0  0  0
  8 10  1  0  0  0  0
 11  7  1  6  0  0  0
 11 13  1  0  0  0  0
 11 15  1  0  0  0  0
 12  8  1  1  0  0  0
 12 14  1  0  0  0  0
 12 16  1  0  0  0  0
 13 23  1  0  0  0  0
 14 24  1  0  0  0  0
 15 17  1  1  0  0  0
 15 19  1  0  0  0  0
 16 18  1  6  0  0  0
 16 20  1  0  0  0  0
 19 21  1  1  0  0  0
 19 23  1  0  0  0  0
 20 22  1  6  0  0  0
 20 24  1  0  0  0  0
 23 34  1  6  0  0  0
 24 44  1  1  0  0  0
 25 26  2  0  0  0  0
 25 30  1  0  0  0  0
 26 27  1  0  0  0  0
 27 28  2  0  0  0  0
 28 29  1  0  0  0  0
 28 34  1  0  0  0  0
 29 30  2  0  0  0  0
 29 32  1  0  0  0  0
 30 31  1  0  0  0  0
 32 33  2  0  0  0  0
 33 34  1  0  0  0  0
 35 36  2  0  0  0  0
 35 40  1  0  0  0  0
 36 37  1  0  0  0  0
 37 38  2  0  0  0  0
 38 39  1  0  0  0  0
 38 44  1  0  0  0  0
 39 40  2  0  0  0  0
 39 42  1  0  0  0  0
 40 41  1  0  0  0  0
 42 43  2  0  0  0  0
 43 44  1  0  0  0  0
M  CHG  2   3  -1   4  -1
M  END
>  <CHROM.1>
106.19522276,-11.87691918,-6.03459576,35.99239515,-13.84286525,-1.22060542
-0.67633579,-1.73818810

>  <Name>
ligand

>  <RI>
0

>  <Rbt.Current_Directory>
/home/itssahil/PROJECTS/Mol_Feturizer/New_Systems/rnas/4QLM

>  <Rbt.Executable>
rbdock ($Id: //depot/dev/client3/rdock/2013.1/src/exe/rbdock.cxx#4 $)

>  <Rbt.Library>
libRbt.so (2013.1, Build901 2013/11/27)

>  <Rbt.Parameter_File>
/export/apps/rDock/src/rDock_2013.1_src/data/scripts/dock_solv.prm

>  <Rbt.Receptor>
prm/pocket_docking_6.prm

>  <SCORE>
-14.2211

>  <SCORE.INTER>
-14.8783

>  <SCORE.INTER.CONST>
1

>  <SCORE.INTER.POLAR>
0

>  <SCORE.INTER.ROT>
2

>  <SCORE.INTER.SOLV>
20.1457

>  <SCORE.INTER.VDW>
-21.5675

>  <SCORE.INTER.norm>
-0.338144

>  <SCORE.INTRA>
-0.25659

>  <SCORE.INTRA.DIHEDRAL>
0.014352

>  <SCORE.INTRA.DIHEDRAL.0>
2.32994

>  <SCORE.INTRA.POLAR>
0

>  <SCORE.INTRA.POLAR.0>
0

>  <SCORE.INTRA.REPUL>
0

>  <SCORE.INTRA.REPUL.0>
0

>  <SCORE.INTRA.SOLV>
0.11032

>  <SCORE.INTRA.SOLV.lig_0>
-117.703

>  <SCORE.INTRA.VDW>
-0.318926

>  <SCORE.INTRA.VDW.0>
-1.59997

>  <SCORE.INTRA.norm>
-0.00583158

>  <SCORE.RESTR>
0.913778

>  <SCORE.RESTR.CAVITY>
0.913778

>  <SCORE.RESTR.norm>
0.0207677

>  <SCORE.SYSTEM>
0

>  <SCORE.SYSTEM.CONST>
0

>  <SCORE.SYSTEM.DIHEDRAL>
0

>  <SCORE.SYSTEM.SOLV>
0

>  <SCORE.SYSTEM.norm>
0

>  <SCORE.heavy>
44

>  <SCORE.norm>
-0.323208

>  <RMSD>
7.468

$$$$
ligand
 OpenBabel11021811513D
libRbt.so/2013.1/901 2013/11/27
 44 50  0  0  0  0  0  0  0  0999 V2000
   -3.0981   38.1771  -15.3258 P   0  0  2  0  0  0  0  0  0  0  0  0
   -4.9119   33.2966  -13.8778 P   0  0  1  0  0  0  0  0  0  0  0  0
   -1.6628   38.6798  -15.1933 O   0  5  0  0  0  0  0  0  0  0  0  0
   -6.2314   33.5606  -13.1942 O   0  5  0  0  0  0  0  0  0  0  0  0
   -3.9766   39.4047  -15.2967 O   0  0  0  0  0  0  0  0  0  0  0  0
   -4.8292   31.7773  -14.1494 O   0  0  0  0  0  0  0  0  0  0  0  0
   -2.1298   36.5441  -13.6414 C   0  0  0  0  0  0  0  0  0  0  0  0
   -3.6377   34.2894  -15.8925 C   0  0  0  0  0  0  0  0  0  0  0  0
   -3.3055   37.2195  -14.1081 O   0  0  0  0  0  0  0  0  0  0  0  0
   -4.8977   34.3210  -15.1644 O   0  0  0  0  0  0  0  0  0  0  0  0
   -2.4649   35.6844  -12.4273 C   0  0  1  0  0  0  0  0  0  0  0  0
   -3.8373   35.2073  -17.1571 C   0  0  1  0  0  0  0  0  0  0  0  0
   -2.4134   36.4372  -11.3723 O   0  0  0  0  0  0  0  0  0  0  0  0
   -4.9074   34.7942  -17.7032 O   0  0  0  0  0  0  0  0  0  0  0  0
   -3.8585   35.1015  -12.4759 C   0  0  1  0  0  0  0  0  0  0  0  0
   -4.2053   36.6458  -16.7423 C   0  0  1  0  0  0  0  0  0  0  0  0
   -3.7273   33.8145  -12.8939 O   0  0  0  0  0  0  0  0  0  0  0  0
   -3.1478   37.4626  -16.8226 O   0  0  0  0  0  0  0  0  0  0  0  0
   -4.3277   35.1431  -10.9799 C   0  0  1  0  0  0  0  0  0  0  0  0
   -5.3416   37.1086  -17.6825 C   0  0  1  0  0  0  0  0  0  0  0  0
   -4.2069   33.7921  -10.3686 O   0  0  0  0  0  0  0  0  0  0  0  0
   -4.8063   38.0228  -18.7421 O   0  0  0  0  0  0  0  0  0  0  0  0
   -3.5651   35.9969  -10.3756 C   0  0  2  0  0  0  0  0  0  0  0  0
   -5.7828   36.0273  -18.2277 C   0  0  2  0  0  0  0  0  0  0  0  0
   -6.5989   40.3600  -11.1374 N   0  0  0  0  0  0  0  0  0  0  0  0
   -6.1284   39.5383  -12.1174 C   0  0  0  0  0  0  0  0  0  0  0  0
   -5.3589   38.4432  -11.8173 N   0  0  0  0  0  0  0  0  0  0  0  0
   -5.0609   38.1800  -10.5088 C   0  0  0  0  0  0  0  0  0  0  0  0
   -5.5104   38.9831   -9.5345 C   0  0  0  0  0  0  0  0  0  0  0  0
   -6.2997   40.0884   -9.8473 C   0  0  0  0  0  0  0  0  0  0  0  0
   -6.8329   41.0068   -8.9215 N   0  0  0  0  0  0  0  0  0  0  0  0
   -5.0744   38.4885   -8.3566 N   0  0  0  0  0  0  0  0  0  0  0  0
   -4.3408   37.3692   -8.6180 C   0  0  0  0  0  0  0  0  0  0  0  0
   -4.3456   37.1675   -9.9422 N   0  0  0  0  0  0  0  0  0  0  0  0
   -9.4505   32.5959  -16.8516 N   0  0  0  0  0  0  0  0  0  0  0  0
   -8.1332   32.3388  -17.0634 C   0  0  0  0  0  0  0  0  0  0  0  0
   -7.2974   33.3561  -17.4293 N   0  0  0  0  0  0  0  0  0  0  0  0
   -7.7793   34.6198  -17.5754 C   0  0  0  0  0  0  0  0  0  0  0  0
   -9.0844   34.8832  -17.3624 C   0  0  0  0  0  0  0  0  0  0  0  0
   -9.9294   33.8404  -16.9938 C   0  0  0  0  0  0  0  0  0  0  0  0
  -11.3460   33.8882  -16.7369 N   0  0  0  0  0  0  0  0  0  0  0  0
   -9.2717   36.2067  -17.5824 N   0  0  0  0  0  0  0  0  0  0  0  0
   -8.0721   36.7566  -17.9266 C   0  0  0  0  0  0  0  0  0  0  0  0
   -7.1553   35.7679  -17.9165 N   0  0  0  0  0  0  0  0  0  0  0  0
  1  3  1  1  0  0  0
  1  5  2  0  0  0  0
  1  9  1  0  0  0  0
  1 18  1  0  0  0  0
  2  4  1  1  0  0  0
  2  6  2  0  0  0  0
  2 10  1  0  0  0  0
  2 17  1  0  0  0  0
  7  9  1  0  0  0  0
  8 10  1  0  0  0  0
 11  7  1  6  0  0  0
 11 13  1  0  0  0  0
 11 15  1  0  0  0  0
 12  8  1  1  0  0  0
 12 14  1  0  0  0  0
 12 16  1  0  0  0  0
 13 23  1  0  0  0  0
 14 24  1  0  0  0  0
 15 17  1  1  0  0  0
 15 19  1  0  0  0  0
 16 18  1  6  0  0  0
 16 20  1  0  0  0  0
 19 21  1  1  0  0  0
 19 23  1  0  0  0  0
 20 22  1  6  0  0  0
 20 24  1  0  0  0  0
 23 34  1  6  0  0  0
 24 44  1  1  0  0  0
 25 26  2  0  0  0  0
 25 30  1  0  0  0  0
 26 27  1  0  0  0  0
 27 28  2  0  0  0  0
 28 29  1  0  0  0  0
 28 34  1  0  0  0  0
 29 30  2  0  0  0  0
 29 32  1  0  0  0  0
 30 31  1  0  0  0  0
 32 33  2  0  0  0  0
 33 34  1  0  0  0  0
 35 36  2  0  0  0  0
 35 40  1  0  0  0  0
 36 37  1  0  0  0  0
 37 38  2  0  0  0  0
 38 39  1  0  0  0  0
 38 44  1  0  0  0  0
 39 40  2  0  0  0  0
 39 42  1  0  0  0  0
 40 41  1  0  0  0  0
 42 43  2  0  0  0  0
 43 44  1  0  0  0  0
M  CHG  2   3  -1   4  -1
M  END
>  <CHROM.1>
56.15053114,-16.67395370,-5.25580357,36.14081803,-14.22914820,-0.91592561
-0.96540658,-1.47506512

>  <Name>
ligand

>  <RI>
0

>  <Rbt.Current_Directory>
/home/itssahil/PROJECTS/Mol_Feturizer/New_Systems/rnas/4QLM

>  <Rbt.Executable>
rbdock ($Id: //depot/dev/client3/rdock/2013.1/src/exe/rbdock.cxx#4 $)

>  <Rbt.Library>
libRbt.so (2013.1, Build901 2013/11/27)

>  <Rbt.Parameter_File>
/export/apps/rDock/src/rDock_2013.1_src/data/scripts/dock_solv.prm

>  <Rbt.Receptor>
prm/pocket_docking_6.prm

>  <SCORE>
-14.6613

>  <SCORE.INTER>
-14.6018

>  <SCORE.INTER.CONST>
1

>  <SCORE.INTER.POLAR>
0

>  <SCORE.INTER.ROT>
2

>  <SCORE.INTER.SOLV>
21.9602

>  <SCORE.INTER.VDW>
-21.9879

>  <SCORE.INTER.norm>
-0.331859

>  <SCORE.INTRA>
-0.6359

>  <SCORE.INTRA.DIHEDRAL>
0.0903783

>  <SCORE.INTRA.DIHEDRAL.0>
2.32994

>  <SCORE.INTRA.POLAR>
0

>  <SCORE.INTRA.POLAR.0>
0

>  <SCORE.INTRA.REPUL>
0

>  <SCORE.INTRA.REPUL.0>
0

>  <SCORE.INTRA.SOLV>
0.242512

>  <SCORE.INTRA.SOLV.lig_0>
-117.703

>  <SCORE.INTRA.VDW>
-0.802345

>  <SCORE.INTRA.VDW.0>
-1.59997

>  <SCORE.INTRA.norm>
-0.0144523

>  <SCORE.RESTR>
0.576371

>  <SCORE.RESTR.CAVITY>
0.576371

>  <SCORE.RESTR.norm>
0.0130993

>  <SCORE.SYSTEM>
0

>  <SCORE.SYSTEM.CONST>
0

>  <SCORE.SYSTEM.DIHEDRAL>
0

>  <SCORE.SYSTEM.SOLV>
0

>  <SCORE.SYSTEM.norm>
0

>  <SCORE.heavy>
44

>  <SCORE.norm>
-0.333212

>  <RMSD>
7.508

$$$$
ligand
 OpenBabel11021811513D
libRbt.so/2013.1/901 2013/11/27
 44 50  0  0  0  0  0  0  0  0999 V2000
   -4.4646   36.0735  -10.8648 P   0  0  2  0  0  0  0  0  0  0  0  0
   -3.9792   37.9126  -15.9233 P   0  0  1  0  0  0  0  0  0  0  0  0
   -3.4463   35.2169  -10.1167 O   0  5  0  0  0  0  0  0  0  0  0  0
   -5.3393   37.7043  -16.5436 O   0  5  0  0  0  0  0  0  0  0  0  0
   -5.8063   35.7682  -10.2434 O   0  0  0  0  0  0  0  0  0  0  0  0
   -3.1772   38.8347  -16.8695 O   0  0  0  0  0  0  0  0  0  0  0  0
   -3.0487   35.1705  -12.7677 C   0  0  0  0  0  0  0  0  0  0  0  0
   -3.0884   38.5961  -13.5978 C   0  0  0  0  0  0  0  0  0  0  0  0
   -4.3429   35.6341  -12.3597 O   0  0  0  0  0  0  0  0  0  0  0  0
   -4.2942   38.4433  -14.3988 O   0  0  0  0  0  0  0  0  0  0  0  0
   -3.0841   34.7318  -14.2277 C   0  0  1  0  0  0  0  0  0  0  0  0
   -3.5452   39.2363  -12.2329 C   0  0  1  0  0  0  0  0  0  0  0  0
   -3.5028   33.5050  -14.2712 O   0  0  0  0  0  0  0  0  0  0  0  0
   -4.2368   40.2518  -12.5560 O   0  0  0  0  0  0  0  0  0  0  0  0
   -4.0381   35.5454  -15.0717 C   0  0  1  0  0  0  0  0  0  0  0  0
   -4.5773   38.3394  -11.5207 C   0  0  1  0  0  0  0  0  0  0  0  0
   -3.2838   36.4553  -15.7436 O   0  0  0  0  0  0  0  0  0  0  0  0
   -4.0125   37.6352  -10.5324 O   0  0  0  0  0  0  0  0  0  0  0  0
   -4.6377   34.4929  -16.0682 C   0  0  1  0  0  0  0  0  0  0  0  0
   -5.6861   39.2710  -10.9803 C   0  0  1  0  0  0  0  0  0  0  0  0
   -3.9781   34.6131  -17.3963 O   0  0  0  0  0  0  0  0  0  0  0  0
   -5.5167   39.4888   -9.5075 O   0  0  0  0  0  0  0  0  0  0  0  0
   -4.4261   33.3267  -15.5476 C   0  0  2  0  0  0  0  0  0  0  0  0
   -5.5165   40.3860  -11.6041 C   0  0  2  0  0  0  0  0  0  0  0  0
   -9.5815   32.0081  -16.2577 N   0  0  0  0  0  0  0  0  0  0  0  0
   -8.8153   32.7187  -17.1324 C   0  0  0  0  0  0  0  0  0  0  0  0
   -7.5020   33.0034  -16.8571 N   0  0  0  0  0  0  0  0  0  0  0  0
   -6.9604   32.5649  -15.6804 C   0  0  0  0  0  0  0  0  0  0  0  0
   -7.7036   31.8712  -14.8069 C   0  0  0  0  0  0  0  0  0  0  0  0
   -9.0346   31.5780  -15.0986 C   0  0  0  0  0  0  0  0  0  0  0  0
   -9.9194   30.8603  -14.2698 N   0  0  0  0  0  0  0  0  0  0  0  0
   -6.9221   31.5666  -13.7492 N   0  0  0  0  0  0  0  0  0  0  0  0
   -5.6840   32.0897  -13.9787 C   0  0  0  0  0  0  0  0  0  0  0  0
   -5.7005   32.6903  -15.1758 N   0  0  0  0  0  0  0  0  0  0  0  0
  -10.4355   42.0760  -11.8639 N   0  0  0  0  0  0  0  0  0  0  0  0
   -9.7109   41.8488  -10.7370 C   0  0  0  0  0  0  0  0  0  0  0  0
   -8.4258   41.3960  -10.8409 N   0  0  0  0  0  0  0  0  0  0  0  0
   -7.8727   41.1790  -12.0646 C   0  0  0  0  0  0  0  0  0  0  0  0
   -8.5842   41.4066  -13.1872 C   0  0  0  0  0  0  0  0  0  0  0  0
   -9.8937   41.8640  -13.0721 C   0  0  0  0  0  0  0  0  0  0  0  0
  -10.8338   42.1524  -14.1247 N   0  0  0  0  0  0  0  0  0  0  0  0
   -7.7871   41.1046  -14.2401 N   0  0  0  0  0  0  0  0  0  0  0  0
   -6.5789   40.6952  -13.7579 C   0  0  0  0  0  0  0  0  0  0  0  0
   -6.6410   40.7476  -12.4120 N   0  0  0  0  0  0  0  0  0  0  0  0
  1  3  1  1  0  0  0
  1  5  2  0  0  0  0
  1  9  1  0  0  0  0
  1 18  1  0  0  0  0
  2  4  1  6  0  0  0
  2  6  2  0  0  0  0
  2 10  1  0  0  0  0
  2 17  1  0  0  0  0
  7  9  1  0  0  0  0
  8 10  1  0  0  0  0
 11  7  1  1  0  0  0
 11 13  1  0  0  0  0
 11 15  1  0  0  0  0
 12  8  1  6  0  0  0
 12 14  1  0  0  0  0
 12 16  1  0  0  0  0
 13 23  1  0  0  0  0
 14 24  1  0  0  0  0
 15 17  1  6  0  0  0
 15 19  1  0  0  0  0
 16 18  1  1  0  0  0
 16 20  1  0  0  0  0
 19 21  1  6  0  0  0
 19 23  1  0  0  0  0
 20 22  1  1  0  0  0
 20 24  1  0  0  0  0
 23 34  1  1  0  0  0
 24 44  1  6  0  0  0
 25 26  2  0  0  0  0
 25 30  1  0  0  0  0
 26 27  1  0  0  0  0
 27 28  2  0  0  0  0
 28 29  1  0  0  0  0
 28 34  1  0  0  0  0
 29 30  2  0  0  0  0
 29 32  1  0  0  0  0
 30 31  1  0  0  0  0
 32 33  2  0  0  0  0
 33 34  1  0  0  0  0
 35 36  2  0  0  0  0
 35 40  1  0  0  0  0
 36 37  1  0  0  0  0
 37 38  2  0  0  0  0
 38 39  1  0  0  0  0
 38 44  1  0  0  0  0
 39 40  2  0  0  0  0
 39 42  1  0  0  0  0
 40 41  1  0  0  0  0
 42 43  2  0  0  0  0
 43 44  1  0  0  0  0
M  CHG  2   3  -1   4  -1
M  END
>  <CHROM.1>
160.00796359,-168.11412064,-5.83127254,36.87715740,-13.61260408,-1.69762742
0.20243950,-2.74319710

>  <Name>
ligand

>  <RI>
0

>  <Rbt.Current_Directory>
/home/itssahil/PROJECTS/Mol_Feturizer/New_Systems/rnas/4QLM

>  <Rbt.Executable>
rbdock ($Id: //depot/dev/client3/rdock/2013.1/src/exe/rbdock.cxx#4 $)

>  <Rbt.Library>
libRbt.so (2013.1, Build901 2013/11/27)

>  <Rbt.Parameter_File>
/export/apps/rDock/src/rDock_2013.1_src/data/scripts/dock_solv.prm

>  <Rbt.Receptor>
prm/pocket_docking_8.prm

>  <SCORE>
-8.83894

>  <SCORE.INTER>
-9.33683

>  <SCORE.INTER.CONST>
1

>  <SCORE.INTER.POLAR>
0

>  <SCORE.INTER.ROT>
2

>  <SCORE.INTER.SOLV>
18.5152

>  <SCORE.INTER.VDW>
-17.3296

>  <SCORE.INTER.norm>
-0.212201

>  <SCORE.INTRA>
0.49789

>  <SCORE.INTRA.DIHEDRAL>
0.162009

>  <SCORE.INTRA.DIHEDRAL.0>
2.32994

>  <SCORE.INTRA.POLAR>
0

>  <SCORE.INTRA.POLAR.0>
0

>  <SCORE.INTRA.REPUL>
0

>  <SCORE.INTRA.REPUL.0>
0

>  <SCORE.INTRA.SOLV>
0.0469452

>  <SCORE.INTRA.SOLV.lig_0>
-117.703

>  <SCORE.INTRA.VDW>
0.393413

>  <SCORE.INTRA.VDW.0>
-1.59997

>  <SCORE.INTRA.norm>
0.0113157

>  <SCORE.RESTR>
0

>  <SCORE.RESTR.CAVITY>
0

>  <SCORE.RESTR.norm>
0

>  <SCORE.SYSTEM>
0

>  <SCORE.SYSTEM.CONST>
0

>  <SCORE.SYSTEM.DIHEDRAL>
0

>  <SCORE.SYSTEM.SOLV>
0

>  <SCORE.SYSTEM.norm>
0

>  <SCORE.heavy>
44

>  <SCORE.norm>
-0.200885

>  <RMSD>
7.517

$$$$
ligand
 OpenBabel11021811513D
libRbt.so/2013.1/901 2013/11/27
 44 50  0  0  0  0  0  0  0  0999 V2000
  -11.6707   32.4745  -14.4881 P   0  0  2  0  0  0  0  0  0  0  0  0
   -8.7712   36.4035  -16.8035 P   0  0  1  0  0  0  0  0  0  0  0  0
  -12.9530   31.8572  -15.0403 O   0  5  0  0  0  0  0  0  0  0  0  0
   -8.4025   37.3315  -15.6717 O   0  5  0  0  0  0  0  0  0  0  0  0
  -11.7280   32.2906  -12.9906 O   0  0  0  0  0  0  0  0  0  0  0  0
   -7.9037   36.7946  -18.0216 O   0  0  0  0  0  0  0  0  0  0  0  0
  -12.4034   34.2229  -16.1755 C   0  0  0  0  0  0  0  0  0  0  0  0
   -9.0221   33.8505  -17.0992 C   0  0  0  0  0  0  0  0  0  0  0  0
  -11.7109   33.9683  -14.9459 O   0  0  0  0  0  0  0  0  0  0  0  0
   -8.5989   34.8931  -16.1759 O   0  0  0  0  0  0  0  0  0  0  0  0
  -12.4066   35.7178  -16.4767 C   0  0  1  0  0  0  0  0  0  0  0  0
   -8.6655   32.4802  -16.4088 C   0  0  1  0  0  0  0  0  0  0  0  0
  -13.4011   36.2561  -15.8413 O   0  0  0  0  0  0  0  0  0  0  0  0
   -7.4454   32.5848  -16.0707 O   0  0  0  0  0  0  0  0  0  0  0  0
  -11.1569   36.4240  -16.0035 C   0  0  1  0  0  0  0  0  0  0  0  0
   -9.3805   32.3446  -15.0496 C   0  0  1  0  0  0  0  0  0  0  0  0
  -10.3601   36.5772  -17.0943 O   0  0  0  0  0  0  0  0  0  0  0  0
  -10.4554   31.5520  -15.1404 O   0  0  0  0  0  0  0  0  0  0  0  0
  -11.6843   37.8178  -15.5142 C   0  0  1  0  0  0  0  0  0  0  0  0
   -8.3470   31.7728  -14.0525 C   0  0  1  0  0  0  0  0  0  0  0  0
  -11.4106   38.8574  -16.5426 O   0  0  0  0  0  0  0  0  0  0  0  0
   -8.5890   30.3115  -13.8263 O   0  0  0  0  0  0  0  0  0  0  0  0
  -12.9564   37.6840  -15.3150 C   0  0  2  0  0  0  0  0  0  0  0  0
   -7.2050   31.9375  -14.6268 C   0  0  2  0  0  0  0  0  0  0  0  0
  -12.2021   36.8157  -10.0711 N   0  0  0  0  0  0  0  0  0  0  0  0
  -11.4116   36.3448  -11.0764 C   0  0  0  0  0  0  0  0  0  0  0  0
  -11.6904   36.6252  -12.3898 N   0  0  0  0  0  0  0  0  0  0  0  0
  -12.7847   37.3896  -12.6874 C   0  0  0  0  0  0  0  0  0  0  0  0
  -13.5757   37.8538  -11.7100 C   0  0  0  0  0  0  0  0  0  0  0  0
  -13.2799   37.5722  -10.3774 C   0  0  0  0  0  0  0  0  0  0  0  0
  -14.0268   37.9981   -9.2613 N   0  0  0  0  0  0  0  0  0  0  0  0
  -14.5641   38.5722  -12.2838 N   0  0  0  0  0  0  0  0  0  0  0  0
  -14.3764   38.5391  -13.6339 C   0  0  0  0  0  0  0  0  0  0  0  0
  -13.2708   37.8255  -13.8838 N   0  0  0  0  0  0  0  0  0  0  0  0
   -6.6216   36.1367  -11.6024 N   0  0  0  0  0  0  0  0  0  0  0  0
   -7.7831   35.6671  -12.1286 C   0  0  0  0  0  0  0  0  0  0  0  0
   -7.7647   34.5487  -12.9136 N   0  0  0  0  0  0  0  0  0  0  0  0
   -6.5922   33.9055  -13.1625 C   0  0  0  0  0  0  0  0  0  0  0  0
   -5.4365   34.3631  -12.6399 C   0  0  0  0  0  0  0  0  0  0  0  0
   -5.4637   35.5051  -11.8448 C   0  0  0  0  0  0  0  0  0  0  0  0
   -4.3594   36.1743  -11.2062 N   0  0  0  0  0  0  0  0  0  0  0  0
   -4.4484   33.5345  -13.0547 N   0  0  0  0  0  0  0  0  0  0  0  0
   -5.0046   32.5611  -13.8311 C   0  0  0  0  0  0  0  0  0  0  0  0
   -6.3308   32.7976  -13.8892 N   0  0  0  0  0  0  0  0  0  0  0  0
  1  3  1  6  0  0  0
  1  5  2  0  0  0  0
  1  9  1  0  0  0  0
  1 18  1  0  0  0  0
  2  4  1  1  0  0  0
  2  6  2  0  0  0  0
  2 10  1  0  0  0  0
  2 17  1  0  0  0  0
  7  9  1  0  0  0  0
  8 10  1  0  0  0  0
 11  7  1  1  0  0  0
 11 13  1  0  0  0  0
 11 15  1  0  0  0  0
 12  8  1  1  0  0  0
 12 14  1  0  0  0  0
 12 16  1  0  0  0  0
 13 23  1  0  0  0  0
 14 24  1  0  0  0  0
 15 17  1  6  0  0  0
 15 19  1  0  0  0  0
 16 18  1  6  0  0  0
 16 20  1  0  0  0  0
 19 21  1  6  0  0  0
 19 23  1  0  0  0  0
 20 22  1  6  0  0  0
 20 24  1  0  0  0  0
 23 34  1  1  0  0  0
 24 44  1  1  0  0  0
 25 26  2  0  0  0  0
 25 30  1  0  0  0  0
 26 27  1  0  0  0  0
 27 28  2  0  0  0  0
 28 29  1  0  0  0  0
 28 34  1  0  0  0  0
 29 30  2  0  0  0  0
 29 32  1  0  0  0  0
 30 31  1  0  0  0  0
 32 33  2  0  0  0  0
 33 34  1  0  0  0  0
 35 36  2  0  0  0  0
 35 40  1  0  0  0  0
 36 37  1  0  0  0  0
 37 38  2  0  0  0  0
 38 39  1  0  0  0  0
 38 44  1  0  0  0  0
 39 40  2  0  0  0  0
 39 42  1  0  0  0  0
 40 41  1  0  0  0  0
 42 43  2  0  0  0  0
 43 44  1  0  0  0  0
M  CHG  2   3  -1   4  -1
M  END
>  <CHROM.1>
75.37473689,83.61873493,-9.97959528,35.08023982,-14.24649914,0.40432517,0.42712687
-2.15690710

>  <Name>
ligand

>  <RI>
0

>  <Rbt.Current_Directory>
/home/itssahil/PROJECTS/Mol_Feturizer/New_Systems/rnas/4QLM

>  <Rbt.Executable>
rbdock ($Id: //depot/dev/client3/rdock/2013.1/src/exe/rbdock.cxx#4 $)

>  <Rbt.Library>
libRbt.so (2013.1, Build901 2013/11/27)

>  <Rbt.Parameter_File>
/export/apps/rDock/src/rDock_2013.1_src/data/scripts/dock_solv.prm

>  <Rbt.Receptor>
prm/pocket_docking_8.prm

>  <SCORE>
-9.16512

>  <SCORE.INTER>
-7.61948

>  <SCORE.INTER.CONST>
1

>  <SCORE.INTER.POLAR>
0

>  <SCORE.INTER.ROT>
2

>  <SCORE.INTER.SOLV>
17.2967

>  <SCORE.INTER.VDW>
-15.7785

>  <SCORE.INTER.norm>
-0.17317

>  <SCORE.INTRA>
-1.54564

>  <SCORE.INTRA.DIHEDRAL>
-0.0011816

>  <SCORE.INTRA.DIHEDRAL.0>
2.32994

>  <SCORE.INTRA.POLAR>
0

>  <SCORE.INTRA.POLAR.0>
0

>  <SCORE.INTRA.REPUL>
0

>  <SCORE.INTRA.REPUL.0>
0

>  <SCORE.INTRA.SOLV>
0.0953355

>  <SCORE.INTRA.SOLV.lig_0>
-117.703

>  <SCORE.INTRA.VDW>
-1.59271

>  <SCORE.INTRA.VDW.0>
-1.59997

>  <SCORE.INTRA.norm>
-0.0351281

>  <SCORE.RESTR>
0

>  <SCORE.RESTR.CAVITY>
0

>  <SCORE.RESTR.norm>
0

>  <SCORE.SYSTEM>
0

>  <SCORE.SYSTEM.CONST>
0

>  <SCORE.SYSTEM.DIHEDRAL>
0

>  <SCORE.SYSTEM.SOLV>
0

>  <SCORE.SYSTEM.norm>
0

>  <SCORE.heavy>
44

>  <SCORE.norm>
-0.208298

>  <RMSD>
7.528

$$$$
ligand
 OpenBabel11021811513D
libRbt.so/2013.1/901 2013/11/27
 44 50  0  0  0  0  0  0  0  0999 V2000
   -2.9417   38.2039  -15.3586 P   0  0  2  0  0  0  0  0  0  0  0  0
   -4.8413   33.3581  -13.9043 P   0  0  1  0  0  0  0  0  0  0  0  0
   -1.4991   38.6838  -15.2208 O   0  5  0  0  0  0  0  0  0  0  0  0
   -6.1595   33.6456  -13.2279 O   0  5  0  0  0  0  0  0  0  0  0  0
   -3.8003   39.4457  -15.3376 O   0  0  0  0  0  0  0  0  0  0  0  0
   -4.7820   31.8367  -14.1708 O   0  0  0  0  0  0  0  0  0  0  0  0
   -2.0081   36.5609  -13.6646 C   0  0  0  0  0  0  0  0  0  0  0  0
   -3.5416   34.3237  -15.9159 C   0  0  0  0  0  0  0  0  0  0  0  0
   -3.1705   37.2537  -14.1390 O   0  0  0  0  0  0  0  0  0  0  0  0
   -4.8043   34.3780  -15.1940 O   0  0  0  0  0  0  0  0  0  0  0  0
   -2.3629   35.7105  -12.4494 C   0  0  1  0  0  0  0  0  0  0  0  0
   -3.7202   35.2407  -17.1843 C   0  0  1  0  0  0  0  0  0  0  0  0
   -2.3042   36.4657  -11.3965 O   0  0  0  0  0  0  0  0  0  0  0  0
   -4.7943   34.8433  -17.7343 O   0  0  0  0  0  0  0  0  0  0  0  0
   -3.7655   35.1501  -12.5030 C   0  0  1  0  0  0  0  0  0  0  0  0
   -4.0668   36.6863  -16.7757 C   0  0  1  0  0  0  0  0  0  0  0  0
   -3.6531   33.8598  -12.9163 O   0  0  0  0  0  0  0  0  0  0  0  0
   -2.9958   37.4856  -16.8535 O   0  0  0  0  0  0  0  0  0  0  0  0
   -4.2410   35.2041  -11.0093 C   0  0  1  0  0  0  0  0  0  0  0  0
   -5.1910   37.1644  -17.7228 C   0  0  1  0  0  0  0  0  0  0  0  0
   -4.1451   33.8532  -10.3934 O   0  0  0  0  0  0  0  0  0  0  0  0
   -4.6359   38.0665  -18.7827 O   0  0  0  0  0  0  0  0  0  0  0  0
   -3.4676   36.0473  -10.4040 C   0  0  2  0  0  0  0  0  0  0  0  0
   -5.6470   36.0887  -18.2667 C   0  0  2  0  0  0  0  0  0  0  0  0
   -5.7179   40.8738  -11.0838 N   0  0  0  0  0  0  0  0  0  0  0  0
   -5.0525   40.1656  -12.0392 C   0  0  0  0  0  0  0  0  0  0  0  0
   -4.5127   38.9350  -11.7640 N   0  0  0  0  0  0  0  0  0  0  0  0
   -4.6469   38.4179  -10.5051 C   0  0  0  0  0  0  0  0  0  0  0  0
   -5.2923   39.1059   -9.5530 C   0  0  0  0  0  0  0  0  0  0  0  0
   -5.8461   40.3515   -9.8435 C   0  0  0  0  0  0  0  0  0  0  0  0
   -6.5459   41.1721   -8.9370 N   0  0  0  0  0  0  0  0  0  0  0  0
   -5.2776   38.3645   -8.4250 N   0  0  0  0  0  0  0  0  0  0  0  0
   -4.6055   37.2086   -8.6922 C   0  0  0  0  0  0  0  0  0  0  0  0
   -4.2311   37.2317   -9.9780 N   0  0  0  0  0  0  0  0  0  0  0  0
   -9.3770   32.7209  -16.9010 N   0  0  0  0  0  0  0  0  0  0  0  0
   -8.0632   32.4417  -17.1062 C   0  0  0  0  0  0  0  0  0  0  0  0
   -7.2091   33.4444  -17.4703 N   0  0  0  0  0  0  0  0  0  0  0  0
   -7.6694   34.7155  -17.6210 C   0  0  0  0  0  0  0  0  0  0  0  0
   -8.9710   35.0008  -17.4145 C   0  0  0  0  0  0  0  0  0  0  0  0
   -9.8347   33.9728  -17.0478 C   0  0  0  0  0  0  0  0  0  0  0  0
  -11.2515   34.0444  -16.7974 N   0  0  0  0  0  0  0  0  0  0  0  0
   -9.1354   36.3268  -17.6379 N   0  0  0  0  0  0  0  0  0  0  0  0
   -7.9254   36.8562  -17.9776 C   0  0  0  0  0  0  0  0  0  0  0  0
   -7.0251   35.8525  -17.9614 N   0  0  0  0  0  0  0  0  0  0  0  0
  1  3  1  1  0  0  0
  1  5  2  0  0  0  0
  1  9  1  0  0  0  0
  1 18  1  0  0  0  0
  2  4  1  1  0  0  0
  2  6  2  0  0  0  0
  2 10  1  0  0  0  0
  2 17  1  0  0  0  0
  7  9  1  0  0  0  0
  8 10  1  0  0  0  0
 11  7  1  6  0  0  0
 11 13  1  0  0  0  0
 11 15  1  0  0  0  0
 12  8  1  1  0  0  0
 12 14  1  0  0  0  0
 12 16  1  0  0  0  0
 13 23  1  0  0  0  0
 14 24  1  0  0  0  0
 15 17  1  1  0  0  0
 15 19  1  0  0  0  0
 16 18  1  6  0  0  0
 16 20  1  0  0  0  0
 19 21  1  1  0  0  0
 19 23  1  0  0  0  0
 20 22  1  6  0  0  0
 20 24  1  0  0  0  0
 23 34  1  6  0  0  0
 24 44  1  1  0  0  0
 25 26  2  0  0  0  0
 25 30  1  0  0  0  0
 26 27  1  0  0  0  0
 27 28  2  0  0  0  0
 28 29  1  0  0  0  0
 28 34  1  0  0  0  0
 29 30  2  0  0  0  0
 29 32  1  0  0  0  0
 30 31  1  0  0  0  0
 32 33  2  0  0  0  0
 33 34  1  0  0  0  0
 35 36  2  0  0  0  0
 35 40  1  0  0  0  0
 36 37  1  0  0  0  0
 37 38  2  0  0  0  0
 38 39  1  0  0  0  0
 38 44  1  0  0  0  0
 39 40  2  0  0  0  0
 39 42  1  0  0  0  0
 40 41  1  0  0  0  0
 42 43  2  0  0  0  0
 43 44  1  0  0  0  0
M  CHG  2   3  -1   4  -1
M  END
>  <CHROM.1>
35.31538206,-16.74418143,-5.08953115,36.23389062,-14.25725691,-0.80825583
-1.02816520,-1.37321331

>  <Name>
ligand

>  <RI>
0

>  <Rbt.Current_Directory>
/home/itssahil/PROJECTS/Mol_Feturizer/New_Systems/rnas/4QLM

>  <Rbt.Executable>
rbdock ($Id: //depot/dev/client3/rdock/2013.1/src/exe/rbdock.cxx#4 $)

>  <Rbt.Library>
libRbt.so (2013.1, Build901 2013/11/27)

>  <Rbt.Parameter_File>
/export/apps/rDock/src/rDock_2013.1_src/data/scripts/dock_solv.prm

>  <Rbt.Receptor>
prm/pocket_docking_7.prm

>  <SCORE>
-15.9879

>  <SCORE.INTER>
-15.4114

>  <SCORE.INTER.CONST>
1

>  <SCORE.INTER.POLAR>
0

>  <SCORE.INTER.ROT>
2

>  <SCORE.INTER.SOLV>
22.2131

>  <SCORE.INTER.VDW>
-22.612

>  <SCORE.INTER.norm>
-0.35026

>  <SCORE.INTRA>
-0.576464

>  <SCORE.INTRA.DIHEDRAL>
0.176206

>  <SCORE.INTRA.DIHEDRAL.0>
2.32994

>  <SCORE.INTRA.POLAR>
0

>  <SCORE.INTRA.POLAR.0>
0

>  <SCORE.INTRA.REPUL>
0

>  <SCORE.INTRA.REPUL.0>
0

>  <SCORE.INTRA.SOLV>
0.450095

>  <SCORE.INTRA.SOLV.lig_0>
-117.703

>  <SCORE.INTRA.VDW>
-0.889615

>  <SCORE.INTRA.VDW.0>
-1.59997

>  <SCORE.INTRA.norm>
-0.0131015

>  <SCORE.RESTR>
0

>  <SCORE.RESTR.CAVITY>
0

>  <SCORE.RESTR.norm>
0

>  <SCORE.SYSTEM>
0

>  <SCORE.SYSTEM.CONST>
0

>  <SCORE.SYSTEM.DIHEDRAL>
0

>  <SCORE.SYSTEM.SOLV>
0

>  <SCORE.SYSTEM.norm>
0

>  <SCORE.heavy>
44

>  <SCORE.norm>
-0.363361

>  <RMSD>
7.539

$$$$
ligand
 OpenBabel11021811513D
libRbt.so/2013.1/901 2013/11/27
 44 50  0  0  0  0  0  0  0  0999 V2000
  -12.1496   32.5150  -13.8190 P   0  0  2  0  0  0  0  0  0  0  0  0
   -8.5507   34.3352  -17.4162 P   0  0  1  0  0  0  0  0  0  0  0  0
  -13.5237   31.9307  -14.1368 O   0  5  0  0  0  0  0  0  0  0  0  0
   -8.0170   35.6138  -16.8176 O   0  5  0  0  0  0  0  0  0  0  0  0
  -12.2460   33.0761  -12.4206 O   0  0  0  0  0  0  0  0  0  0  0  0
   -7.6206   33.9522  -18.5898 O   0  0  0  0  0  0  0  0  0  0  0  0
  -12.5322   33.3469  -16.1860 C   0  0  0  0  0  0  0  0  0  0  0  0
   -9.2792   32.0288  -16.5117 C   0  0  0  0  0  0  0  0  0  0  0  0
  -11.9047   33.5960  -14.9208 O   0  0  0  0  0  0  0  0  0  0  0  0
   -8.6696   33.2986  -16.1449 O   0  0  0  0  0  0  0  0  0  0  0  0
  -12.2513   34.4971  -17.1471 C   0  0  1  0  0  0  0  0  0  0  0  0
   -9.1910   31.1127  -15.2332 C   0  0  1  0  0  0  0  0  0  0  0  0
  -13.1281   35.4280  -16.9307 O   0  0  0  0  0  0  0  0  0  0  0  0
   -7.9743   31.1624  -14.8710 O   0  0  0  0  0  0  0  0  0  0  0  0
  -10.8922   35.1261  -16.9431 C   0  0  1  0  0  0  0  0  0  0  0  0
   -9.9234   31.7584  -14.0401 C   0  0  1  0  0  0  0  0  0  0  0  0
  -10.0770   34.6095  -17.9006 O   0  0  0  0  0  0  0  0  0  0  0  0
  -11.1286   31.2073  -13.8510 O   0  0  0  0  0  0  0  0  0  0  0  0
  -11.1480   36.6504  -17.2100 C   0  0  1  0  0  0  0  0  0  0  0  0
   -9.0204   31.5666  -12.8004 C   0  0  1  0  0  0  0  0  0  0  0  0
  -10.6789   37.0162  -18.5736 O   0  0  0  0  0  0  0  0  0  0  0  0
   -9.5354   30.4504  -11.9437 O   0  0  0  0  0  0  0  0  0  0  0  0
  -12.4231   36.8390  -17.0905 C   0  0  2  0  0  0  0  0  0  0  0  0
   -7.8658   31.2481  -13.2764 C   0  0  2  0  0  0  0  0  0  0  0  0
  -11.8077   38.5031  -12.0236 N   0  0  0  0  0  0  0  0  0  0  0  0
  -11.1014   37.5037  -12.6232 C   0  0  0  0  0  0  0  0  0  0  0  0
  -11.3345   37.1538  -13.9289 N   0  0  0  0  0  0  0  0  0  0  0  0
  -12.2966   37.8230  -14.6336 C   0  0  0  0  0  0  0  0  0  0  0  0
  -13.0045   38.8033  -14.0553 C   0  0  0  0  0  0  0  0  0  0  0  0
  -12.7548   39.1590  -12.7310 C   0  0  0  0  0  0  0  0  0  0  0  0
  -13.4250   40.1666  -12.0096 N   0  0  0  0  0  0  0  0  0  0  0  0
  -13.8695   39.2854  -14.9727 N   0  0  0  0  0  0  0  0  0  0  0  0
  -13.6907   38.5823  -16.1272 C   0  0  0  0  0  0  0  0  0  0  0  0
  -12.7101   37.6924  -15.9258 N   0  0  0  0  0  0  0  0  0  0  0  0
   -3.8128   34.1288  -14.8238 N   0  0  0  0  0  0  0  0  0  0  0  0
   -4.5388   33.2691  -15.5855 C   0  0  0  0  0  0  0  0  0  0  0  0
   -5.5746   32.5784  -15.0222 N   0  0  0  0  0  0  0  0  0  0  0  0
   -5.8813   32.7540  -13.7086 C   0  0  0  0  0  0  0  0  0  0  0  0
   -5.1681   33.6088  -12.9479 C   0  0  0  0  0  0  0  0  0  0  0  0
   -4.1122   34.3053  -13.5287 C   0  0  0  0  0  0  0  0  0  0  0  0
   -3.2138   35.2445  -12.9074 N   0  0  0  0  0  0  0  0  0  0  0  0
   -5.6929   33.5747  -11.6995 N   0  0  0  0  0  0  0  0  0  0  0  0
   -6.7371   32.6974  -11.6988 C   0  0  0  0  0  0  0  0  0  0  0  0
   -6.8473   32.1976  -12.9462 N   0  0  0  0  0  0  0  0  0  0  0  0
  1  3  1  6  0  0  0
  1  5  2  0  0  0  0
  1  9  1  0  0  0  0
  1 18  1  0  0  0  0
  2  4  1  1  0  0  0
  2  6  2  0  0  0  0
  2 10  1  0  0  0  0
  2 17  1  0  0  0  0
  7  9  1  0  0  0  0
  8 10  1  0  0  0  0
 11  7  1  1  0  0  0
 11 13  1  0  0  0  0
 11 15  1  0  0  0  0
 12  8  1  6  0  0  0
 12 14  1  0  0  0  0
 12 16  1  0  0  0  0
 13 23  1  0  0  0  0
 14 24  1  0  0  0  0
 15 17  1  6  0  0  0
 15 19  1  0  0  0  0
 16 18  1  1  0  0  0
 16 20  1  0  0  0  0
 19 21  1  6  0  0  0
 19 23  1  0  0  0  0
 20 22  1  1  0  0  0
 20 24  1  0  0  0  0
 23 34  1  1  0  0  0
 24 44  1  6  0  0  0
 25 26  2  0  0  0  0
 25 30  1  0  0  0  0
 26 27  1  0  0  0  0
 27 28  2  0  0  0  0
 28 29  1  0  0  0  0
 28 34  1  0  0  0  0
 29 30  2  0  0  0  0
 29 32  1  0  0  0  0
 30 31  1  0  0  0  0
 32 33  2  0  0  0  0
 33 34  1  0  0  0  0
 35 36  2  0  0  0  0
 35 40  1  0  0  0  0
 36 37  1  0  0  0  0
 37 38  2  0  0  0  0
 38 39  1  0  0  0  0
 38 44  1  0  0  0  0
 39 40  2  0  0  0  0
 39 42  1  0  0  0  0
 40 41  1  0  0  0  0
 42 43  2  0  0  0  0
 43 44  1  0  0  0  0
M  CHG  2   3  -1   4  -1
M  END
>  <CHROM.1>
77.37798174,-14.65681841,-9.78613841,34.44732154,-14.84141508,2.50139114
0.03066166,-0.25565557

>  <Name>
ligand

>  <RI>
0

>  <Rbt.Current_Directory>
/home/itssahil/PROJECTS/Mol_Feturizer/New_Systems/rnas/4QLM

>  <Rbt.Executable>
rbdock ($Id: //depot/dev/client3/rdock/2013.1/src/exe/rbdock.cxx#4 $)

>  <Rbt.Library>
libRbt.so (2013.1, Build901 2013/11/27)

>  <Rbt.Parameter_File>
/export/apps/rDock/src/rDock_2013.1_src/data/scripts/dock_solv.prm

>  <Rbt.Receptor>
prm/pocket_docking_8.prm

>  <SCORE>
-13.3608

>  <SCORE.INTER>
-12.8166

>  <SCORE.INTER.CONST>
1

>  <SCORE.INTER.POLAR>
0

>  <SCORE.INTER.ROT>
2

>  <SCORE.INTER.SOLV>
21.9923

>  <SCORE.INTER.VDW>
-20.8085

>  <SCORE.INTER.norm>
-0.291287

>  <SCORE.INTRA>
-0.544178

>  <SCORE.INTRA.DIHEDRAL>
-0.0102279

>  <SCORE.INTRA.DIHEDRAL.0>
2.32994

>  <SCORE.INTRA.POLAR>
0

>  <SCORE.INTRA.POLAR.0>
0

>  <SCORE.INTRA.REPUL>
0

>  <SCORE.INTRA.REPUL.0>
0

>  <SCORE.INTRA.SOLV>
0.0754632

>  <SCORE.INTRA.SOLV.lig_0>
-117.703

>  <SCORE.INTRA.VDW>
-0.576796

>  <SCORE.INTRA.VDW.0>
-1.59997

>  <SCORE.INTRA.norm>
-0.0123677

>  <SCORE.RESTR>
0

>  <SCORE.RESTR.CAVITY>
0

>  <SCORE.RESTR.norm>
0

>  <SCORE.SYSTEM>
0

>  <SCORE.SYSTEM.CONST>
0

>  <SCORE.SYSTEM.DIHEDRAL>
0

>  <SCORE.SYSTEM.SOLV>
0

>  <SCORE.SYSTEM.norm>
0

>  <SCORE.heavy>
44

>  <SCORE.norm>
-0.303654

>  <RMSD>
7.557

$$$$
ligand
 OpenBabel11021811513D
libRbt.so/2013.1/901 2013/11/27
 44 50  0  0  0  0  0  0  0  0999 V2000
   -3.3490   36.0892  -16.6409 P   0  0  2  0  0  0  0  0  0  0  0  0
   -6.6258   33.5302  -13.1885 P   0  0  1  0  0  0  0  0  0  0  0  0
   -1.9630   35.6235  -17.0798 O   0  5  0  0  0  0  0  0  0  0  0  0
   -7.1858   34.6191  -12.3062 O   0  5  0  0  0  0  0  0  0  0  0  0
   -3.3547   37.5912  -16.7948 O   0  0  0  0  0  0  0  0  0  0  0  0
   -7.4661   32.2571  -12.9393 O   0  0  0  0  0  0  0  0  0  0  0  0
   -2.7688   34.4085  -14.8299 C   0  0  0  0  0  0  0  0  0  0  0  0
   -6.0052   33.3041  -15.6849 C   0  0  0  0  0  0  0  0  0  0  0  0
   -3.4902   35.6024  -15.1625 O   0  0  0  0  0  0  0  0  0  0  0  0
   -6.6228   34.1795  -14.6995 O   0  0  0  0  0  0  0  0  0  0  0  0
   -2.9559   34.0758  -13.3535 C   0  0  1  0  0  0  0  0  0  0  0  0
   -6.2075   34.0026  -17.0822 C   0  0  1  0  0  0  0  0  0  0  0  0
   -2.0851   34.7545  -12.6726 O   0  0  0  0  0  0  0  0  0  0  0  0
   -7.4481   34.2692  -17.1451 O   0  0  0  0  0  0  0  0  0  0  0  0
   -4.3173   34.4626  -12.8231 C   0  0  1  0  0  0  0  0  0  0  0  0
   -5.5618   35.4026  -17.0980 C   0  0  1  0  0  0  0  0  0  0  0  0
   -5.0621   33.3256  -12.7977 O   0  0  0  0  0  0  0  0  0  0  0  0
   -4.3836   35.3895  -17.7333 O   0  0  0  0  0  0  0  0  0  0  0  0
   -4.0186   34.9508  -11.3627 C   0  0  1  0  0  0  0  0  0  0  0  0
   -6.5625   36.3519  -17.7955 C   0  0  1  0  0  0  0  0  0  0  0  0
   -4.3734   33.8864  -10.3856 O   0  0  0  0  0  0  0  0  0  0  0  0
   -6.1332   36.6228  -19.2053 O   0  0  0  0  0  0  0  0  0  0  0  0
   -2.7542   35.2241  -11.3143 C   0  0  2  0  0  0  0  0  0  0  0  0
   -7.6806   35.7108  -17.8003 C   0  0  2  0  0  0  0  0  0  0  0  0
   -4.0913   40.1197   -9.5632 N   0  0  0  0  0  0  0  0  0  0  0  0
   -4.8247   38.9848   -9.3866 C   0  0  0  0  0  0  0  0  0  0  0  0
   -4.3932   37.7773   -9.8737 N   0  0  0  0  0  0  0  0  0  0  0  0
   -3.2058   37.7206  -10.5498 C   0  0  0  0  0  0  0  0  0  0  0  0
   -2.4770   38.8295  -10.7378 C   0  0  0  0  0  0  0  0  0  0  0  0
   -2.9181   40.0509  -10.2313 C   0  0  0  0  0  0  0  0  0  0  0  0
   -2.2492   41.2842  -10.3593 N   0  0  0  0  0  0  0  0  0  0  0  0
   -1.3666   38.4836  -11.4231 N   0  0  0  0  0  0  0  0  0  0  0  0
   -1.4232   37.1426  -11.6631 C   0  0  0  0  0  0  0  0  0  0  0  0
   -2.5472   36.6673  -11.1108 N   0  0  0  0  0  0  0  0  0  0  0  0
   -9.1736   38.0456  -13.3912 N   0  0  0  0  0  0  0  0  0  0  0  0
   -7.9597   37.4919  -13.6488 C   0  0  0  0  0  0  0  0  0  0  0  0
   -7.7285   36.9074  -14.8621 N   0  0  0  0  0  0  0  0  0  0  0  0
   -8.7050   36.8845  -15.8089 C   0  0  0  0  0  0  0  0  0  0  0  0
   -9.9105   37.4359  -15.5619 C   0  0  0  0  0  0  0  0  0  0  0  0
  -10.1387   38.0257  -14.3220 C   0  0  0  0  0  0  0  0  0  0  0  0
  -11.3434   38.6512  -13.8397 N   0  0  0  0  0  0  0  0  0  0  0  0
  -10.6698   37.2626  -16.6702 N   0  0  0  0  0  0  0  0  0  0  0  0
   -9.9218   36.6059  -17.6024 C   0  0  0  0  0  0  0  0  0  0  0  0
   -8.7077   36.3794  -17.0613 N   0  0  0  0  0  0  0  0  0  0  0  0
  1  3  1  6  0  0  0
  1  5  2  0  0  0  0
  1  9  1  0  0  0  0
  1 18  1  0  0  0  0
  2  4  1  1  0  0  0
  2  6  2  0  0  0  0
  2 10  1  0  0  0  0
  2 17  1  0  0  0  0
  7  9  1  0  0  0  0
  8 10  1  0  0  0  0
 11  7  1  6  0  0  0
 11 13  1  0  0  0  0
 11 15  1  0  0  0  0
 12  8  1  1  0  0  0
 12 14  1  0  0  0  0
 12 16  1  0  0  0  0
 13 23  1  0  0  0  0
 14 24  1  0  0  0  0
 15 17  1  1  0  0  0
 15 19  1  0  0  0  0
 16 18  1  6  0  0  0
 16 20  1  0  0  0  0
 19 21  1  1  0  0  0
 19 23  1  0  0  0  0
 20 22  1  6  0  0  0
 20 24  1  0  0  0  0
 23 34  1  6  0  0  0
 24 44  1  1  0  0  0
 25 26  2  0  0  0  0
 25 30  1  0  0  0  0
 26 27  1  0  0  0  0
 27 28  2  0  0  0  0
 28 29  1  0  0  0  0
 28 34  1  0  0  0  0
 29 30  2  0  0  0  0
 29 32  1  0  0  0  0
 30 31  1  0  0  0  0
 32 33  2  0  0  0  0
 33 34  1  0  0  0  0
 35 36  2  0  0  0  0
 35 40  1  0  0  0  0
 36 37  1  0  0  0  0
 37 38  2  0  0  0  0
 38 39  1  0  0  0  0
 38 44  1  0  0  0  0
 39 40  2  0  0  0  0
 39 42  1  0  0  0  0
 40 41  1  0  0  0  0
 42 43  2  0  0  0  0
 43 44  1  0  0  0  0
M  CHG  2   3  -1   4  -1
M  END
>  <CHROM.1>
147.29971686,69.88279344,-5.44201128,36.11571324,-14.09455175,-2.32802547
-0.30350938,1.02144962

>  <Name>
ligand

>  <RI>
0

>  <Rbt.Current_Directory>
/home/itssahil/PROJECTS/Mol_Feturizer/New_Systems/rnas/4QLM

>  <Rbt.Executable>
rbdock ($Id: //depot/dev/client3/rdock/2013.1/src/exe/rbdock.cxx#4 $)

>  <Rbt.Library>
libRbt.so (2013.1, Build901 2013/11/27)

>  <Rbt.Parameter_File>
/export/apps/rDock/src/rDock_2013.1_src/data/scripts/dock_solv.prm

>  <Rbt.Receptor>
prm/pocket_docking_8.prm

>  <SCORE>
-9.43198

>  <SCORE.INTER>
-8.77637

>  <SCORE.INTER.CONST>
1

>  <SCORE.INTER.POLAR>
0

>  <SCORE.INTER.ROT>
2

>  <SCORE.INTER.SOLV>
15.3899

>  <SCORE.INTER.VDW>
-15.9142

>  <SCORE.INTER.norm>
-0.199463

>  <SCORE.INTRA>
-0.655602

>  <SCORE.INTRA.DIHEDRAL>
0.179846

>  <SCORE.INTRA.DIHEDRAL.0>
2.32994

>  <SCORE.INTRA.POLAR>
0

>  <SCORE.INTRA.POLAR.0>
0

>  <SCORE.INTRA.REPUL>
0

>  <SCORE.INTRA.REPUL.0>
0

>  <SCORE.INTRA.SOLV>
0.537056

>  <SCORE.INTRA.SOLV.lig_0>
-117.703

>  <SCORE.INTRA.VDW>
-1.01405

>  <SCORE.INTRA.VDW.0>
-1.59997

>  <SCORE.INTRA.norm>
-0.0149

>  <SCORE.RESTR>
0

>  <SCORE.RESTR.CAVITY>
0

>  <SCORE.RESTR.norm>
0

>  <SCORE.SYSTEM>
0

>  <SCORE.SYSTEM.CONST>
0

>  <SCORE.SYSTEM.DIHEDRAL>
0

>  <SCORE.SYSTEM.SOLV>
0

>  <SCORE.SYSTEM.norm>
0

>  <SCORE.heavy>
44

>  <SCORE.norm>
-0.214363

>  <RMSD>
7.564

$$$$
ligand
 OpenBabel11021811513D
libRbt.so/2013.1/901 2013/11/27
 44 50  0  0  0  0  0  0  0  0999 V2000
   -4.0052   38.1548  -15.6669 P   0  0  2  0  0  0  0  0  0  0  0  0
   -4.7968   33.1720  -13.7303 P   0  0  1  0  0  0  0  0  0  0  0  0
   -2.6652   38.8791  -15.7678 O   0  5  0  0  0  0  0  0  0  0  0  0
   -6.0377   33.2800  -12.8780 O   0  5  0  0  0  0  0  0  0  0  0  0
   -5.0583   39.2327  -15.5733 O   0  0  0  0  0  0  0  0  0  0  0  0
   -4.5072   31.6675  -13.9346 O   0  0  0  0  0  0  0  0  0  0  0  0
   -2.5689   36.8148  -14.0599 C   0  0  0  0  0  0  0  0  0  0  0  0
   -3.9816   34.1997  -15.9547 C   0  0  0  0  0  0  0  0  0  0  0  0
   -3.8901   37.2672  -14.3857 O   0  0  0  0  0  0  0  0  0  0  0  0
   -5.1208   34.0909  -15.0553 O   0  0  0  0  0  0  0  0  0  0  0  0
   -2.5949   36.0039  -12.7686 C   0  0  1  0  0  0  0  0  0  0  0  0
   -4.4946   34.9826  -17.2218 C   0  0  1  0  0  0  0  0  0  0  0  0
   -2.5243   36.8299  -11.7711 O   0  0  0  0  0  0  0  0  0  0  0  0
   -5.5475   34.3726  -17.5868 O   0  0  0  0  0  0  0  0  0  0  0  0
   -3.8699   35.2130  -12.5869 C   0  0  1  0  0  0  0  0  0  0  0  0
   -5.0308   36.3742  -16.8309 C   0  0  1  0  0  0  0  0  0  0  0  0
   -3.5900   33.9344  -12.9544 O   0  0  0  0  0  0  0  0  0  0  0  0
   -4.1394   37.3349  -17.1034 O   0  0  0  0  0  0  0  0  0  0  0  0
   -4.1345   35.2904  -11.0429 C   0  0  1  0  0  0  0  0  0  0  0  0
   -6.3427   36.5888  -17.6196 C   0  0  1  0  0  0  0  0  0  0  0  0
   -3.7164   34.0214  -10.3885 O   0  0  0  0  0  0  0  0  0  0  0  0
   -6.1091   37.4952  -18.7897 O   0  0  0  0  0  0  0  0  0  0  0  0
   -3.4455   36.2921  -10.5982 C   0  0  2  0  0  0  0  0  0  0  0  0
   -6.6727   35.4163  -18.0408 C   0  0  2  0  0  0  0  0  0  0  0  0
   -6.3202   40.8009  -11.0751 N   0  0  0  0  0  0  0  0  0  0  0  0
   -5.6036   40.2064  -12.0702 C   0  0  0  0  0  0  0  0  0  0  0  0
   -4.9007   39.0501  -11.8457 N   0  0  0  0  0  0  0  0  0  0  0  0
   -4.9226   38.4918  -10.5975 C   0  0  0  0  0  0  0  0  0  0  0  0
   -5.6170   39.0689   -9.6069 C   0  0  0  0  0  0  0  0  0  0  0  0
   -6.3362   40.2386   -9.8459 C   0  0  0  0  0  0  0  0  0  0  0  0
   -7.1031   40.9413   -8.8955 N   0  0  0  0  0  0  0  0  0  0  0  0
   -5.4671   38.3105   -8.5003 N   0  0  0  0  0  0  0  0  0  0  0  0
   -4.6619   37.2575   -8.8200 C   0  0  0  0  0  0  0  0  0  0  0  0
   -4.3393   37.3578  -10.1161 N   0  0  0  0  0  0  0  0  0  0  0  0
  -11.6217   36.5216  -16.8550 N   0  0  0  0  0  0  0  0  0  0  0  0
  -10.7000   37.3724  -17.3775 C   0  0  0  0  0  0  0  0  0  0  0  0
   -9.4330   36.9248  -17.6260 N   0  0  0  0  0  0  0  0  0  0  0  0
   -9.0972   35.6342  -17.3575 C   0  0  0  0  0  0  0  0  0  0  0  0
  -10.0079   34.7831  -16.8433 C   0  0  0  0  0  0  0  0  0  0  0  0
  -11.2950   35.2484  -16.5896 C   0  0  0  0  0  0  0  0  0  0  0  0
  -12.4102   34.5279  -16.0308 N   0  0  0  0  0  0  0  0  0  0  0  0
   -9.3964   33.5854  -16.6806 N   0  0  0  0  0  0  0  0  0  0  0  0
   -8.1052   33.7039  -17.1033 C   0  0  0  0  0  0  0  0  0  0  0  0
   -7.9311   34.9735  -17.5227 N   0  0  0  0  0  0  0  0  0  0  0  0
  1  3  1  6  0  0  0
  1  5  2  0  0  0  0
  1  9  1  0  0  0  0
  1 18  1  0  0  0  0
  2  4  1  1  0  0  0
  2  6  2  0  0  0  0
  2 10  1  0  0  0  0
  2 17  1  0  0  0  0
  7  9  1  0  0  0  0
  8 10  1  0  0  0  0
 11  7  1  6  0  0  0
 11 13  1  0  0  0  0
 11 15  1  0  0  0  0
 12  8  1  1  0  0  0
 12 14  1  0  0  0  0
 12 16  1  0  0  0  0
 13 23  1  0  0  0  0
 14 24  1  0  0  0  0
 15 17  1  1  0  0  0
 15 19  1  0  0  0  0
 16 18  1  6  0  0  0
 16 20  1  0  0  0  0
 19 21  1  1  0  0  0
 19 23  1  0  0  0  0
 20 22  1  6  0  0  0
 20 24  1  0  0  0  0
 23 34  1  6  0  0  0
 24 44  1  1  0  0  0
 25 26  2  0  0  0  0
 25 30  1  0  0  0  0
 26 27  1  0  0  0  0
 27 28  2  0  0  0  0
 28 29  1  0  0  0  0
 28 34  1  0  0  0  0
 29 30  2  0  0  0  0
 29 32  1  0  0  0  0
 30 31  1  0  0  0  0
 32 33  2  0  0  0  0
 33 34  1  0  0  0  0
 35 36  2  0  0  0  0
 35 40  1  0  0  0  0
 36 37  1  0  0  0  0
 37 38  2  0  0  0  0
 38 39  1  0  0  0  0
 38 44  1  0  0  0  0
 39 40  2  0  0  0  0
 39 42  1  0  0  0  0
 40 41  1  0  0  0  0
 42 43  2  0  0  0  0
 43 44  1  0  0  0  0
M  CHG  2   3  -1   4  -1
M  END
>  <CHROM.1>
26.95370996,162.60186132,-5.73974494,36.32502959,-14.23270292,-0.94519230
0.55621086,-2.30505709

>  <Name>
ligand

>  <RI>
0

>  <Rbt.Current_Directory>
/home/itssahil/PROJECTS/Mol_Feturizer/New_Systems/rnas/4QLM

>  <Rbt.Executable>
rbdock ($Id: //depot/dev/client3/rdock/2013.1/src/exe/rbdock.cxx#4 $)

>  <Rbt.Library>
libRbt.so (2013.1, Build901 2013/11/27)

>  <Rbt.Parameter_File>
/export/apps/rDock/src/rDock_2013.1_src/data/scripts/dock_solv.prm

>  <Rbt.Receptor>
prm/pocket_docking_7.prm

>  <SCORE>
-9.17119

>  <SCORE.INTER>
-8.7963

>  <SCORE.INTER.CONST>
1

>  <SCORE.INTER.POLAR>
0

>  <SCORE.INTER.ROT>
2

>  <SCORE.INTER.SOLV>
22.0683

>  <SCORE.INTER.VDW>
-18.1536

>  <SCORE.INTER.norm>
-0.199916

>  <SCORE.INTRA>
-0.378014

>  <SCORE.INTRA.DIHEDRAL>
0.165791

>  <SCORE.INTRA.DIHEDRAL.0>
2.32994

>  <SCORE.INTRA.POLAR>
0

>  <SCORE.INTRA.POLAR.0>
0

>  <SCORE.INTRA.REPUL>
0

>  <SCORE.INTRA.REPUL.0>
0

>  <SCORE.INTRA.SOLV>
0.39711

>  <SCORE.INTRA.SOLV.lig_0>
-117.703

>  <SCORE.INTRA.VDW>
-0.659464

>  <SCORE.INTRA.VDW.0>
-1.59997

>  <SCORE.INTRA.norm>
-0.00859122

>  <SCORE.RESTR>
0.00312292

>  <SCORE.RESTR.CAVITY>
0.00312292

>  <SCORE.RESTR.norm>
7.09755e-05

>  <SCORE.SYSTEM>
0

>  <SCORE.SYSTEM.CONST>
0

>  <SCORE.SYSTEM.DIHEDRAL>
0

>  <SCORE.SYSTEM.SOLV>
0

>  <SCORE.SYSTEM.norm>
0

>  <SCORE.heavy>
44

>  <SCORE.norm>
-0.208436

>  <RMSD>
7.608

$$$$
ligand
 OpenBabel11021811513D
libRbt.so/2013.1/901 2013/11/27
 44 50  0  0  0  0  0  0  0  0999 V2000
   -3.7120   38.5127  -15.1403 P   0  0  2  0  0  0  0  0  0  0  0  0
   -4.6903   33.4026  -13.6788 P   0  0  1  0  0  0  0  0  0  0  0  0
   -2.3897   39.2581  -14.9777 O   0  5  0  0  0  0  0  0  0  0  0  0
   -6.0536   33.4387  -13.0321 O   0  5  0  0  0  0  0  0  0  0  0  0
   -4.7905   39.5692  -15.1487 O   0  0  0  0  0  0  0  0  0  0  0  0
   -4.3381   31.9187  -13.9295 O   0  0  0  0  0  0  0  0  0  0  0  0
   -2.5211   37.0858  -13.4120 C   0  0  0  0  0  0  0  0  0  0  0  0
   -3.5536   34.5861  -15.6726 C   0  0  0  0  0  0  0  0  0  0  0  0
   -3.7831   37.5431  -13.9166 O   0  0  0  0  0  0  0  0  0  0  0  0
   -4.8191   34.4039  -14.9771 O   0  0  0  0  0  0  0  0  0  0  0  0
   -2.7348   36.1904  -12.1962 C   0  0  1  0  0  0  0  0  0  0  0  0
   -3.8750   35.4455  -16.9531 C   0  0  1  0  0  0  0  0  0  0  0  0
   -2.8433   36.9488  -11.1496 O   0  0  0  0  0  0  0  0  0  0  0  0
   -4.8420   34.8486  -17.5210 O   0  0  0  0  0  0  0  0  0  0  0  0
   -4.0043   35.3738  -12.2730 C   0  0  1  0  0  0  0  0  0  0  0  0
   -4.4980   36.8015  -16.5655 C   0  0  1  0  0  0  0  0  0  0  0  0
   -3.6406   34.1260  -12.6716 O   0  0  0  0  0  0  0  0  0  0  0  0
   -3.5964   37.7889  -16.6290 O   0  0  0  0  0  0  0  0  0  0  0  0
   -4.5140   35.3449  -10.7899 C   0  0  1  0  0  0  0  0  0  0  0  0
   -5.6715   37.0525  -17.5398 C   0  0  1  0  0  0  0  0  0  0  0  0
   -4.1773   34.0402  -10.1593 O   0  0  0  0  0  0  0  0  0  0  0  0
   -5.2743   38.0376  -18.5967 O   0  0  0  0  0  0  0  0  0  0  0  0
   -3.9277   36.3229  -10.1771 C   0  0  2  0  0  0  0  0  0  0  0  0
   -5.9034   35.9068  -18.0826 C   0  0  2  0  0  0  0  0  0  0  0  0
   -8.8764   38.2392   -9.3649 N   0  0  0  0  0  0  0  0  0  0  0  0
   -8.5716   36.9843   -9.8004 C   0  0  0  0  0  0  0  0  0  0  0  0
   -7.2696   36.5899   -9.9754 N   0  0  0  0  0  0  0  0  0  0  0  0
   -6.2653   37.4789   -9.7083 C   0  0  0  0  0  0  0  0  0  0  0  0
   -6.5496   38.7189   -9.2863 C   0  0  0  0  0  0  0  0  0  0  0  0
   -7.8751   39.1085   -9.1020 C   0  0  0  0  0  0  0  0  0  0  0  0
   -8.3064   40.3765   -8.6648 N   0  0  0  0  0  0  0  0  0  0  0  0
   -5.3820   39.3699   -9.0988 N   0  0  0  0  0  0  0  0  0  0  0  0
   -4.3694   38.5146   -9.4188 C   0  0  0  0  0  0  0  0  0  0  0  0
   -4.9108   37.3433   -9.7780 N   0  0  0  0  0  0  0  0  0  0  0  0
  -10.3978   36.4654  -15.5118 N   0  0  0  0  0  0  0  0  0  0  0  0
   -9.3094   37.2752  -15.4346 C   0  0  0  0  0  0  0  0  0  0  0  0
   -8.1977   36.9839  -16.1740 N   0  0  0  0  0  0  0  0  0  0  0  0
   -8.1819   35.8932  -16.9867 C   0  0  0  0  0  0  0  0  0  0  0  0
   -9.2599   35.0876  -17.0718 C   0  0  0  0  0  0  0  0  0  0  0  0
  -10.3865   35.3896  -16.3123 C   0  0  0  0  0  0  0  0  0  0  0  0
  -11.6295   34.6659  -16.2332 N   0  0  0  0  0  0  0  0  0  0  0  0
   -8.9568   34.0961  -17.9436 N   0  0  0  0  0  0  0  0  0  0  0  0
   -7.6874   34.3002  -18.3984 C   0  0  0  0  0  0  0  0  0  0  0  0
   -7.2181   35.4153  -17.8032 N   0  0  0  0  0  0  0  0  0  0  0  0
  1  3  1  1  0  0  0
  1  5  2  0  0  0  0
  1  9  1  0  0  0  0
  1 18  1  0  0  0  0
  2  4  1  1  0  0  0
  2  6  2  0  0  0  0
  2 10  1  0  0  0  0
  2 17  1  0  0  0  0
  7  9  1  0  0  0  0
  8 10  1  0  0  0  0
 11  7  1  6  0  0  0
 11 13  1  0  0  0  0
 11 15  1  0  0  0  0
 12  8  1  1  0  0  0
 12 14  1  0  0  0  0
 12 16  1  0  0  0  0
 13 23  1  0  0  0  0
 14 24  1  0  0  0  0
 15 17  1  1  0  0  0
 15 19  1  0  0  0  0
 16 18  1  6  0  0  0
 16 20  1  0  0  0  0
 19 21  1  1  0  0  0
 19 23  1  0  0  0  0
 20 22  1  6  0  0  0
 20 24  1  0  0  0  0
 23 34  1  6  0  0  0
 24 44  1  1  0  0  0
 25 26  2  0  0  0  0
 25 30  1  0  0  0  0
 26 27  1  0  0  0  0
 27 28  2  0  0  0  0
 28 29  1  0  0  0  0
 28 34  1  0  0  0  0
 29 30  2  0  0  0  0
 29 32  1  0  0  0  0
 30 31  1  0  0  0  0
 32 33  2  0  0  0  0
 33 34  1  0  0  0  0
 35 36  2  0  0  0  0
 35 40  1  0  0  0  0
 36 37  1  0  0  0  0
 37 38  2  0  0  0  0
 38 39  1  0  0  0  0
 38 44  1  0  0  0  0
 39 40  2  0  0  0  0
 39 42  1  0  0  0  0
 40 41  1  0  0  0  0
 42 43  2  0  0  0  0
 43 44  1  0  0  0  0
M  CHG  2   3  -1   4  -1
M  END
>  <CHROM.1>
131.23561815,113.80583623,-5.70990583,36.36519907,-13.86883460,-1.74539538
-0.04420999,1.28869581

>  <Name>
ligand

>  <RI>
0

>  <Rbt.Current_Directory>
/home/itssahil/PROJECTS/Mol_Feturizer/New_Systems/rnas/4QLM

>  <Rbt.Executable>
rbdock ($Id: //depot/dev/client3/rdock/2013.1/src/exe/rbdock.cxx#4 $)

>  <Rbt.Library>
libRbt.so (2013.1, Build901 2013/11/27)

>  <Rbt.Parameter_File>
/export/apps/rDock/src/rDock_2013.1_src/data/scripts/dock_solv.prm

>  <Rbt.Receptor>
prm/pocket_docking_8.prm

>  <SCORE>
-13.589

>  <SCORE.INTER>
-14.0724

>  <SCORE.INTER.CONST>
1

>  <SCORE.INTER.POLAR>
0

>  <SCORE.INTER.ROT>
2

>  <SCORE.INTER.SOLV>
19.9616

>  <SCORE.INTER.VDW>
-20.9688

>  <SCORE.INTER.norm>
-0.319828

>  <SCORE.INTRA>
0.483425

>  <SCORE.INTRA.DIHEDRAL>
0.139061

>  <SCORE.INTRA.DIHEDRAL.0>
2.32994

>  <SCORE.INTRA.POLAR>
0

>  <SCORE.INTRA.POLAR.0>
0

>  <SCORE.INTRA.REPUL>
0

>  <SCORE.INTRA.REPUL.0>
0

>  <SCORE.INTRA.SOLV>
0.0347404

>  <SCORE.INTRA.SOLV.lig_0>
-117.703

>  <SCORE.INTRA.VDW>
0.396525

>  <SCORE.INTRA.VDW.0>
-1.59997

>  <SCORE.INTRA.norm>
0.0109869

>  <SCORE.RESTR>
0

>  <SCORE.RESTR.CAVITY>
0

>  <SCORE.RESTR.norm>
0

>  <SCORE.SYSTEM>
0

>  <SCORE.SYSTEM.CONST>
0

>  <SCORE.SYSTEM.DIHEDRAL>
0

>  <SCORE.SYSTEM.SOLV>
0

>  <SCORE.SYSTEM.norm>
0

>  <SCORE.heavy>
44

>  <SCORE.norm>
-0.308841

>  <RMSD>
7.612

$$$$
ligand
 OpenBabel11021811513D
libRbt.so/2013.1/901 2013/11/27
 44 50  0  0  0  0  0  0  0  0999 V2000
   -2.7204   38.2076  -15.2302 P   0  0  2  0  0  0  0  0  0  0  0  0
   -4.7274   33.3931  -13.8165 P   0  0  1  0  0  0  0  0  0  0  0  0
   -1.2813   38.6766  -15.0312 O   0  5  0  0  0  0  0  0  0  0  0  0
   -6.0726   33.6987  -13.2041 O   0  5  0  0  0  0  0  0  0  0  0  0
   -3.5679   39.4566  -15.2609 O   0  0  0  0  0  0  0  0  0  0  0  0
   -4.6695   31.8687  -14.0650 O   0  0  0  0  0  0  0  0  0  0  0  0
   -1.8798   36.5742  -13.4789 C   0  0  0  0  0  0  0  0  0  0  0  0
   -3.3285   34.3270  -15.7760 C   0  0  0  0  0  0  0  0  0  0  0  0
   -3.0131   37.2719  -14.0130 O   0  0  0  0  0  0  0  0  0  0  0  0
   -4.6224   34.3993  -15.1132 O   0  0  0  0  0  0  0  0  0  0  0  0
   -2.2973   35.7395  -12.2730 C   0  0  1  0  0  0  0  0  0  0  0  0
   -3.4408   35.2323  -17.0602 C   0  0  1  0  0  0  0  0  0  0  0  0
   -2.2802   36.5050  -11.2260 O   0  0  0  0  0  0  0  0  0  0  0  0
   -4.4921   34.8383  -17.6549 O   0  0  0  0  0  0  0  0  0  0  0  0
   -3.7010   35.1903  -12.3852 C   0  0  1  0  0  0  0  0  0  0  0  0
   -3.7929   36.6850  -16.6823 C   0  0  1  0  0  0  0  0  0  0  0  0
   -3.5813   33.8950  -12.7802 O   0  0  0  0  0  0  0  0  0  0  0  0
   -2.7124   37.4743  -16.7188 O   0  0  0  0  0  0  0  0  0  0  0  0
   -4.2439   35.2637  -10.9155 C   0  0  1  0  0  0  0  0  0  0  0  0
   -4.8683   37.1627  -17.6845 C   0  0  1  0  0  0  0  0  0  0  0  0
   -4.1882   33.9185  -10.2825 O   0  0  0  0  0  0  0  0  0  0  0  0
   -4.2573   38.0491  -18.7268 O   0  0  0  0  0  0  0  0  0  0  0  0
   -3.4914   36.1066  -10.2838 C   0  0  2  0  0  0  0  0  0  0  0  0
   -5.3085   36.0853  -18.2382 C   0  0  2  0  0  0  0  0  0  0  0  0
   -5.6855   40.9342  -11.1217 N   0  0  0  0  0  0  0  0  0  0  0  0
   -4.9892   40.2074  -12.0405 C   0  0  0  0  0  0  0  0  0  0  0  0
   -4.4675   38.9783  -11.7264 N   0  0  0  0  0  0  0  0  0  0  0  0
   -4.6517   38.4818  -10.4655 C   0  0  0  0  0  0  0  0  0  0  0  0
   -5.3280   39.1881   -9.5489 C   0  0  0  0  0  0  0  0  0  0  0  0
   -5.8630   40.4321   -9.8792 C   0  0  0  0  0  0  0  0  0  0  0  0
   -6.5911   41.2707   -9.0123 N   0  0  0  0  0  0  0  0  0  0  0  0
   -5.3599   38.4644   -8.4098 N   0  0  0  0  0  0  0  0  0  0  0  0
   -4.6854   37.3008   -8.6338 C   0  0  0  0  0  0  0  0  0  0  0  0
   -4.2631   37.3017   -9.9050 N   0  0  0  0  0  0  0  0  0  0  0  0
   -9.1280   32.7615  -17.0201 N   0  0  0  0  0  0  0  0  0  0  0  0
   -7.8089   32.4689  -17.1638 C   0  0  0  0  0  0  0  0  0  0  0  0
   -6.9298   33.4611  -17.4955 N   0  0  0  0  0  0  0  0  0  0  0  0
   -7.3709   34.7353  -17.6755 C   0  0  0  0  0  0  0  0  0  0  0  0
   -8.6777   35.0339  -17.5301 C   0  0  0  0  0  0  0  0  0  0  0  0
   -9.5668   34.0165  -17.1960 C   0  0  0  0  0  0  0  0  0  0  0  0
  -10.9927   34.1028  -17.0105 N   0  0  0  0  0  0  0  0  0  0  0  0
   -8.8193   36.3597  -17.7696 N   0  0  0  0  0  0  0  0  0  0  0  0
   -7.5902   36.8756  -18.0577 C   0  0  0  0  0  0  0  0  0  0  0  0
   -6.7011   35.8639  -17.9940 N   0  0  0  0  0  0  0  0  0  0  0  0
  1  3  1  1  0  0  0
  1  5  2  0  0  0  0
  1  9  1  0  0  0  0
  1 18  1  0  0  0  0
  2  4  1  1  0  0  0
  2  6  2  0  0  0  0
  2 10  1  0  0  0  0
  2 17  1  0  0  0  0
  7  9  1  0  0  0  0
  8 10  1  0  0  0  0
 11  7  1  6  0  0  0
 11 13  1  0  0  0  0
 11 15  1  0  0  0  0
 12  8  1  1  0  0  0
 12 14  1  0  0  0  0
 12 16  1  0  0  0  0
 13 23  1  0  0  0  0
 14 24  1  0  0  0  0
 15 17  1  1  0  0  0
 15 19  1  0  0  0  0
 16 18  1  6  0  0  0
 16 20  1  0  0  0  0
 19 21  1  1  0  0  0
 19 23  1  0  0  0  0
 20 22  1  6  0  0  0
 20 24  1  0  0  0  0
 23 34  1  6  0  0  0
 24 44  1  1  0  0  0
 25 26  2  0  0  0  0
 25 30  1  0  0  0  0
 26 27  1  0  0  0  0
 27 28  2  0  0  0  0
 28 29  1  0  0  0  0
 28 34  1  0  0  0  0
 29 30  2  0  0  0  0
 29 32  1  0  0  0  0
 30 31  1  0  0  0  0
 32 33  2  0  0  0  0
 33 34  1  0  0  0  0
 35 36  2  0  0  0  0
 35 40  1  0  0  0  0
 36 37  1  0  0  0  0
 37 38  2  0  0  0  0
 38 39  1  0  0  0  0
 38 44  1  0  0  0  0
 39 40  2  0  0  0  0
 39 42  1  0  0  0  0
 40 41  1  0  0  0  0
 42 43  2  0  0  0  0
 43 44  1  0  0  0  0
M  CHG  2   3  -1   4  -1
M  END
>  <CHROM.1>
35.91471246,-16.93211761,-4.93514133,36.26629209,-14.21021963,-0.89902343
-1.02644731,-1.46051325

>  <Name>
ligand

>  <RI>
0

>  <Rbt.Current_Directory>
/home/itssahil/PROJECTS/Mol_Feturizer/New_Systems/rnas/4QLM

>  <Rbt.Executable>
rbdock ($Id: //depot/dev/client3/rdock/2013.1/src/exe/rbdock.cxx#4 $)

>  <Rbt.Library>
libRbt.so (2013.1, Build901 2013/11/27)

>  <Rbt.Parameter_File>
/export/apps/rDock/src/rDock_2013.1_src/data/scripts/dock_solv.prm

>  <Rbt.Receptor>
prm/pocket_docking_8.prm

>  <SCORE>
-15.8412

>  <SCORE.INTER>
-15.2698

>  <SCORE.INTER.CONST>
1

>  <SCORE.INTER.POLAR>
0

>  <SCORE.INTER.ROT>
2

>  <SCORE.INTER.SOLV>
23.0087

>  <SCORE.INTER.VDW>
-22.7828

>  <SCORE.INTER.norm>
-0.347042

>  <SCORE.INTRA>
-0.571336

>  <SCORE.INTRA.DIHEDRAL>
0.175052

>  <SCORE.INTRA.DIHEDRAL.0>
2.32994

>  <SCORE.INTRA.POLAR>
0

>  <SCORE.INTRA.POLAR.0>
0

>  <SCORE.INTRA.REPUL>
0

>  <SCORE.INTRA.REPUL.0>
0

>  <SCORE.INTRA.SOLV>
0.45035

>  <SCORE.INTRA.SOLV.lig_0>
-117.703

>  <SCORE.INTRA.VDW>
-0.884037

>  <SCORE.INTRA.VDW.0>
-1.59997

>  <SCORE.INTRA.norm>
-0.0129849

>  <SCORE.RESTR>
0

>  <SCORE.RESTR.CAVITY>
0

>  <SCORE.RESTR.norm>
0

>  <SCORE.SYSTEM>
0

>  <SCORE.SYSTEM.CONST>
0

>  <SCORE.SYSTEM.DIHEDRAL>
0

>  <SCORE.SYSTEM.SOLV>
0

>  <SCORE.SYSTEM.norm>
0

>  <SCORE.heavy>
44

>  <SCORE.norm>
-0.360027

>  <RMSD>
7.622

$$$$
ligand
 OpenBabel11021811513D
libRbt.so/2013.1/901 2013/11/27
 44 50  0  0  0  0  0  0  0  0999 V2000
   -2.6705   38.2040  -15.2163 P   0  0  2  0  0  0  0  0  0  0  0  0
   -4.6990   33.4015  -13.7927 P   0  0  1  0  0  0  0  0  0  0  0  0
   -1.2304   38.6686  -15.0143 O   0  5  0  0  0  0  0  0  0  0  0  0
   -6.0451   33.7139  -13.1856 O   0  5  0  0  0  0  0  0  0  0  0  0
   -3.5135   39.4559  -15.2540 O   0  0  0  0  0  0  0  0  0  0  0  0
   -4.6457   31.8760  -14.0357 O   0  0  0  0  0  0  0  0  0  0  0  0
   -1.8413   36.5737  -13.4568 C   0  0  0  0  0  0  0  0  0  0  0  0
   -3.2906   34.3237  -15.7508 C   0  0  0  0  0  0  0  0  0  0  0  0
   -2.9704   37.2735  -13.9969 O   0  0  0  0  0  0  0  0  0  0  0  0
   -4.5864   34.4029  -15.0924 O   0  0  0  0  0  0  0  0  0  0  0  0
   -2.2656   35.7446  -12.2493 C   0  0  1  0  0  0  0  0  0  0  0  0
   -3.3956   35.2250  -17.0385 C   0  0  1  0  0  0  0  0  0  0  0  0
   -2.2491   36.5136  -11.2050 O   0  0  0  0  0  0  0  0  0  0  0  0
   -4.4463   34.8327  -17.6352 O   0  0  0  0  0  0  0  0  0  0  0  0
   -3.6708   35.2000  -12.3642 C   0  0  1  0  0  0  0  0  0  0  0  0
   -3.7437   36.6802  -16.6667 C   0  0  1  0  0  0  0  0  0  0  0  0
   -3.5544   33.9028  -12.7543 O   0  0  0  0  0  0  0  0  0  0  0  0
   -2.6603   37.4656  -16.7024 O   0  0  0  0  0  0  0  0  0  0  0  0
   -4.2181   35.2803  -10.8965 C   0  0  1  0  0  0  0  0  0  0  0  0
   -4.8142   37.1583  -17.6740 C   0  0  1  0  0  0  0  0  0  0  0  0
   -4.1692   33.9371  -10.2587 O   0  0  0  0  0  0  0  0  0  0  0  0
   -4.1967   38.0389  -18.7172 O   0  0  0  0  0  0  0  0  0  0  0  0
   -3.4648   36.1227  -10.2653 C   0  0  2  0  0  0  0  0  0  0  0  0
   -5.2564   36.0805  -18.2253 C   0  0  2  0  0  0  0  0  0  0  0  0
   -5.8631   40.8340  -11.1995 N   0  0  0  0  0  0  0  0  0  0  0  0
   -5.2315   40.0653  -12.1308 C   0  0  0  0  0  0  0  0  0  0  0  0
   -4.6486   38.8715  -11.7894 N   0  0  0  0  0  0  0  0  0  0  0  0
   -4.7045   38.4538  -10.4884 C   0  0  0  0  0  0  0  0  0  0  0  0
   -5.3159   39.2024   -9.5598 C   0  0  0  0  0  0  0  0  0  0  0  0
   -5.9140   40.4096   -9.9170 C   0  0  0  0  0  0  0  0  0  0  0  0
   -6.5852   41.2858   -9.0413 N   0  0  0  0  0  0  0  0  0  0  0  0
   -5.2246   38.5536   -8.3796 N   0  0  0  0  0  0  0  0  0  0  0  0
   -4.5397   37.3937   -8.5911 C   0  0  0  0  0  0  0  0  0  0  0  0
   -4.2334   37.3218   -9.8930 N   0  0  0  0  0  0  0  0  0  0  0  0
   -9.0939   32.7712  -17.0243 N   0  0  0  0  0  0  0  0  0  0  0  0
   -7.7758   32.4729  -17.1657 C   0  0  0  0  0  0  0  0  0  0  0  0
   -6.8914   33.4619  -17.4929 N   0  0  0  0  0  0  0  0  0  0  0  0
   -7.3262   34.7386  -17.6707 C   0  0  0  0  0  0  0  0  0  0  0  0
   -8.6320   35.0428  -17.5275 C   0  0  0  0  0  0  0  0  0  0  0  0
   -9.5265   34.0286  -17.1980 C   0  0  0  0  0  0  0  0  0  0  0  0
  -10.9524   34.1209  -17.0155 N   0  0  0  0  0  0  0  0  0  0  0  0
   -8.7670   36.3698  -17.7640 N   0  0  0  0  0  0  0  0  0  0  0  0
   -7.5349   36.8808  -18.0481 C   0  0  0  0  0  0  0  0  0  0  0  0
   -6.6506   35.8649  -17.9849 N   0  0  0  0  0  0  0  0  0  0  0  0
  1  3  1  1  0  0  0
  1  5  2  0  0  0  0
  1  9  1  0  0  0  0
  1 18  1  0  0  0  0
  2  4  1  1  0  0  0
  2  6  2  0  0  0  0
  2 10  1  0  0  0  0
  2 17  1  0  0  0  0
  7  9  1  0  0  0  0
  8 10  1  0  0  0  0
 11  7  1  6  0  0  0
 11 13  1  0  0  0  0
 11 15  1  0  0  0  0
 12  8  1  1  0  0  0
 12 14  1  0  0  0  0
 12 16  1  0  0  0  0
 13 23  1  0  0  0  0
 14 24  1  0  0  0  0
 15 17  1  1  0  0  0
 15 19  1  0  0  0  0
 16 18  1  6  0  0  0
 16 20  1  0  0  0  0
 19 21  1  1  0  0  0
 19 23  1  0  0  0  0
 20 22  1  6  0  0  0
 20 24  1  0  0  0  0
 23 34  1  6  0  0  0
 24 44  1  1  0  0  0
 25 26  2  0  0  0  0
 25 30  1  0  0  0  0
 26 27  1  0  0  0  0
 27 28  2  0  0  0  0
 28 29  1  0  0  0  0
 28 34  1  0  0  0  0
 29 30  2  0  0  0  0
 29 32  1  0  0  0  0
 30 31  1  0  0  0  0
 32 33  2  0  0  0  0
 33 34  1  0  0  0  0
 35 36  2  0  0  0  0
 35 40  1  0  0  0  0
 36 37  1  0  0  0  0
 37 38  2  0  0  0  0
 38 39  1  0  0  0  0
 38 44  1  0  0  0  0
 39 40  2  0  0  0  0
 39 42  1  0  0  0  0
 40 41  1  0  0  0  0
 42 43  2  0  0  0  0
 43 44  1  0  0  0  0
M  CHG  2   3  -1   4  -1
M  END
>  <CHROM.1>
42.53451503,-17.28090936,-4.91056588,36.26580376,-14.20350876,-0.92408020
-1.01342413,-1.48246457

>  <Name>
ligand

>  <RI>
0

>  <Rbt.Current_Directory>
/home/itssahil/PROJECTS/Mol_Feturizer/New_Systems/rnas/4QLM

>  <Rbt.Executable>
rbdock ($Id: //depot/dev/client3/rdock/2013.1/src/exe/rbdock.cxx#4 $)

>  <Rbt.Library>
libRbt.so (2013.1, Build901 2013/11/27)

>  <Rbt.Parameter_File>
/export/apps/rDock/src/rDock_2013.1_src/data/scripts/dock_solv.prm

>  <Rbt.Receptor>
prm/pocket_docking_7.prm

>  <SCORE>
-15.9252

>  <SCORE.INTER>
-15.3267

>  <SCORE.INTER.CONST>
1

>  <SCORE.INTER.POLAR>
0

>  <SCORE.INTER.ROT>
2

>  <SCORE.INTER.SOLV>
23.0553

>  <SCORE.INTER.VDW>
-22.8362

>  <SCORE.INTER.norm>
-0.348335

>  <SCORE.INTRA>
-0.598497

>  <SCORE.INTRA.DIHEDRAL>
0.155688

>  <SCORE.INTRA.DIHEDRAL.0>
2.32994

>  <SCORE.INTRA.POLAR>
0

>  <SCORE.INTRA.POLAR.0>
0

>  <SCORE.INTRA.REPUL>
0

>  <SCORE.INTRA.REPUL.0>
0

>  <SCORE.INTRA.SOLV>
0.426455

>  <SCORE.INTRA.SOLV.lig_0>
-117.703

>  <SCORE.INTRA.VDW>
-0.889569

>  <SCORE.INTRA.VDW.0>
-1.59997

>  <SCORE.INTRA.norm>
-0.0136022

>  <SCORE.RESTR>
0

>  <SCORE.RESTR.CAVITY>
0

>  <SCORE.RESTR.norm>
0

>  <SCORE.SYSTEM>
0

>  <SCORE.SYSTEM.CONST>
0

>  <SCORE.SYSTEM.DIHEDRAL>
0

>  <SCORE.SYSTEM.SOLV>
0

>  <SCORE.SYSTEM.norm>
0

>  <SCORE.heavy>
44

>  <SCORE.norm>
-0.361937

>  <RMSD>
7.632

$$$$
ligand
 OpenBabel11021811513D
libRbt.so/2013.1/901 2013/11/27
 44 50  0  0  0  0  0  0  0  0999 V2000
   -3.5608   38.4243  -15.1804 P   0  0  2  0  0  0  0  0  0  0  0  0
   -4.6758   33.3670  -13.6357 P   0  0  1  0  0  0  0  0  0  0  0  0
   -2.2220   39.1401  -15.0202 O   0  5  0  0  0  0  0  0  0  0  0  0
   -6.0429   33.4480  -13.0012 O   0  5  0  0  0  0  0  0  0  0  0  0
   -4.6130   39.5065  -15.2168 O   0  0  0  0  0  0  0  0  0  0  0  0
   -4.3580   31.8706  -13.8567 O   0  0  0  0  0  0  0  0  0  0  0  0
   -2.4191   37.0004  -13.4168 C   0  0  0  0  0  0  0  0  0  0  0  0
   -3.4945   34.4860  -15.6408 C   0  0  0  0  0  0  0  0  0  0  0  0
   -3.6654   37.4791  -13.9401 O   0  0  0  0  0  0  0  0  0  0  0  0
   -4.7697   34.3474  -14.9528 O   0  0  0  0  0  0  0  0  0  0  0  0
   -2.6643   36.1327  -12.1870 C   0  0  1  0  0  0  0  0  0  0  0  0
   -3.7845   35.3297  -16.9392 C   0  0  1  0  0  0  0  0  0  0  0  0
   -2.7625   36.9124  -11.1551 O   0  0  0  0  0  0  0  0  0  0  0  0
   -4.7614   34.7463  -17.5044 O   0  0  0  0  0  0  0  0  0  0  0  0
   -3.9529   35.3461  -12.2598 C   0  0  1  0  0  0  0  0  0  0  0  0
   -4.3772   36.7072  -16.5812 C   0  0  1  0  0  0  0  0  0  0  0  0
   -3.6166   34.0827  -12.6329 O   0  0  0  0  0  0  0  0  0  0  0  0
   -3.4512   37.6710  -16.6549 O   0  0  0  0  0  0  0  0  0  0  0  0
   -4.4748   35.3565  -10.7808 C   0  0  1  0  0  0  0  0  0  0  0  0
   -5.5364   36.9690  -17.5696 C   0  0  1  0  0  0  0  0  0  0  0  0
   -4.1753   34.0556  -10.1240 O   0  0  0  0  0  0  0  0  0  0  0  0
   -5.1068   37.9248  -18.6407 O   0  0  0  0  0  0  0  0  0  0  0  0
   -3.8696   36.3308  -10.1807 C   0  0  2  0  0  0  0  0  0  0  0  0
   -5.7920   35.8197  -18.0938 C   0  0  2  0  0  0  0  0  0  0  0  0
   -8.7662   38.3109   -9.2194 N   0  0  0  0  0  0  0  0  0  0  0  0
   -8.4833   37.0231   -9.5642 C   0  0  0  0  0  0  0  0  0  0  0  0
   -7.1931   36.6149   -9.7881 N   0  0  0  0  0  0  0  0  0  0  0  0
   -6.1785   37.5234   -9.6635 C   0  0  0  0  0  0  0  0  0  0  0  0
   -6.4417   38.7951   -9.3321 C   0  0  0  0  0  0  0  0  0  0  0  0
   -7.7547   39.1994   -9.0970 C   0  0  0  0  0  0  0  0  0  0  0  0
   -8.1639   40.5004   -8.7434 N   0  0  0  0  0  0  0  0  0  0  0  0
   -5.2680   39.4596   -9.2766 N   0  0  0  0  0  0  0  0  0  0  0  0
   -4.2735   38.5798   -9.5865 C   0  0  0  0  0  0  0  0  0  0  0  0
   -4.8306   37.3820   -9.8083 N   0  0  0  0  0  0  0  0  0  0  0  0
  -10.2642   36.4905  -15.5111 N   0  0  0  0  0  0  0  0  0  0  0  0
   -9.1518   37.2665  -15.4285 C   0  0  0  0  0  0  0  0  0  0  0  0
   -8.0504   36.9484  -16.1721 N   0  0  0  0  0  0  0  0  0  0  0  0
   -8.0685   35.8649  -16.9945 C   0  0  0  0  0  0  0  0  0  0  0  0
   -9.1703   35.0930  -17.0849 C   0  0  0  0  0  0  0  0  0  0  0  0
  -10.2863   35.4220  -16.3210 C   0  0  0  0  0  0  0  0  0  0  0  0
  -11.5505   34.7353  -16.2464 N   0  0  0  0  0  0  0  0  0  0  0  0
   -8.8983   34.1005  -17.9659 N   0  0  0  0  0  0  0  0  0  0  0  0
   -7.6240   34.2703  -18.4209 C   0  0  0  0  0  0  0  0  0  0  0  0
   -7.1206   35.3655  -17.8166 N   0  0  0  0  0  0  0  0  0  0  0  0
  1  3  1  1  0  0  0
  1  5  2  0  0  0  0
  1  9  1  0  0  0  0
  1 18  1  0  0  0  0
  2  4  1  1  0  0  0
  2  6  2  0  0  0  0
  2 10  1  0  0  0  0
  2 17  1  0  0  0  0
  7  9  1  0  0  0  0
  8 10  1  0  0  0  0
 11  7  1  6  0  0  0
 11 13  1  0  0  0  0
 11 15  1  0  0  0  0
 12  8  1  1  0  0  0
 12 14  1  0  0  0  0
 12 16  1  0  0  0  0
 13 23  1  0  0  0  0
 14 24  1  0  0  0  0
 15 17  1  1  0  0  0
 15 19  1  0  0  0  0
 16 18  1  6  0  0  0
 16 20  1  0  0  0  0
 19 21  1  1  0  0  0
 19 23  1  0  0  0  0
 20 22  1  6  0  0  0
 20 24  1  0  0  0  0
 23 34  1  6  0  0  0
 24 44  1  1  0  0  0
 25 26  2  0  0  0  0
 25 30  1  0  0  0  0
 26 27  1  0  0  0  0
 27 28  2  0  0  0  0
 28 29  1  0  0  0  0
 28 34  1  0  0  0  0
 29 30  2  0  0  0  0
 29 32  1  0  0  0  0
 30 31  1  0  0  0  0
 32 33  2  0  0  0  0
 33 34  1  0  0  0  0
 35 36  2  0  0  0  0
 35 40  1  0  0  0  0
 36 37  1  0  0  0  0
 37 38  2  0  0  0  0
 38 39  1  0  0  0  0
 38 44  1  0  0  0  0
 39 40  2  0  0  0  0
 39 42  1  0  0  0  0
 40 41  1  0  0  0  0
 42 43  2  0  0  0  0
 43 44  1  0  0  0  0
M  CHG  2   3  -1   4  -1
M  END
>  <CHROM.1>
137.13941667,112.13847280,-5.61845531,36.34115863,-13.86769043,-1.72841183
-0.04229461,1.27999622

>  <Name>
ligand

>  <RI>
0

>  <Rbt.Current_Directory>
/home/itssahil/PROJECTS/Mol_Feturizer/New_Systems/rnas/4QLM

>  <Rbt.Executable>
rbdock ($Id: //depot/dev/client3/rdock/2013.1/src/exe/rbdock.cxx#4 $)

>  <Rbt.Library>
libRbt.so (2013.1, Build901 2013/11/27)

>  <Rbt.Parameter_File>
/export/apps/rDock/src/rDock_2013.1_src/data/scripts/dock_solv.prm

>  <Rbt.Receptor>
prm/pocket_docking_8.prm

>  <SCORE>
-13.4799

>  <SCORE.INTER>
-14.0409

>  <SCORE.INTER.CONST>
1

>  <SCORE.INTER.POLAR>
0

>  <SCORE.INTER.ROT>
2

>  <SCORE.INTER.SOLV>
20.3893

>  <SCORE.INTER.VDW>
-21.0904

>  <SCORE.INTER.norm>
-0.319111

>  <SCORE.INTRA>
0.561024

>  <SCORE.INTRA.DIHEDRAL>
0.161684

>  <SCORE.INTRA.DIHEDRAL.0>
2.32994

>  <SCORE.INTRA.POLAR>
0

>  <SCORE.INTRA.POLAR.0>
0

>  <SCORE.INTRA.REPUL>
0

>  <SCORE.INTRA.REPUL.0>
0

>  <SCORE.INTRA.SOLV>
0.0355088

>  <SCORE.INTRA.SOLV.lig_0>
-117.703

>  <SCORE.INTRA.VDW>
0.462428

>  <SCORE.INTRA.VDW.0>
-1.59997

>  <SCORE.INTRA.norm>
0.0127506

>  <SCORE.RESTR>
0

>  <SCORE.RESTR.CAVITY>
0

>  <SCORE.RESTR.norm>
0

>  <SCORE.SYSTEM>
0

>  <SCORE.SYSTEM.CONST>
0

>  <SCORE.SYSTEM.DIHEDRAL>
0

>  <SCORE.SYSTEM.SOLV>
0

>  <SCORE.SYSTEM.norm>
0

>  <SCORE.heavy>
44

>  <SCORE.norm>
-0.30636

>  <RMSD>
7.637

$$$$
ligand
 OpenBabel11021811513D
libRbt.so/2013.1/901 2013/11/27
 44 50  0  0  0  0  0  0  0  0999 V2000
   -2.7025   38.2196  -15.2350 P   0  0  2  0  0  0  0  0  0  0  0  0
   -4.6868   33.4057  -13.7879 P   0  0  1  0  0  0  0  0  0  0  0  0
   -1.2670   38.6988  -15.0345 O   0  5  0  0  0  0  0  0  0  0  0  0
   -6.0361   33.7086  -13.1832 O   0  5  0  0  0  0  0  0  0  0  0  0
   -3.5572   39.4634  -15.2795 O   0  0  0  0  0  0  0  0  0  0  0  0
   -4.6191   31.8796  -14.0232 O   0  0  0  0  0  0  0  0  0  0  0  0
   -1.8591   36.6062  -13.4667 C   0  0  0  0  0  0  0  0  0  0  0  0
   -3.2859   34.3311  -15.7499 C   0  0  0  0  0  0  0  0  0  0  0  0
   -2.9944   37.2927  -14.0110 O   0  0  0  0  0  0  0  0  0  0  0  0
   -4.5828   34.4015  -15.0927 O   0  0  0  0  0  0  0  0  0  0  0  0
   -2.2764   35.7793  -12.2552 C   0  0  1  0  0  0  0  0  0  0  0  0
   -3.3985   35.2248  -17.0423 C   0  0  1  0  0  0  0  0  0  0  0  0
   -2.2677   36.5538  -11.2148 O   0  0  0  0  0  0  0  0  0  0  0  0
   -4.4452   34.8196  -17.6376 O   0  0  0  0  0  0  0  0  0  0  0  0
   -3.6764   35.2210  -12.3681 C   0  0  1  0  0  0  0  0  0  0  0  0
   -3.7605   36.6785  -16.6781 C   0  0  1  0  0  0  0  0  0  0  0  0
   -3.5476   33.9231  -12.7515 O   0  0  0  0  0  0  0  0  0  0  0  0
   -2.6845   37.4738  -16.7172 O   0  0  0  0  0  0  0  0  0  0  0  0
   -4.2253   35.3037  -10.9012 C   0  0  1  0  0  0  0  0  0  0  0  0
   -4.8348   37.1414  -17.6885 C   0  0  1  0  0  0  0  0  0  0  0  0
   -4.1642   33.9643  -10.2564 O   0  0  0  0  0  0  0  0  0  0  0  0
   -4.2250   38.0225  -18.7359 O   0  0  0  0  0  0  0  0  0  0  0  0
   -3.4802   36.1564  -10.2738 C   0  0  2  0  0  0  0  0  0  0  0  0
   -5.2666   36.0568  -18.2345 C   0  0  2  0  0  0  0  0  0  0  0  0
   -6.8686   40.2142  -11.2090 N   0  0  0  0  0  0  0  0  0  0  0  0
   -6.4991   39.2631  -12.1124 C   0  0  0  0  0  0  0  0  0  0  0  0
   -5.6243   38.2627  -11.7728 N   0  0  0  0  0  0  0  0  0  0  0  0
   -5.1163   38.2279  -10.5035 C   0  0  0  0  0  0  0  0  0  0  0  0
   -5.4648   39.1605   -9.6061 C   0  0  0  0  0  0  0  0  0  0  0  0
   -6.3616   40.1682   -9.9567 C   0  0  0  0  0  0  0  0  0  0  0  0
   -6.8074   41.2032   -9.1111 N   0  0  0  0  0  0  0  0  0  0  0  0
   -4.8255   38.8817   -8.4503 N   0  0  0  0  0  0  0  0  0  0  0  0
   -4.0691   37.7647   -8.6489 C   0  0  0  0  0  0  0  0  0  0  0  0
   -4.2603   37.3501   -9.9081 N   0  0  0  0  0  0  0  0  0  0  0  0
   -9.0711   32.7217  -17.0003 N   0  0  0  0  0  0  0  0  0  0  0  0
   -7.7497   32.4356  -17.1360 C   0  0  0  0  0  0  0  0  0  0  0  0
   -6.8752   33.4299  -17.4736 N   0  0  0  0  0  0  0  0  0  0  0  0
   -7.3231   34.6997  -17.6673 C   0  0  0  0  0  0  0  0  0  0  0  0
   -8.6323   34.9918  -17.5298 C   0  0  0  0  0  0  0  0  0  0  0  0
   -9.5166   33.9723  -17.1897 C   0  0  0  0  0  0  0  0  0  0  0  0
  -10.9437   34.0517  -17.0106 N   0  0  0  0  0  0  0  0  0  0  0  0
   -8.7809   36.3144  -17.7823 N   0  0  0  0  0  0  0  0  0  0  0  0
   -7.5537   36.8350  -18.0705 C   0  0  0  0  0  0  0  0  0  0  0  0
   -6.6588   35.8293  -17.9937 N   0  0  0  0  0  0  0  0  0  0  0  0
  1  3  1  1  0  0  0
  1  5  2  0  0  0  0
  1  9  1  0  0  0  0
  1 18  1  0  0  0  0
  2  4  1  1  0  0  0
  2  6  2  0  0  0  0
  2 10  1  0  0  0  0
  2 17  1  0  0  0  0
  7  9  1  0  0  0  0
  8 10  1  0  0  0  0
 11  7  1  6  0  0  0
 11 13  1  0  0  0  0
 11 15  1  0  0  0  0
 12  8  1  1  0  0  0
 12 14  1  0  0  0  0
 12 16  1  0  0  0  0
 13 23  1  0  0  0  0
 14 24  1  0  0  0  0
 15 17  1  1  0  0  0
 15 19  1  0  0  0  0
 16 18  1  6  0  0  0
 16 20  1  0  0  0  0
 19 21  1  1  0  0  0
 19 23  1  0  0  0  0
 20 22  1  6  0  0  0
 20 24  1  0  0  0  0
 23 34  1  6  0  0  0
 24 44  1  1  0  0  0
 25 26  2  0  0  0  0
 25 30  1  0  0  0  0
 26 27  1  0  0  0  0
 27 28  2  0  0  0  0
 28 29  1  0  0  0  0
 28 34  1  0  0  0  0
 29 30  2  0  0  0  0
 29 32  1  0  0  0  0
 30 31  1  0  0  0  0
 32 33  2  0  0  0  0
 33 34  1  0  0  0  0
 35 36  2  0  0  0  0
 35 40  1  0  0  0  0
 36 37  1  0  0  0  0
 37 38  2  0  0  0  0
 38 39  1  0  0  0  0
 38 44  1  0  0  0  0
 39 40  2  0  0  0  0
 39 42  1  0  0  0  0
 40 41  1  0  0  0  0
 42 43  2  0  0  0  0
 43 44  1  0  0  0  0
M  CHG  2   3  -1   4  -1
M  END
>  <CHROM.1>
71.17264868,-16.88056787,-4.98895669,36.22434376,-14.21280287,-1.15221907
-0.73077974,-1.74201123

>  <Name>
ligand

>  <RI>
0

>  <Rbt.Current_Directory>
/home/itssahil/PROJECTS/Mol_Feturizer/New_Systems/rnas/4QLM

>  <Rbt.Executable>
rbdock ($Id: //depot/dev/client3/rdock/2013.1/src/exe/rbdock.cxx#4 $)

>  <Rbt.Library>
libRbt.so (2013.1, Build901 2013/11/27)

>  <Rbt.Parameter_File>
/export/apps/rDock/src/rDock_2013.1_src/data/scripts/dock_solv.prm

>  <Rbt.Receptor>
prm/pocket_docking_7.prm

>  <SCORE>
-15.0957

>  <SCORE.INTER>
-14.6075

>  <SCORE.INTER.CONST>
1

>  <SCORE.INTER.POLAR>
0

>  <SCORE.INTER.ROT>
2

>  <SCORE.INTER.SOLV>
23.3043

>  <SCORE.INTER.VDW>
-22.4398

>  <SCORE.INTER.norm>
-0.331988

>  <SCORE.INTRA>
-0.488259

>  <SCORE.INTRA.DIHEDRAL>
0.0133477

>  <SCORE.INTRA.DIHEDRAL.0>
2.32994

>  <SCORE.INTRA.POLAR>
0

>  <SCORE.INTRA.POLAR.0>
0

>  <SCORE.INTRA.REPUL>
0

>  <SCORE.INTRA.REPUL.0>
0

>  <SCORE.INTRA.SOLV>
0.076827

>  <SCORE.INTRA.SOLV.lig_0>
-117.703

>  <SCORE.INTRA.VDW>
-0.533346

>  <SCORE.INTRA.VDW.0>
-1.59997

>  <SCORE.INTRA.norm>
-0.0110968

>  <SCORE.RESTR>
0

>  <SCORE.RESTR.CAVITY>
0

>  <SCORE.RESTR.norm>
0

>  <SCORE.SYSTEM>
0

>  <SCORE.SYSTEM.CONST>
0

>  <SCORE.SYSTEM.DIHEDRAL>
0

>  <SCORE.SYSTEM.SOLV>
0

>  <SCORE.SYSTEM.norm>
0

>  <SCORE.heavy>
44

>  <SCORE.norm>
-0.343085

>  <RMSD>
7.646

$$$$
ligand
 OpenBabel11021811513D
libRbt.so/2013.1/901 2013/11/27
 44 50  0  0  0  0  0  0  0  0999 V2000
   -7.8416   36.2367  -16.5184 P   0  0  2  0  0  0  0  0  0  0  0  0
  -10.0810   31.8059  -14.3833 P   0  0  1  0  0  0  0  0  0  0  0  0
   -6.5822   36.2831  -17.3798 O   0  5  0  0  0  0  0  0  0  0  0  0
  -10.4604   32.2025  -12.9773 O   0  5  0  0  0  0  0  0  0  0  0  0
   -7.9497   37.5914  -15.8605 O   0  0  0  0  0  0  0  0  0  0  0  0
  -10.7808   30.4618  -14.6880 O   0  0  0  0  0  0  0  0  0  0  0  0
   -6.7717   33.9959  -15.9940 C   0  0  0  0  0  0  0  0  0  0  0  0
  -10.0673   32.9592  -16.6937 C   0  0  0  0  0  0  0  0  0  0  0  0
   -7.6032   35.0618  -15.5157 O   0  0  0  0  0  0  0  0  0  0  0  0
  -10.4685   33.1131  -15.3030 O   0  0  0  0  0  0  0  0  0  0  0  0
   -6.5849   32.9458  -14.9041 C   0  0  1  0  0  0  0  0  0  0  0  0
  -10.6288   34.2185  -17.4556 C   0  0  1  0  0  0  0  0  0  0  0  0
   -5.6069   33.3246  -14.1411 O   0  0  0  0  0  0  0  0  0  0  0  0
  -11.8587   34.2763  -17.1426 O   0  0  0  0  0  0  0  0  0  0  0  0
   -7.7952   32.7906  -14.0122 C   0  0  1  0  0  0  0  0  0  0  0  0
  -10.0674   35.5226  -16.8548 C   0  0  1  0  0  0  0  0  0  0  0  0
   -8.4619   31.6894  -14.4496 O   0  0  0  0  0  0  0  0  0  0  0  0
   -9.0763   36.0188  -17.6054 O   0  0  0  0  0  0  0  0  0  0  0  0
   -7.1770   32.5258  -12.5952 C   0  0  1  0  0  0  0  0  0  0  0  0
  -11.2465   36.5173  -16.7573 C   0  0  1  0  0  0  0  0  0  0  0  0
   -7.2405   31.0748  -12.2730 O   0  0  0  0  0  0  0  0  0  0  0  0
  -11.1797   37.5207  -17.8681 O   0  0  0  0  0  0  0  0  0  0  0  0
   -5.9510   32.9386  -12.6424 C   0  0  2  0  0  0  0  0  0  0  0  0
  -12.3041   35.7932  -16.8926 C   0  0  2  0  0  0  0  0  0  0  0  0
   -7.2765   37.6904  -10.5247 N   0  0  0  0  0  0  0  0  0  0  0  0
   -8.0041   37.0012  -11.4481 C   0  0  0  0  0  0  0  0  0  0  0  0
   -7.5776   35.7888  -11.9273 N   0  0  0  0  0  0  0  0  0  0  0  0
   -6.3986   35.2708  -11.4670 C   0  0  0  0  0  0  0  0  0  0  0  0
   -5.6684   35.9403  -10.5643 C   0  0  0  0  0  0  0  0  0  0  0  0
   -6.1138   37.1673  -10.0754 C   0  0  0  0  0  0  0  0  0  0  0  0
   -5.4438   37.9677   -9.1291 N   0  0  0  0  0  0  0  0  0  0  0  0
   -4.5719   35.2025  -10.2897 N   0  0  0  0  0  0  0  0  0  0  0  0
   -4.6312   34.0676  -11.0432 C   0  0  0  0  0  0  0  0  0  0  0  0
   -5.7645   34.0994  -11.7564 N   0  0  0  0  0  0  0  0  0  0  0  0
  -16.3100   37.9914  -14.3945 N   0  0  0  0  0  0  0  0  0  0  0  0
  -15.8059   38.3543  -15.6030 C   0  0  0  0  0  0  0  0  0  0  0  0
  -14.7391   37.6751  -16.1206 N   0  0  0  0  0  0  0  0  0  0  0  0
  -14.1881   36.6384  -15.4336 C   0  0  0  0  0  0  0  0  0  0  0  0
  -14.6860   36.2698  -14.2359 C   0  0  0  0  0  0  0  0  0  0  0  0
  -15.7702   36.9695  -13.7143 C   0  0  0  0  0  0  0  0  0  0  0  0
  -16.4444   36.7633  -12.4581 N   0  0  0  0  0  0  0  0  0  0  0  0
  -13.9452   35.2256  -13.7933 N   0  0  0  0  0  0  0  0  0  0  0  0
  -12.9920   34.9508  -14.7291 C   0  0  0  0  0  0  0  0  0  0  0  0
  -13.1525   35.8278  -15.7406 N   0  0  0  0  0  0  0  0  0  0  0  0
  1  3  1  6  0  0  0
  1  5  2  0  0  0  0
  1  9  1  0  0  0  0
  1 18  1  0  0  0  0
  2  4  1  1  0  0  0
  2  6  2  0  0  0  0
  2 10  1  0  0  0  0
  2 17  1  0  0  0  0
  7  9  1  0  0  0  0
  8 10  1  0  0  0  0
 11  7  1  6  0  0  0
 11 13  1  0  0  0  0
 11 15  1  0  0  0  0
 12  8  1  1  0  0  0
 12 14  1  0  0  0  0
 12 16  1  0  0  0  0
 13 23  1  0  0  0  0
 14 24  1  0  0  0  0
 15 17  1  6  0  0  0
 15 19  1  0  0  0  0
 16 18  1  6  0  0  0
 16 20  1  0  0  0  0
 19 21  1  6  0  0  0
 19 23  1  0  0  0  0
 20 22  1  6  0  0  0
 20 24  1  0  0  0  0
 23 34  1  1  0  0  0
 24 44  1  1  0  0  0
 25 26  2  0  0  0  0
 25 30  1  0  0  0  0
 26 27  1  0  0  0  0
 27 28  2  0  0  0  0
 28 29  1  0  0  0  0
 28 34  1  0  0  0  0
 29 30  2  0  0  0  0
 29 32  1  0  0  0  0
 30 31  1  0  0  0  0
 32 33  2  0  0  0  0
 33 34  1  0  0  0  0
 35 36  2  0  0  0  0
 35 40  1  0  0  0  0
 36 37  1  0  0  0  0
 37 38  2  0  0  0  0
 38 39  1  0  0  0  0
 38 44  1  0  0  0  0
 39 40  2  0  0  0  0
 39 42  1  0  0  0  0
 40 41  1  0  0  0  0
 42 43  2  0  0  0  0
 43 44  1  0  0  0  0
M  CHG  2   3  -1   4  -1
M  END
>  <CHROM.1>
74.33406640,-148.41305099,-9.54297794,34.96558374,-14.35275203,-0.13393189
0.42900076,-2.30454157

>  <Name>
ligand

>  <RI>
0

>  <Rbt.Current_Directory>
/home/itssahil/PROJECTS/Mol_Feturizer/New_Systems/rnas/4QLM

>  <Rbt.Executable>
rbdock ($Id: //depot/dev/client3/rdock/2013.1/src/exe/rbdock.cxx#4 $)

>  <Rbt.Library>
libRbt.so (2013.1, Build901 2013/11/27)

>  <Rbt.Parameter_File>
/export/apps/rDock/src/rDock_2013.1_src/data/scripts/dock_solv.prm

>  <Rbt.Receptor>
prm/pocket_docking_8.prm

>  <SCORE>
-8.31241

>  <SCORE.INTER>
-7.47807

>  <SCORE.INTER.CONST>
1

>  <SCORE.INTER.POLAR>
0

>  <SCORE.INTER.ROT>
2

>  <SCORE.INTER.SOLV>
15.4712

>  <SCORE.INTER.VDW>
-15.0758

>  <SCORE.INTER.norm>
-0.169956

>  <SCORE.INTRA>
-0.834531

>  <SCORE.INTRA.DIHEDRAL>
0.00312012

>  <SCORE.INTRA.DIHEDRAL.0>
2.32994

>  <SCORE.INTRA.POLAR>
0

>  <SCORE.INTRA.POLAR.0>
0

>  <SCORE.INTRA.REPUL>
0

>  <SCORE.INTRA.REPUL.0>
0

>  <SCORE.INTRA.SOLV>
-0.00229908

>  <SCORE.INTRA.SOLV.lig_0>
-117.703

>  <SCORE.INTRA.VDW>
-0.834941

>  <SCORE.INTRA.VDW.0>
-1.59997

>  <SCORE.INTRA.norm>
-0.0189666

>  <SCORE.RESTR>
0.000190553

>  <SCORE.RESTR.CAVITY>
0.000190553

>  <SCORE.RESTR.norm>
4.33076e-06

>  <SCORE.SYSTEM>
0

>  <SCORE.SYSTEM.CONST>
0

>  <SCORE.SYSTEM.DIHEDRAL>
0

>  <SCORE.SYSTEM.SOLV>
0

>  <SCORE.SYSTEM.norm>
0

>  <SCORE.heavy>
44

>  <SCORE.norm>
-0.188918

>  <RMSD>
7.652

$$$$
ligand
 OpenBabel11021811513D
libRbt.so/2013.1/901 2013/11/27
 44 50  0  0  0  0  0  0  0  0999 V2000
   -5.7149   33.4895  -13.4817 P   0  0  2  0  0  0  0  0  0  0  0  0
   -4.0666   38.2631  -15.4055 P   0  0  1  0  0  0  0  0  0  0  0  0
   -5.6105   32.1455  -14.1982 O   0  5  0  0  0  0  0  0  0  0  0  0
   -5.1696   39.2281  -15.0447 O   0  5  0  0  0  0  0  0  0  0  0  0
   -6.8735   33.3639  -12.5218 O   0  0  0  0  0  0  0  0  0  0  0  0
   -2.8473   39.1021  -15.8509 O   0  0  0  0  0  0  0  0  0  0  0  0
   -5.3660   34.2110  -15.8898 C   0  0  0  0  0  0  0  0  0  0  0  0
   -2.9533   36.2194  -14.2864 C   0  0  0  0  0  0  0  0  0  0  0  0
   -5.9435   34.5374  -14.6184 O   0  0  0  0  0  0  0  0  0  0  0  0
   -3.9085   37.2986  -14.0827 O   0  0  0  0  0  0  0  0  0  0  0  0
   -5.7042   35.2900  -16.9129 C   0  0  1  0  0  0  0  0  0  0  0  0
   -2.8168   35.4850  -12.8995 C   0  0  1  0  0  0  0  0  0  0  0  0
   -6.8722   35.0238  -17.4101 O   0  0  0  0  0  0  0  0  0  0  0  0
   -2.5786   36.4056  -12.0569 O   0  0  0  0  0  0  0  0  0  0  0  0
   -5.7943   36.6740  -16.3122 C   0  0  1  0  0  0  0  0  0  0  0  0
   -4.1797   34.9411  -12.4266 C   0  0  1  0  0  0  0  0  0  0  0  0
   -4.6170   37.2952  -16.5886 O   0  0  0  0  0  0  0  0  0  0  0  0
   -4.2848   33.6256  -12.6512 O   0  0  0  0  0  0  0  0  0  0  0  0
   -6.9654   37.3464  -17.1100 C   0  0  1  0  0  0  0  0  0  0  0  0
   -4.2936   35.2616  -10.9188 C   0  0  1  0  0  0  0  0  0  0  0  0
   -6.4177   38.2591  -18.1493 O   0  0  0  0  0  0  0  0  0  0  0  0
   -4.0187   34.0371  -10.1000 O   0  0  0  0  0  0  0  0  0  0  0  0
   -7.6477   36.3862  -17.6469 C   0  0  2  0  0  0  0  0  0  0  0  0
   -3.3803   36.1434  -10.6967 C   0  0  2  0  0  0  0  0  0  0  0  0
  -11.2266   35.1341  -13.8462 N   0  0  0  0  0  0  0  0  0  0  0  0
   -9.8827   34.9203  -13.7736 C   0  0  0  0  0  0  0  0  0  0  0  0
   -9.0498   35.2792  -14.8028 N   0  0  0  0  0  0  0  0  0  0  0  0
   -9.5862   35.8590  -15.9192 C   0  0  0  0  0  0  0  0  0  0  0  0
  -10.9069   36.0690  -16.0082 C   0  0  0  0  0  0  0  0  0  0  0  0
  -11.7451   35.7100  -14.9539 C   0  0  0  0  0  0  0  0  0  0  0  0
  -13.1437   35.8763  -14.9219 N   0  0  0  0  0  0  0  0  0  0  0  0
  -11.1538   36.6515  -17.2007 N   0  0  0  0  0  0  0  0  0  0  0  0
   -9.9644   36.7921  -17.8523 C   0  0  0  0  0  0  0  0  0  0  0  0
   -8.9950   36.3203  -17.0574 N   0  0  0  0  0  0  0  0  0  0  0  0
   -7.3928   38.7950   -8.6994 N   0  0  0  0  0  0  0  0  0  0  0  0
   -7.3631   37.4715   -9.0058 C   0  0  0  0  0  0  0  0  0  0  0  0
   -6.2265   36.9265   -9.5336 N   0  0  0  0  0  0  0  0  0  0  0  0
   -5.1294   37.7021   -9.7459 C   0  0  0  0  0  0  0  0  0  0  0  0
   -5.1501   39.0152   -9.4399 C   0  0  0  0  0  0  0  0  0  0  0  0
   -6.3132   39.5629   -8.9065 C   0  0  0  0  0  0  0  0  0  0  0  0
   -6.5634   40.9301   -8.5279 N   0  0  0  0  0  0  0  0  0  0  0  0
   -3.9356   39.5243   -9.7574 N   0  0  0  0  0  0  0  0  0  0  0  0
   -3.1659   38.5147  -10.2554 C   0  0  0  0  0  0  0  0  0  0  0  0
   -3.9120   37.3916  -10.2414 N   0  0  0  0  0  0  0  0  0  0  0  0
  1  3  1  6  0  0  0
  1  5  2  0  0  0  0
  1  9  1  0  0  0  0
  1 18  1  0  0  0  0
  2  4  1  1  0  0  0
  2  6  2  0  0  0  0
  2 10  1  0  0  0  0
  2 17  1  0  0  0  0
  7  9  1  0  0  0  0
  8 10  1  0  0  0  0
 11  7  1  1  0  0  0
 11 13  1  0  0  0  0
 11 15  1  0  0  0  0
 12  8  1  6  0  0  0
 12 14  1  0  0  0  0
 12 16  1  0  0  0  0
 13 23  1  0  0  0  0
 14 24  1  0  0  0  0
 15 17  1  6  0  0  0
 15 19  1  0  0  0  0
 16 18  1  1  0  0  0
 16 20  1  0  0  0  0
 19 21  1  6  0  0  0
 19 23  1  0  0  0  0
 20 22  1  1  0  0  0
 20 24  1  0  0  0  0
 23 34  1  1  0  0  0
 24 44  1  6  0  0  0
 25 26  2  0  0  0  0
 25 30  1  0  0  0  0
 26 27  1  0  0  0  0
 27 28  2  0  0  0  0
 28 29  1  0  0  0  0
 28 34  1  0  0  0  0
 29 30  2  0  0  0  0
 29 32  1  0  0  0  0
 30 31  1  0  0  0  0
 32 33  2  0  0  0  0
 33 34  1  0  0  0  0
 35 36  2  0  0  0  0
 35 40  1  0  0  0  0
 36 37  1  0  0  0  0
 37 38  2  0  0  0  0
 38 39  1  0  0  0  0
 38 44  1  0  0  0  0
 39 40  2  0  0  0  0
 39 42  1  0  0  0  0
 40 41  1  0  0  0  0
 42 43  2  0  0  0  0
 43 44  1  0  0  0  0
M  CHG  2   3  -1   4  -1
M  END
>  <CHROM.1>
41.87401190,136.37884689,-6.17512981,36.39693017,-13.68242227,-2.20626291
0.05836614,1.35405439

>  <Name>
ligand

>  <RI>
0

>  <Rbt.Current_Directory>
/home/itssahil/PROJECTS/Mol_Feturizer/New_Systems/rnas/4QLM

>  <Rbt.Executable>
rbdock ($Id: //depot/dev/client3/rdock/2013.1/src/exe/rbdock.cxx#4 $)

>  <Rbt.Library>
libRbt.so (2013.1, Build901 2013/11/27)

>  <Rbt.Parameter_File>
/export/apps/rDock/src/rDock_2013.1_src/data/scripts/dock_solv.prm

>  <Rbt.Receptor>
prm/pocket_docking_7.prm

>  <SCORE>
-8.21394

>  <SCORE.INTER>
-7.86844

>  <SCORE.INTER.CONST>
1

>  <SCORE.INTER.POLAR>
0

>  <SCORE.INTER.ROT>
2

>  <SCORE.INTER.SOLV>
17.8903

>  <SCORE.INTER.VDW>
-16.1424

>  <SCORE.INTER.norm>
-0.178828

>  <SCORE.INTRA>
-0.345507

>  <SCORE.INTRA.DIHEDRAL>
0.141334

>  <SCORE.INTRA.DIHEDRAL.0>
2.32994

>  <SCORE.INTRA.POLAR>
0

>  <SCORE.INTRA.POLAR.0>
0

>  <SCORE.INTRA.REPUL>
0

>  <SCORE.INTRA.REPUL.0>
0

>  <SCORE.INTRA.SOLV>
0.409952

>  <SCORE.INTRA.SOLV.lig_0>
-117.703

>  <SCORE.INTRA.VDW>
-0.62115

>  <SCORE.INTRA.VDW.0>
-1.59997

>  <SCORE.INTRA.norm>
-0.00785243

>  <SCORE.RESTR>
0

>  <SCORE.RESTR.CAVITY>
0

>  <SCORE.RESTR.norm>
0

>  <SCORE.SYSTEM>
0

>  <SCORE.SYSTEM.CONST>
0

>  <SCORE.SYSTEM.DIHEDRAL>
0

>  <SCORE.SYSTEM.SOLV>
0

>  <SCORE.SYSTEM.norm>
0

>  <SCORE.heavy>
44

>  <SCORE.norm>
-0.186681

>  <RMSD>
7.662

$$$$
ligand
 OpenBabel11021811513D
libRbt.so/2013.1/901 2013/11/27
 44 50  0  0  0  0  0  0  0  0999 V2000
   -4.8961   33.3456  -13.6675 P   0  0  2  0  0  0  0  0  0  0  0  0
   -3.1431   38.1303  -15.4672 P   0  0  1  0  0  0  0  0  0  0  0  0
   -4.5958   31.9845  -14.2902 O   0  5  0  0  0  0  0  0  0  0  0  0
   -4.3385   39.0457  -15.3617 O   0  5  0  0  0  0  0  0  0  0  0  0
   -6.2070   33.1912  -12.9345 O   0  0  0  0  0  0  0  0  0  0  0  0
   -1.9029   39.0184  -15.7164 O   0  0  0  0  0  0  0  0  0  0  0  0
   -4.1359   33.9982  -15.9993 C   0  0  0  0  0  0  0  0  0  0  0  0
   -2.1645   36.1922  -14.0692 C   0  0  0  0  0  0  0  0  0  0  0  0
   -4.9564   34.3379  -14.8734 O   0  0  0  0  0  0  0  0  0  0  0  0
   -3.1908   37.2241  -14.0956 O   0  0  0  0  0  0  0  0  0  0  0  0
   -4.3266   35.0197  -17.1155 C   0  0  1  0  0  0  0  0  0  0  0  0
   -2.2562   35.5167  -12.6491 C   0  0  1  0  0  0  0  0  0  0  0  0
   -5.3667   34.6721  -17.8081 O   0  0  0  0  0  0  0  0  0  0  0  0
   -2.2240   36.4786  -11.8197 O   0  0  0  0  0  0  0  0  0  0  0  0
   -4.5930   36.4173  -16.6055 C   0  0  1  0  0  0  0  0  0  0  0  0
   -3.6564   34.9162  -12.4130 C   0  0  1  0  0  0  0  0  0  0  0  0
   -3.4154   37.0918  -16.6867 O   0  0  0  0  0  0  0  0  0  0  0  0
   -3.6552   33.5897  -12.5931 O   0  0  0  0  0  0  0  0  0  0  0  0
   -5.6240   36.9953  -17.6365 C   0  0  1  0  0  0  0  0  0  0  0  0
   -4.0662   35.2838  -10.9687 C   0  0  1  0  0  0  0  0  0  0  0  0
   -4.9347   37.8988  -18.5966 O   0  0  0  0  0  0  0  0  0  0  0  0
   -3.8924   34.1065  -10.0582 O   0  0  0  0  0  0  0  0  0  0  0  0
   -6.1474   35.9805  -18.2464 C   0  0  2  0  0  0  0  0  0  0  0  0
   -3.2534   36.2219  -10.6214 C   0  0  2  0  0  0  0  0  0  0  0  0
  -10.5995   33.3321  -16.8373 N   0  0  0  0  0  0  0  0  0  0  0  0
   -9.3604   32.7834  -16.9813 C   0  0  0  0  0  0  0  0  0  0  0  0
   -8.2824   33.5494  -17.3452 N   0  0  0  0  0  0  0  0  0  0  0  0
   -8.4634   34.8865  -17.5681 C   0  0  0  0  0  0  0  0  0  0  0  0
   -9.6774   35.4392  -17.4374 C   0  0  0  0  0  0  0  0  0  0  0  0
  -10.7658   34.6554  -17.0581 C   0  0  0  0  0  0  0  0  0  0  0  0
  -12.0877   35.1115  -16.8862 N   0  0  0  0  0  0  0  0  0  0  0  0
   -9.5638   36.7565  -17.7095 N   0  0  0  0  0  0  0  0  0  0  0  0
   -8.2600   37.0095  -18.0182 C   0  0  0  0  0  0  0  0  0  0  0  0
   -7.5768   35.8620  -17.9148 N   0  0  0  0  0  0  0  0  0  0  0  0
   -7.5706   38.6697   -9.0431 N   0  0  0  0  0  0  0  0  0  0  0  0
   -7.4015   37.3293   -9.1888 C   0  0  0  0  0  0  0  0  0  0  0  0
   -6.2001   36.8440   -9.6228 N   0  0  0  0  0  0  0  0  0  0  0  0
   -5.1773   37.6963   -9.9019 C   0  0  0  0  0  0  0  0  0  0  0  0
   -5.3364   39.0272   -9.7552 C   0  0  0  0  0  0  0  0  0  0  0  0
   -6.5646   39.5132   -9.3165 C   0  0  0  0  0  0  0  0  0  0  0  0
   -6.9597   40.8829   -9.1092 N   0  0  0  0  0  0  0  0  0  0  0  0
   -4.1673   39.6158  -10.1043 N   0  0  0  0  0  0  0  0  0  0  0  0
   -3.2864   38.6378  -10.4614 C   0  0  0  0  0  0  0  0  0  0  0  0
   -3.9194   37.4546  -10.3299 N   0  0  0  0  0  0  0  0  0  0  0  0
  1  3  1  6  0  0  0
  1  5  2  0  0  0  0
  1  9  1  0  0  0  0
  1 18  1  0  0  0  0
  2  4  1  1  0  0  0
  2  6  2  0  0  0  0
  2 10  1  0  0  0  0
  2 17  1  0  0  0  0
  7  9  1  0  0  0  0
  8 10  1  0  0  0  0
 11  7  1  1  0  0  0
 11 13  1  0  0  0  0
 11 15  1  0  0  0  0
 12  8  1  6  0  0  0
 12 14  1  0  0  0  0
 12 16  1  0  0  0  0
 13 23  1  0  0  0  0
 14 24  1  0  0  0  0
 15 17  1  6  0  0  0
 15 19  1  0  0  0  0
 16 18  1  1  0  0  0
 16 20  1  0  0  0  0
 19 21  1  6  0  0  0
 19 23  1  0  0  0  0
 20 22  1  1  0  0  0
 20 24  1  0  0  0  0
 23 34  1  1  0  0  0
 24 44  1  6  0  0  0
 25 26  2  0  0  0  0
 25 30  1  0  0  0  0
 26 27  1  0  0  0  0
 27 28  2  0  0  0  0
 28 29  1  0  0  0  0
 28 34  1  0  0  0  0
 29 30  2  0  0  0  0
 29 32  1  0  0  0  0
 30 31  1  0  0  0  0
 32 33  2  0  0  0  0
 33 34  1  0  0  0  0
 35 36  2  0  0  0  0
 35 40  1  0  0  0  0
 36 37  1  0  0  0  0
 37 38  2  0  0  0  0
 38 39  1  0  0  0  0
 38 44  1  0  0  0  0
 39 40  2  0  0  0  0
 39 42  1  0  0  0  0
 40 41  1  0  0  0  0
 42 43  2  0  0  0  0
 43 44  1  0  0  0  0
M  CHG  2   3  -1   4  -1
M  END
>  <CHROM.1>
-15.25360766,146.91422083,-5.45810194,36.12394399,-14.16355640,-2.02684759
0.18260244,1.30209593

>  <Name>
ligand

>  <RI>
0

>  <Rbt.Current_Directory>
/home/itssahil/PROJECTS/Mol_Feturizer/New_Systems/rnas/4QLM

>  <Rbt.Executable>
rbdock ($Id: //depot/dev/client3/rdock/2013.1/src/exe/rbdock.cxx#4 $)

>  <Rbt.Library>
libRbt.so (2013.1, Build901 2013/11/27)

>  <Rbt.Parameter_File>
/export/apps/rDock/src/rDock_2013.1_src/data/scripts/dock_solv.prm

>  <Rbt.Receptor>
prm/pocket_docking_6.prm

>  <SCORE>
-11.0559

>  <SCORE.INTER>
-13.2809

>  <SCORE.INTER.CONST>
1

>  <SCORE.INTER.POLAR>
0

>  <SCORE.INTER.ROT>
2

>  <SCORE.INTER.SOLV>
22.0449

>  <SCORE.INTER.VDW>
-21.1355

>  <SCORE.INTER.norm>
-0.301838

>  <SCORE.INTRA>
1.74398

>  <SCORE.INTRA.DIHEDRAL>
-0.00897059

>  <SCORE.INTRA.DIHEDRAL.0>
2.32994

>  <SCORE.INTRA.POLAR>
0

>  <SCORE.INTRA.POLAR.0>
0

>  <SCORE.INTRA.REPUL>
0

>  <SCORE.INTRA.REPUL.0>
0

>  <SCORE.INTRA.SOLV>
0.135846

>  <SCORE.INTRA.SOLV.lig_0>
-117.703

>  <SCORE.INTRA.VDW>
1.68055

>  <SCORE.INTRA.VDW.0>
-1.59997

>  <SCORE.INTRA.norm>
0.039636

>  <SCORE.RESTR>
0.481023

>  <SCORE.RESTR.CAVITY>
0.481023

>  <SCORE.RESTR.norm>
0.0109323

>  <SCORE.SYSTEM>
0

>  <SCORE.SYSTEM.CONST>
0

>  <SCORE.SYSTEM.DIHEDRAL>
0

>  <SCORE.SYSTEM.SOLV>
0

>  <SCORE.SYSTEM.norm>
0

>  <SCORE.heavy>
44

>  <SCORE.norm>
-0.25127

>  <RMSD>
7.691

$$$$
ligand
 OpenBabel11021811513D
libRbt.so/2013.1/901 2013/11/27
 44 50  0  0  0  0  0  0  0  0999 V2000
   -2.9705   38.2262  -15.3066 P   0  0  2  0  0  0  0  0  0  0  0  0
   -4.8401   33.3528  -13.9066 P   0  0  1  0  0  0  0  0  0  0  0  0
   -1.5318   38.7150  -15.1590 O   0  5  0  0  0  0  0  0  0  0  0  0
   -6.1627   33.6242  -13.2320 O   0  5  0  0  0  0  0  0  0  0  0  0
   -3.8381   39.4615  -15.2765 O   0  0  0  0  0  0  0  0  0  0  0  0
   -4.7689   31.8346  -14.1878 O   0  0  0  0  0  0  0  0  0  0  0  0
   -2.0309   36.5733  -13.6255 C   0  0  0  0  0  0  0  0  0  0  0  0
   -3.5405   34.3475  -15.9041 C   0  0  0  0  0  0  0  0  0  0  0  0
   -3.1966   37.2625  -14.0972 O   0  0  0  0  0  0  0  0  0  0  0  0
   -4.8060   34.3856  -15.1861 O   0  0  0  0  0  0  0  0  0  0  0  0
   -2.3838   35.7086  -12.4200 C   0  0  1  0  0  0  0  0  0  0  0  0
   -3.7213   35.2755  -17.1640 C   0  0  1  0  0  0  0  0  0  0  0  0
   -2.3342   36.4538  -11.3595 O   0  0  0  0  0  0  0  0  0  0  0  0
   -4.7906   34.8759  -17.7217 O   0  0  0  0  0  0  0  0  0  0  0  0
   -3.7821   35.1386  -12.4840 C   0  0  1  0  0  0  0  0  0  0  0  0
   -4.0797   36.7146  -16.7425 C   0  0  1  0  0  0  0  0  0  0  0  0
   -3.6590   33.8533  -12.9096 O   0  0  0  0  0  0  0  0  0  0  0  0
   -3.0142   37.5222  -16.8087 O   0  0  0  0  0  0  0  0  0  0  0  0
   -4.2632   35.1745  -10.9916 C   0  0  1  0  0  0  0  0  0  0  0  0
   -5.2040   37.1939  -17.6888 C   0  0  1  0  0  0  0  0  0  0  0  0
   -4.1597   33.8184  -10.3885 O   0  0  0  0  0  0  0  0  0  0  0  0
   -4.6518   38.1103  -18.7378 O   0  0  0  0  0  0  0  0  0  0  0  0
   -3.4980   36.0173  -10.3753 C   0  0  2  0  0  0  0  0  0  0  0  0
   -5.6504   36.1203  -18.2449 C   0  0  2  0  0  0  0  0  0  0  0  0
   -7.9741   38.6443   -9.0026 N   0  0  0  0  0  0  0  0  0  0  0  0
   -7.8979   37.3260   -9.3391 C   0  0  0  0  0  0  0  0  0  0  0  0
   -6.7007   36.7466   -9.6745 N   0  0  0  0  0  0  0  0  0  0  0  0
   -5.5684   37.5135   -9.6712 C   0  0  0  0  0  0  0  0  0  0  0  0
   -5.6286   38.8132   -9.3495 C   0  0  0  0  0  0  0  0  0  0  0  0
   -6.8477   39.3918   -9.0008 C   0  0  0  0  0  0  0  0  0  0  0  0
   -7.0459   40.7403   -8.6438 N   0  0  0  0  0  0  0  0  0  0  0  0
   -4.3781   39.3162   -9.4238 N   0  0  0  0  0  0  0  0  0  0  0  0
   -3.5429   38.3077   -9.8042 C   0  0  0  0  0  0  0  0  0  0  0  0
   -4.2714   37.1920   -9.9404 N   0  0  0  0  0  0  0  0  0  0  0  0
   -9.3531   32.7210  -16.8830 N   0  0  0  0  0  0  0  0  0  0  0  0
   -8.0351   32.4545  -17.0785 C   0  0  0  0  0  0  0  0  0  0  0  0
   -7.1894   33.4641  -17.4430 N   0  0  0  0  0  0  0  0  0  0  0  0
   -7.6622   34.7295  -17.6038 C   0  0  0  0  0  0  0  0  0  0  0  0
   -8.9680   35.0021  -17.4071 C   0  0  0  0  0  0  0  0  0  0  0  0
   -9.8230   33.9671  -17.0399 C   0  0  0  0  0  0  0  0  0  0  0  0
  -11.2420   34.0251  -16.7987 N   0  0  0  0  0  0  0  0  0  0  0  0
   -9.1450   36.3249  -17.6391 N   0  0  0  0  0  0  0  0  0  0  0  0
   -7.9385   36.8652  -17.9743 C   0  0  0  0  0  0  0  0  0  0  0  0
   -7.0277   35.8713  -17.9468 N   0  0  0  0  0  0  0  0  0  0  0  0
  1  3  1  1  0  0  0
  1  5  2  0  0  0  0
  1  9  1  0  0  0  0
  1 18  1  0  0  0  0
  2  4  1  1  0  0  0
  2  6  2  0  0  0  0
  2 10  1  0  0  0  0
  2 17  1  0  0  0  0
  7  9  1  0  0  0  0
  8 10  1  0  0  0  0
 11  7  1  6  0  0  0
 11 13  1  0  0  0  0
 11 15  1  0  0  0  0
 12  8  1  1  0  0  0
 12 14  1  0  0  0  0
 12 16  1  0  0  0  0
 13 23  1  0  0  0  0
 14 24  1  0  0  0  0
 15 17  1  1  0  0  0
 15 19  1  0  0  0  0
 16 18  1  6  0  0  0
 16 20  1  0  0  0  0
 19 21  1  1  0  0  0
 19 23  1  0  0  0  0
 20 22  1  6  0  0  0
 20 24  1  0  0  0  0
 23 34  1  6  0  0  0
 24 44  1  1  0  0  0
 25 26  2  0  0  0  0
 25 30  1  0  0  0  0
 26 27  1  0  0  0  0
 27 28  2  0  0  0  0
 28 29  1  0  0  0  0
 28 34  1  0  0  0  0
 29 30  2  0  0  0  0
 29 32  1  0  0  0  0
 30 31  1  0  0  0  0
 32 33  2  0  0  0  0
 33 34  1  0  0  0  0
 35 36  2  0  0  0  0
 35 40  1  0  0  0  0
 36 37  1  0  0  0  0
 37 38  2  0  0  0  0
 38 39  1  0  0  0  0
 38 44  1  0  0  0  0
 39 40  2  0  0  0  0
 39 42  1  0  0  0  0
 40 41  1  0  0  0  0
 42 43  2  0  0  0  0
 43 44  1  0  0  0  0
M  CHG  2   3  -1   4  -1
M  END
>  <CHROM.1>
142.59861461,-15.82169017,-5.26001794,36.08219284,-14.09939236,-1.27696463
-0.46345661,-1.81075698

>  <Name>
ligand

>  <RI>
0

>  <Rbt.Current_Directory>
/home/itssahil/PROJECTS/Mol_Feturizer/New_Systems/rnas/4QLM

>  <Rbt.Executable>
rbdock ($Id: //depot/dev/client3/rdock/2013.1/src/exe/rbdock.cxx#4 $)

>  <Rbt.Library>
libRbt.so (2013.1, Build901 2013/11/27)

>  <Rbt.Parameter_File>
/export/apps/rDock/src/rDock_2013.1_src/data/scripts/dock_solv.prm

>  <Rbt.Receptor>
prm/pocket_docking_8.prm

>  <SCORE>
-16.931

>  <SCORE.INTER>
-17.3777

>  <SCORE.INTER.CONST>
1

>  <SCORE.INTER.POLAR>
0

>  <SCORE.INTER.ROT>
2

>  <SCORE.INTER.SOLV>
22.2589

>  <SCORE.INTER.VDW>
-23.9381

>  <SCORE.INTER.norm>
-0.394948

>  <SCORE.INTRA>
0.446731

>  <SCORE.INTRA.DIHEDRAL>
0.178102

>  <SCORE.INTRA.DIHEDRAL.0>
2.32994

>  <SCORE.INTRA.POLAR>
0

>  <SCORE.INTRA.POLAR.0>
0

>  <SCORE.INTRA.REPUL>
0

>  <SCORE.INTRA.REPUL.0>
0

>  <SCORE.INTRA.SOLV>
0.0891205

>  <SCORE.INTRA.SOLV.lig_0>
-117.703

>  <SCORE.INTRA.VDW>
0.31312

>  <SCORE.INTRA.VDW.0>
-1.59997

>  <SCORE.INTRA.norm>
0.010153

>  <SCORE.RESTR>
0

>  <SCORE.RESTR.CAVITY>
0

>  <SCORE.RESTR.norm>
0

>  <SCORE.SYSTEM>
0

>  <SCORE.SYSTEM.CONST>
0

>  <SCORE.SYSTEM.DIHEDRAL>
0

>  <SCORE.SYSTEM.SOLV>
0

>  <SCORE.SYSTEM.norm>
0

>  <SCORE.heavy>
44

>  <SCORE.norm>
-0.384795

>  <RMSD>
7.725

$$$$
ligand
 OpenBabel11021811513D
libRbt.so/2013.1/901 2013/11/27
 44 50  0  0  0  0  0  0  0  0999 V2000
   -2.9766   38.2103  -15.3346 P   0  0  2  0  0  0  0  0  0  0  0  0
   -4.8726   33.3549  -13.9076 P   0  0  1  0  0  0  0  0  0  0  0  0
   -1.5355   38.6924  -15.1887 O   0  5  0  0  0  0  0  0  0  0  0  0
   -6.1943   33.6371  -13.2357 O   0  5  0  0  0  0  0  0  0  0  0  0
   -3.8377   39.4502  -15.3123 O   0  0  0  0  0  0  0  0  0  0  0  0
   -4.8091   31.8348  -14.1799 O   0  0  0  0  0  0  0  0  0  0  0  0
   -2.0469   36.5623  -13.6431 C   0  0  0  0  0  0  0  0  0  0  0  0
   -3.5663   34.3311  -15.9098 C   0  0  0  0  0  0  0  0  0  0  0  0
   -3.2086   37.2548  -14.1197 O   0  0  0  0  0  0  0  0  0  0  0  0
   -4.8322   34.3800  -15.1931 O   0  0  0  0  0  0  0  0  0  0  0  0
   -2.4051   35.7065  -12.4329 C   0  0  1  0  0  0  0  0  0  0  0  0
   -3.7414   35.2528  -17.1753 C   0  0  1  0  0  0  0  0  0  0  0  0
   -2.3524   36.4576  -11.3767 O   0  0  0  0  0  0  0  0  0  0  0  0
   -4.8123   34.8554  -17.7315 O   0  0  0  0  0  0  0  0  0  0  0  0
   -3.8064   35.1434  -12.4946 C   0  0  1  0  0  0  0  0  0  0  0  0
   -4.0926   36.6961  -16.7625 C   0  0  1  0  0  0  0  0  0  0  0  0
   -3.6897   33.8550  -12.9126 O   0  0  0  0  0  0  0  0  0  0  0  0
   -3.0229   37.4978  -16.8325 O   0  0  0  0  0  0  0  0  0  0  0  0
   -4.2884   35.1906  -11.0028 C   0  0  1  0  0  0  0  0  0  0  0  0
   -5.2137   37.1757  -17.7124 C   0  0  1  0  0  0  0  0  0  0  0  0
   -4.1923   33.8374  -10.3918 O   0  0  0  0  0  0  0  0  0  0  0  0
   -4.6559   38.0831  -18.7663 O   0  0  0  0  0  0  0  0  0  0  0  0
   -3.5192   36.0329  -10.3909 C   0  0  2  0  0  0  0  0  0  0  0  0
   -5.6653   36.1013  -18.2626 C   0  0  2  0  0  0  0  0  0  0  0  0
   -7.9774   38.6820   -9.0023 N   0  0  0  0  0  0  0  0  0  0  0  0
   -7.9059   37.3590   -9.3211 C   0  0  0  0  0  0  0  0  0  0  0  0
   -6.7130   36.7741   -9.6625 N   0  0  0  0  0  0  0  0  0  0  0  0
   -5.5803   37.5402   -9.6834 C   0  0  0  0  0  0  0  0  0  0  0  0
   -5.6361   38.8444   -9.3794 C   0  0  0  0  0  0  0  0  0  0  0  0
   -6.8507   39.4287   -9.0243 C   0  0  0  0  0  0  0  0  0  0  0  0
   -7.0439   40.7822   -8.6841 N   0  0  0  0  0  0  0  0  0  0  0  0
   -4.3863   39.3454   -9.4756 N   0  0  0  0  0  0  0  0  0  0  0  0
   -3.5562   38.3311   -9.8516 C   0  0  0  0  0  0  0  0  0  0  0  0
   -4.2869   37.2141   -9.9634 N   0  0  0  0  0  0  0  0  0  0  0  0
   -9.3877   32.7280  -16.8897 N   0  0  0  0  0  0  0  0  0  0  0  0
   -8.0712   32.4534  -17.0838 C   0  0  0  0  0  0  0  0  0  0  0  0
   -7.2196   33.4568  -17.4516 N   0  0  0  0  0  0  0  0  0  0  0  0
   -7.6851   34.7242  -17.6172 C   0  0  0  0  0  0  0  0  0  0  0  0
   -8.9894   35.0050  -17.4219 C   0  0  0  0  0  0  0  0  0  0  0  0
   -9.8505   33.9762  -17.0513 C   0  0  0  0  0  0  0  0  0  0  0  0
  -11.2692   34.0431  -16.8108 N   0  0  0  0  0  0  0  0  0  0  0  0
   -9.1588   36.3280  -17.6588 N   0  0  0  0  0  0  0  0  0  0  0  0
   -7.9492   36.8601  -17.9956 C   0  0  0  0  0  0  0  0  0  0  0  0
   -7.0441   35.8612  -17.9640 N   0  0  0  0  0  0  0  0  0  0  0  0
  1  3  1  1  0  0  0
  1  5  2  0  0  0  0
  1  9  1  0  0  0  0
  1 18  1  0  0  0  0
  2  4  1  1  0  0  0
  2  6  2  0  0  0  0
  2 10  1  0  0  0  0
  2 17  1  0  0  0  0
  7  9  1  0  0  0  0
  8 10  1  0  0  0  0
 11  7  1  6  0  0  0
 11 13  1  0  0  0  0
 11 15  1  0  0  0  0
 12  8  1  1  0  0  0
 12 14  1  0  0  0  0
 12 16  1  0  0  0  0
 13 23  1  0  0  0  0
 14 24  1  0  0  0  0
 15 17  1  1  0  0  0
 15 19  1  0  0  0  0
 16 18  1  6  0  0  0
 16 20  1  0  0  0  0
 19 21  1  1  0  0  0
 19 23  1  0  0  0  0
 20 22  1  6  0  0  0
 20 24  1  0  0  0  0
 23 34  1  6  0  0  0
 24 44  1  1  0  0  0
 25 26  2  0  0  0  0
 25 30  1  0  0  0  0
 26 27  1  0  0  0  0
 27 28  2  0  0  0  0
 28 29  1  0  0  0  0
 28 34  1  0  0  0  0
 29 30  2  0  0  0  0
 29 32  1  0  0  0  0
 30 31  1  0  0  0  0
 32 33  2  0  0  0  0
 33 34  1  0  0  0  0
 35 36  2  0  0  0  0
 35 40  1  0  0  0  0
 36 37  1  0  0  0  0
 37 38  2  0  0  0  0
 38 39  1  0  0  0  0
 38 44  1  0  0  0  0
 39 40  2  0  0  0  0
 39 42  1  0  0  0  0
 40 41  1  0  0  0  0
 42 43  2  0  0  0  0
 43 44  1  0  0  0  0
M  CHG  2   3  -1   4  -1
M  END
>  <CHROM.1>
143.50266864,-15.95175156,-5.27794458,36.08451162,-14.11473520,-1.27760393
-0.45998922,-1.81545043

>  <Name>
ligand

>  <RI>
0

>  <Rbt.Current_Directory>
/home/itssahil/PROJECTS/Mol_Feturizer/New_Systems/rnas/4QLM

>  <Rbt.Executable>
rbdock ($Id: //depot/dev/client3/rdock/2013.1/src/exe/rbdock.cxx#4 $)

>  <Rbt.Library>
libRbt.so (2013.1, Build901 2013/11/27)

>  <Rbt.Parameter_File>
/export/apps/rDock/src/rDock_2013.1_src/data/scripts/dock_solv.prm

>  <Rbt.Receptor>
prm/pocket_docking_7.prm

>  <SCORE>
-16.8923

>  <SCORE.INTER>
-17.3565

>  <SCORE.INTER.CONST>
1

>  <SCORE.INTER.POLAR>
0

>  <SCORE.INTER.ROT>
2

>  <SCORE.INTER.SOLV>
22.2151

>  <SCORE.INTER.VDW>
-23.9094

>  <SCORE.INTER.norm>
-0.394467

>  <SCORE.INTRA>
0.464227

>  <SCORE.INTRA.DIHEDRAL>
0.179503

>  <SCORE.INTRA.DIHEDRAL.0>
2.32994

>  <SCORE.INTRA.POLAR>
0

>  <SCORE.INTRA.POLAR.0>
0

>  <SCORE.INTRA.REPUL>
0

>  <SCORE.INTRA.REPUL.0>
0

>  <SCORE.INTRA.SOLV>
0.0894225

>  <SCORE.INTRA.SOLV.lig_0>
-117.703

>  <SCORE.INTRA.VDW>
0.329765

>  <SCORE.INTRA.VDW.0>
-1.59997

>  <SCORE.INTRA.norm>
0.0105506

>  <SCORE.RESTR>
0

>  <SCORE.RESTR.CAVITY>
0

>  <SCORE.RESTR.norm>
0

>  <SCORE.SYSTEM>
0

>  <SCORE.SYSTEM.CONST>
0

>  <SCORE.SYSTEM.DIHEDRAL>
0

>  <SCORE.SYSTEM.SOLV>
0

>  <SCORE.SYSTEM.norm>
0

>  <SCORE.heavy>
44

>  <SCORE.norm>
-0.383916

>  <RMSD>
7.729

$$$$
ligand
 OpenBabel11021811513D
libRbt.so/2013.1/901 2013/11/27
 44 50  0  0  0  0  0  0  0  0999 V2000
   -4.0542   36.7490  -15.8107 P   0  0  2  0  0  0  0  0  0  0  0  0
   -7.6213   32.9589  -14.3557 P   0  0  1  0  0  0  0  0  0  0  0  0
   -2.5559   36.5429  -16.0178 O   0  5  0  0  0  0  0  0  0  0  0  0
   -8.5023   33.6293  -13.3297 O   0  5  0  0  0  0  0  0  0  0  0  0
   -4.2311   38.2039  -15.4482 O   0  0  0  0  0  0  0  0  0  0  0  0
   -8.3141   31.6399  -14.7671 O   0  0  0  0  0  0  0  0  0  0  0  0
   -3.6568   34.5629  -14.5842 C   0  0  0  0  0  0  0  0  0  0  0  0
   -6.4496   33.6745  -16.5428 C   0  0  0  0  0  0  0  0  0  0  0  0
   -4.4448   35.7581  -14.6669 O   0  0  0  0  0  0  0  0  0  0  0  0
   -7.3795   34.1058  -15.5094 O   0  0  0  0  0  0  0  0  0  0  0  0
   -4.1123   33.7141  -13.4020 C   0  0  1  0  0  0  0  0  0  0  0  0
   -6.4376   34.8161  -17.6282 C   0  0  1  0  0  0  0  0  0  0  0  0
   -3.5104   34.1473  -12.3378 O   0  0  0  0  0  0  0  0  0  0  0  0
   -7.6596   35.0237  -17.9070 O   0  0  0  0  0  0  0  0  0  0  0  0
   -5.5959   33.8151  -13.1321 C   0  0  1  0  0  0  0  0  0  0  0  0
   -6.0008   36.1597  -17.0111 C   0  0  1  0  0  0  0  0  0  0  0  0
   -6.1665   32.7081  -13.6773 O   0  0  0  0  0  0  0  0  0  0  0  0
   -4.7224   36.4353  -17.2969 O   0  0  0  0  0  0  0  0  0  0  0  0
   -5.6902   33.7621  -11.5674 C   0  0  1  0  0  0  0  0  0  0  0  0
   -6.9463   37.2435  -17.5772 C   0  0  1  0  0  0  0  0  0  0  0  0
   -6.0998   32.4016  -11.1260 O   0  0  0  0  0  0  0  0  0  0  0  0
   -6.2628   38.0232  -18.6589 O   0  0  0  0  0  0  0  0  0  0  0  0
   -4.5156   34.0641  -11.1146 C   0  0  2  0  0  0  0  0  0  0  0  0
   -7.9387   36.5905  -18.0769 C   0  0  2  0  0  0  0  0  0  0  0  0
   -6.9223   38.3909   -9.0391 N   0  0  0  0  0  0  0  0  0  0  0  0
   -7.5485   37.3635   -9.6789 C   0  0  0  0  0  0  0  0  0  0  0  0
   -6.8404   36.2982  -10.1741 N   0  0  0  0  0  0  0  0  0  0  0  0
   -5.4816   36.2759  -10.0211 C   0  0  0  0  0  0  0  0  0  0  0  0
   -4.8508   37.2825   -9.4005 C   0  0  0  0  0  0  0  0  0  0  0  0
   -5.5789   38.3567   -8.8919 C   0  0  0  0  0  0  0  0  0  0  0  0
   -5.0393   39.4723   -8.2217 N   0  0  0  0  0  0  0  0  0  0  0  0
   -3.5311   36.9988   -9.3884 N   0  0  0  0  0  0  0  0  0  0  0  0
   -3.3539   35.8027  -10.0186 C   0  0  0  0  0  0  0  0  0  0  0  0
   -4.5562   35.3471  -10.3940 N   0  0  0  0  0  0  0  0  0  0  0  0
  -10.5080   37.8207  -13.7173 N   0  0  0  0  0  0  0  0  0  0  0  0
   -9.1746   37.5895  -13.8389 C   0  0  0  0  0  0  0  0  0  0  0  0
   -8.6541   37.2681  -15.0609 N   0  0  0  0  0  0  0  0  0  0  0  0
   -9.4644   37.1855  -16.1505 C   0  0  0  0  0  0  0  0  0  0  0  0
  -10.7878   37.4181  -16.0381 C   0  0  0  0  0  0  0  0  0  0  0  0
  -11.3101   37.7409  -14.7890 C   0  0  0  0  0  0  0  0  0  0  0  0
  -12.6812   38.0078  -14.4371 N   0  0  0  0  0  0  0  0  0  0  0  0
  -11.3322   37.2629  -17.2688 N   0  0  0  0  0  0  0  0  0  0  0  0
  -10.3342   36.9389  -18.1399 C   0  0  0  0  0  0  0  0  0  0  0  0
   -9.1829   36.8965  -17.4393 N   0  0  0  0  0  0  0  0  0  0  0  0
  1  3  1  6  0  0  0
  1  5  2  0  0  0  0
  1  9  1  0  0  0  0
  1 18  1  0  0  0  0
  2  4  1  1  0  0  0
  2  6  2  0  0  0  0
  2 10  1  0  0  0  0
  2 17  1  0  0  0  0
  7  9  1  0  0  0  0
  8 10  1  0  0  0  0
 11  7  1  6  0  0  0
 11 13  1  0  0  0  0
 11 15  1  0  0  0  0
 12  8  1  1  0  0  0
 12 14  1  0  0  0  0
 12 16  1  0  0  0  0
 13 23  1  0  0  0  0
 14 24  1  0  0  0  0
 15 17  1  6  0  0  0
 15 19  1  0  0  0  0
 16 18  1  6  0  0  0
 16 20  1  0  0  0  0
 19 21  1  6  0  0  0
 19 23  1  0  0  0  0
 20 22  1  6  0  0  0
 20 24  1  0  0  0  0
 23 34  1  6  0  0  0
 24 44  1  1  0  0  0
 25 26  2  0  0  0  0
 25 30  1  0  0  0  0
 26 27  1  0  0  0  0
 27 28  2  0  0  0  0
 28 29  1  0  0  0  0
 28 34  1  0  0  0  0
 29 30  2  0  0  0  0
 29 32  1  0  0  0  0
 30 31  1  0  0  0  0
 32 33  2  0  0  0  0
 33 34  1  0  0  0  0
 35 36  2  0  0  0  0
 35 40  1  0  0  0  0
 36 37  1  0  0  0  0
 37 38  2  0  0  0  0
 38 39  1  0  0  0  0
 38 44  1  0  0  0  0
 39 40  2  0  0  0  0
 39 42  1  0  0  0  0
 40 41  1  0  0  0  0
 42 43  2  0  0  0  0
 43 44  1  0  0  0  0
M  CHG  2   3  -1   4  -1
M  END
>  <CHROM.1>
123.58501499,85.22562008,-6.62423984,35.83986258,-14.07417865,-2.14808229
-0.44404606,1.35600253

>  <Name>
ligand

>  <RI>
0

>  <Rbt.Current_Directory>
/home/itssahil/PROJECTS/Mol_Feturizer/New_Systems/rnas/4QLM

>  <Rbt.Executable>
rbdock ($Id: //depot/dev/client3/rdock/2013.1/src/exe/rbdock.cxx#4 $)

>  <Rbt.Library>
libRbt.so (2013.1, Build901 2013/11/27)

>  <Rbt.Parameter_File>
/export/apps/rDock/src/rDock_2013.1_src/data/scripts/dock_solv.prm

>  <Rbt.Receptor>
prm/pocket_docking_5.prm

>  <SCORE>
-5.11404

>  <SCORE.INTER>
-5.78515

>  <SCORE.INTER.CONST>
1

>  <SCORE.INTER.POLAR>
0

>  <SCORE.INTER.ROT>
2

>  <SCORE.INTER.SOLV>
14.2612

>  <SCORE.INTER.VDW>
-13.5438

>  <SCORE.INTER.norm>
-0.131481

>  <SCORE.INTRA>
-0.687901

>  <SCORE.INTRA.DIHEDRAL>
0.108984

>  <SCORE.INTRA.DIHEDRAL.0>
2.32994

>  <SCORE.INTRA.POLAR>
0

>  <SCORE.INTRA.POLAR.0>
0

>  <SCORE.INTRA.REPUL>
0

>  <SCORE.INTRA.REPUL.0>
0

>  <SCORE.INTRA.SOLV>
0.0606611

>  <SCORE.INTRA.SOLV.lig_0>
-117.703

>  <SCORE.INTRA.VDW>
-0.772723

>  <SCORE.INTRA.VDW.0>
-1.59997

>  <SCORE.INTRA.norm>
-0.0156341

>  <SCORE.RESTR>
1.35901

>  <SCORE.RESTR.CAVITY>
1.35901

>  <SCORE.RESTR.norm>
0.0308866

>  <SCORE.SYSTEM>
0

>  <SCORE.SYSTEM.CONST>
0

>  <SCORE.SYSTEM.DIHEDRAL>
0

>  <SCORE.SYSTEM.SOLV>
0

>  <SCORE.SYSTEM.norm>
0

>  <SCORE.heavy>
44

>  <SCORE.norm>
-0.116228

>  <RMSD>
7.731

$$$$
ligand
 OpenBabel11021811513D
libRbt.so/2013.1/901 2013/11/27
 44 50  0  0  0  0  0  0  0  0999 V2000
   -2.9267   38.1929  -15.3011 P   0  0  2  0  0  0  0  0  0  0  0  0
   -4.8425   33.3424  -13.8841 P   0  0  1  0  0  0  0  0  0  0  0  0
   -1.4851   38.6713  -15.1477 O   0  5  0  0  0  0  0  0  0  0  0  0
   -6.1669   33.6279  -13.2191 O   0  5  0  0  0  0  0  0  0  0  0  0
   -3.7848   39.4350  -15.2833 O   0  0  0  0  0  0  0  0  0  0  0  0
   -4.7814   31.8221  -14.1561 O   0  0  0  0  0  0  0  0  0  0  0  0
   -2.0100   36.5426  -13.6048 C   0  0  0  0  0  0  0  0  0  0  0  0
   -3.5232   34.3152  -15.8795 C   0  0  0  0  0  0  0  0  0  0  0  0
   -3.1675   37.2380  -14.0875 O   0  0  0  0  0  0  0  0  0  0  0  0
   -4.7927   34.3674  -15.1693 O   0  0  0  0  0  0  0  0  0  0  0  0
   -2.3767   35.6876  -12.3965 C   0  0  1  0  0  0  0  0  0  0  0  0
   -3.6893   35.2373  -17.1459 C   0  0  1  0  0  0  0  0  0  0  0  0
   -2.3277   36.4386  -11.3400 O   0  0  0  0  0  0  0  0  0  0  0  0
   -4.7583   34.8427  -17.7076 O   0  0  0  0  0  0  0  0  0  0  0  0
   -3.7791   35.1282  -12.4656 C   0  0  1  0  0  0  0  0  0  0  0  0
   -4.0390   36.6815  -16.7349 C   0  0  1  0  0  0  0  0  0  0  0  0
   -3.6635   33.8395  -12.8829 O   0  0  0  0  0  0  0  0  0  0  0  0
   -2.9669   37.4805  -16.7993 O   0  0  0  0  0  0  0  0  0  0  0  0
   -4.2688   35.1765  -10.9763 C   0  0  1  0  0  0  0  0  0  0  0  0
   -5.1539   37.1640  -17.6906 C   0  0  1  0  0  0  0  0  0  0  0  0
   -4.1794   33.8232  -10.3648 O   0  0  0  0  0  0  0  0  0  0  0  0
   -4.5883   38.0699  -18.7416 O   0  0  0  0  0  0  0  0  0  0  0  0
   -3.5006   36.0170  -10.3603 C   0  0  2  0  0  0  0  0  0  0  0  0
   -5.6053   36.0907  -18.2431 C   0  0  2  0  0  0  0  0  0  0  0  0
   -7.9602   38.6790   -9.0014 N   0  0  0  0  0  0  0  0  0  0  0  0
   -7.8908   37.3562   -9.3216 C   0  0  0  0  0  0  0  0  0  0  0  0
   -6.6973   36.7679   -9.6549 N   0  0  0  0  0  0  0  0  0  0  0  0
   -5.5620   37.5302   -9.6662 C   0  0  0  0  0  0  0  0  0  0  0  0
   -5.6156   38.8341   -9.3606 C   0  0  0  0  0  0  0  0  0  0  0  0
   -6.8309   39.4219   -9.0138 C   0  0  0  0  0  0  0  0  0  0  0  0
   -7.0221   40.7755   -8.6730 N   0  0  0  0  0  0  0  0  0  0  0  0
   -4.3635   39.3310   -9.4466 N   0  0  0  0  0  0  0  0  0  0  0  0
   -3.5340   38.3145   -9.8179 C   0  0  0  0  0  0  0  0  0  0  0  0
   -4.2675   37.2001   -9.9369 N   0  0  0  0  0  0  0  0  0  0  0  0
   -9.3464   32.7235  -16.9062 N   0  0  0  0  0  0  0  0  0  0  0  0
   -8.0301   32.4450  -17.0964 C   0  0  0  0  0  0  0  0  0  0  0  0
   -7.1732   33.4474  -17.4546 N   0  0  0  0  0  0  0  0  0  0  0  0
   -7.6331   34.7175  -17.6146 C   0  0  0  0  0  0  0  0  0  0  0  0
   -8.9372   35.0021  -17.4230 C   0  0  0  0  0  0  0  0  0  0  0  0
   -9.8037   33.9745  -17.0622 C   0  0  0  0  0  0  0  0  0  0  0  0
  -11.2232   34.0454  -16.8273 N   0  0  0  0  0  0  0  0  0  0  0  0
   -9.1005   36.3272  -17.6526 N   0  0  0  0  0  0  0  0  0  0  0  0
   -7.8874   36.8567  -17.9811 C   0  0  0  0  0  0  0  0  0  0  0  0
   -6.9863   35.8541  -17.9518 N   0  0  0  0  0  0  0  0  0  0  0  0
  1  3  1  1  0  0  0
  1  5  2  0  0  0  0
  1  9  1  0  0  0  0
  1 18  1  0  0  0  0
  2  4  1  1  0  0  0
  2  6  2  0  0  0  0
  2 10  1  0  0  0  0
  2 17  1  0  0  0  0
  7  9  1  0  0  0  0
  8 10  1  0  0  0  0
 11  7  1  6  0  0  0
 11 13  1  0  0  0  0
 11 15  1  0  0  0  0
 12  8  1  1  0  0  0
 12 14  1  0  0  0  0
 12 16  1  0  0  0  0
 13 23  1  0  0  0  0
 14 24  1  0  0  0  0
 15 17  1  1  0  0  0
 15 19  1  0  0  0  0
 16 18  1  6  0  0  0
 16 20  1  0  0  0  0
 19 21  1  1  0  0  0
 19 23  1  0  0  0  0
 20 22  1  6  0  0  0
 20 24  1  0  0  0  0
 23 34  1  6  0  0  0
 24 44  1  1  0  0  0
 25 26  2  0  0  0  0
 25 30  1  0  0  0  0
 26 27  1  0  0  0  0
 27 28  2  0  0  0  0
 28 29  1  0  0  0  0
 28 34  1  0  0  0  0
 29 30  2  0  0  0  0
 29 32  1  0  0  0  0
 30 31  1  0  0  0  0
 32 33  2  0  0  0  0
 33 34  1  0  0  0  0
 35 36  2  0  0  0  0
 35 40  1  0  0  0  0
 36 37  1  0  0  0  0
 37 38  2  0  0  0  0
 38 39  1  0  0  0  0
 38 44  1  0  0  0  0
 39 40  2  0  0  0  0
 39 42  1  0  0  0  0
 40 41  1  0  0  0  0
 42 43  2  0  0  0  0
 43 44  1  0  0  0  0
M  CHG  2   3  -1   4  -1
M  END
>  <CHROM.1>
143.33841312,-16.31024722,-5.24002880,36.07282834,-14.09502689,-1.28193989
-0.45554822,-1.81798405

>  <Name>
ligand

>  <RI>
0

>  <Rbt.Current_Directory>
/home/itssahil/PROJECTS/Mol_Feturizer/New_Systems/rnas/4QLM

>  <Rbt.Executable>
rbdock ($Id: //depot/dev/client3/rdock/2013.1/src/exe/rbdock.cxx#4 $)

>  <Rbt.Library>
libRbt.so (2013.1, Build901 2013/11/27)

>  <Rbt.Parameter_File>
/export/apps/rDock/src/rDock_2013.1_src/data/scripts/dock_solv.prm

>  <Rbt.Receptor>
prm/pocket_docking_7.prm

>  <SCORE>
-16.8809

>  <SCORE.INTER>
-17.3628

>  <SCORE.INTER.CONST>
1

>  <SCORE.INTER.POLAR>
0

>  <SCORE.INTER.ROT>
2

>  <SCORE.INTER.SOLV>
22.3152

>  <SCORE.INTER.VDW>
-23.9469

>  <SCORE.INTER.norm>
-0.394609

>  <SCORE.INTRA>
0.481909

>  <SCORE.INTRA.DIHEDRAL>
0.179408

>  <SCORE.INTRA.DIHEDRAL.0>
2.32994

>  <SCORE.INTRA.POLAR>
0

>  <SCORE.INTRA.POLAR.0>
0

>  <SCORE.INTRA.REPUL>
0

>  <SCORE.INTRA.REPUL.0>
0

>  <SCORE.INTRA.SOLV>
0.0897021

>  <SCORE.INTRA.SOLV.lig_0>
-117.703

>  <SCORE.INTRA.VDW>
0.347353

>  <SCORE.INTRA.VDW.0>
-1.59997

>  <SCORE.INTRA.norm>
0.0109525

>  <SCORE.RESTR>
0

>  <SCORE.RESTR.CAVITY>
0

>  <SCORE.RESTR.norm>
0

>  <SCORE.SYSTEM>
0

>  <SCORE.SYSTEM.CONST>
0

>  <SCORE.SYSTEM.DIHEDRAL>
0

>  <SCORE.SYSTEM.SOLV>
0

>  <SCORE.SYSTEM.norm>
0

>  <SCORE.heavy>
44

>  <SCORE.norm>
-0.383657

>  <RMSD>
7.731

$$$$
ligand
 OpenBabel11021811513D
libRbt.so/2013.1/901 2013/11/27
 44 50  0  0  0  0  0  0  0  0999 V2000
   -2.9494   38.1961  -15.3179 P   0  0  2  0  0  0  0  0  0  0  0  0
   -4.8515   33.3424  -13.8932 P   0  0  1  0  0  0  0  0  0  0  0  0
   -1.5077   38.6762  -15.1721 O   0  5  0  0  0  0  0  0  0  0  0  0
   -6.1727   33.6260  -13.2209 O   0  5  0  0  0  0  0  0  0  0  0  0
   -3.8089   39.4371  -15.2948 O   0  0  0  0  0  0  0  0  0  0  0  0
   -4.7900   31.8223  -14.1664 O   0  0  0  0  0  0  0  0  0  0  0  0
   -2.0215   36.5460  -13.6275 C   0  0  0  0  0  0  0  0  0  0  0  0
   -3.5443   34.3180  -15.8952 C   0  0  0  0  0  0  0  0  0  0  0  0
   -3.1824   37.2402  -14.1035 O   0  0  0  0  0  0  0  0  0  0  0  0
   -4.8100   34.3682  -15.1781 O   0  0  0  0  0  0  0  0  0  0  0  0
   -2.3806   35.6899  -12.4177 C   0  0  1  0  0  0  0  0  0  0  0  0
   -3.7184   35.2406  -17.1601 C   0  0  1  0  0  0  0  0  0  0  0  0
   -2.3268   36.4404  -11.3611 O   0  0  0  0  0  0  0  0  0  0  0  0
   -4.7900   34.8449  -17.7163 O   0  0  0  0  0  0  0  0  0  0  0  0
   -3.7826   35.1288  -12.4795 C   0  0  1  0  0  0  0  0  0  0  0  0
   -4.0677   36.6841  -16.7464 C   0  0  1  0  0  0  0  0  0  0  0  0
   -3.6677   33.8404  -12.8982 O   0  0  0  0  0  0  0  0  0  0  0  0
   -2.9969   37.4844  -16.8162 O   0  0  0  0  0  0  0  0  0  0  0  0
   -4.2643   35.1757  -10.9875 C   0  0  1  0  0  0  0  0  0  0  0  0
   -5.1884   37.1657  -17.6959 C   0  0  1  0  0  0  0  0  0  0  0  0
   -4.1699   33.8221  -10.3773 O   0  0  0  0  0  0  0  0  0  0  0  0
   -4.6296   38.0730  -18.7494 O   0  0  0  0  0  0  0  0  0  0  0  0
   -3.4939   36.0167  -10.3753 C   0  0  2  0  0  0  0  0  0  0  0  0
   -5.6414   36.0922  -18.2465 C   0  0  2  0  0  0  0  0  0  0  0  0
   -7.9525   38.6781   -9.0117 N   0  0  0  0  0  0  0  0  0  0  0  0
   -7.8843   37.3570   -9.3390 C   0  0  0  0  0  0  0  0  0  0  0  0
   -6.6910   36.7686   -9.6729 N   0  0  0  0  0  0  0  0  0  0  0  0
   -5.5545   37.5292   -9.6774 C   0  0  0  0  0  0  0  0  0  0  0  0
   -5.6068   38.8315   -9.3647 C   0  0  0  0  0  0  0  0  0  0  0  0
   -6.8220   39.4193   -9.0174 C   0  0  0  0  0  0  0  0  0  0  0  0
   -7.0119   40.7713   -8.6696 N   0  0  0  0  0  0  0  0  0  0  0  0
   -4.3537   39.3270   -9.4452 N   0  0  0  0  0  0  0  0  0  0  0  0
   -3.5250   38.3113   -9.8203 C   0  0  0  0  0  0  0  0  0  0  0  0
   -4.2599   37.1987   -9.9470 N   0  0  0  0  0  0  0  0  0  0  0  0
   -9.3768   32.7135  -16.9231 N   0  0  0  0  0  0  0  0  0  0  0  0
   -8.0623   32.4357  -17.1265 C   0  0  0  0  0  0  0  0  0  0  0  0
   -7.2068   33.4413  -17.4788 N   0  0  0  0  0  0  0  0  0  0  0  0
   -7.6663   34.7139  -17.6197 C   0  0  0  0  0  0  0  0  0  0  0  0
   -8.9685   34.9977  -17.4150 C   0  0  0  0  0  0  0  0  0  0  0  0
   -9.8337   33.9668  -17.0603 C   0  0  0  0  0  0  0  0  0  0  0  0
  -11.2512   34.0365  -16.8140 N   0  0  0  0  0  0  0  0  0  0  0  0
   -9.1318   36.3257  -17.6271 N   0  0  0  0  0  0  0  0  0  0  0  0
   -7.9205   36.8577  -17.9582 C   0  0  0  0  0  0  0  0  0  0  0  0
   -7.0205   35.8537  -17.9479 N   0  0  0  0  0  0  0  0  0  0  0  0
  1  3  1  1  0  0  0
  1  5  2  0  0  0  0
  1  9  1  0  0  0  0
  1 18  1  0  0  0  0
  2  4  1  1  0  0  0
  2  6  2  0  0  0  0
  2 10  1  0  0  0  0
  2 17  1  0  0  0  0
  7  9  1  0  0  0  0
  8 10  1  0  0  0  0
 11  7  1  6  0  0  0
 11 13  1  0  0  0  0
 11 15  1  0  0  0  0
 12  8  1  1  0  0  0
 12 14  1  0  0  0  0
 12 16  1  0  0  0  0
 13 23  1  0  0  0  0
 14 24  1  0  0  0  0
 15 17  1  1  0  0  0
 15 19  1  0  0  0  0
 16 18  1  6  0  0  0
 16 20  1  0  0  0  0
 19 21  1  1  0  0  0
 19 23  1  0  0  0  0
 20 22  1  6  0  0  0
 20 24  1  0  0  0  0
 23 34  1  6  0  0  0
 24 44  1  1  0  0  0
 25 26  2  0  0  0  0
 25 30  1  0  0  0  0
 26 27  1  0  0  0  0
 27 28  2  0  0  0  0
 28 29  1  0  0  0  0
 28 34  1  0  0  0  0
 29 30  2  0  0  0  0
 29 32  1  0  0  0  0
 30 31  1  0  0  0  0
 32 33  2  0  0  0  0
 33 34  1  0  0  0  0
 35 36  2  0  0  0  0
 35 40  1  0  0  0  0
 36 37  1  0  0  0  0
 37 38  2  0  0  0  0
 38 39  1  0  0  0  0
 38 44  1  0  0  0  0
 39 40  2  0  0  0  0
 39 42  1  0  0  0  0
 40 41  1  0  0  0  0
 42 43  2  0  0  0  0
 43 44  1  0  0  0  0
M  CHG  2   3  -1   4  -1
M  END
>  <CHROM.1>
142.79134614,-17.00440312,-5.25418897,36.07241107,-14.10432742,-1.27486271
-0.45617081,-1.81588245

>  <Name>
ligand

>  <RI>
0

>  <Rbt.Current_Directory>
/home/itssahil/PROJECTS/Mol_Feturizer/New_Systems/rnas/4QLM

>  <Rbt.Executable>
rbdock ($Id: //depot/dev/client3/rdock/2013.1/src/exe/rbdock.cxx#4 $)

>  <Rbt.Library>
libRbt.so (2013.1, Build901 2013/11/27)

>  <Rbt.Parameter_File>
/export/apps/rDock/src/rDock_2013.1_src/data/scripts/dock_solv.prm

>  <Rbt.Receptor>
prm/pocket_docking_7.prm

>  <SCORE>
-16.899

>  <SCORE.INTER>
-17.4123

>  <SCORE.INTER.CONST>
1

>  <SCORE.INTER.POLAR>
0

>  <SCORE.INTER.ROT>
2

>  <SCORE.INTER.SOLV>
22.3064

>  <SCORE.INTER.VDW>
-23.977

>  <SCORE.INTER.norm>
-0.395735

>  <SCORE.INTRA>
0.513394

>  <SCORE.INTRA.DIHEDRAL>
0.178843

>  <SCORE.INTRA.DIHEDRAL.0>
2.32994

>  <SCORE.INTRA.POLAR>
0

>  <SCORE.INTRA.POLAR.0>
0

>  <SCORE.INTRA.REPUL>
0

>  <SCORE.INTRA.REPUL.0>
0

>  <SCORE.INTRA.SOLV>
0.0901841

>  <SCORE.INTRA.SOLV.lig_0>
-117.703

>  <SCORE.INTRA.VDW>
0.37888

>  <SCORE.INTRA.VDW.0>
-1.59997

>  <SCORE.INTRA.norm>
0.011668

>  <SCORE.RESTR>
0

>  <SCORE.RESTR.CAVITY>
0

>  <SCORE.RESTR.norm>
0

>  <SCORE.SYSTEM>
0

>  <SCORE.SYSTEM.CONST>
0

>  <SCORE.SYSTEM.DIHEDRAL>
0

>  <SCORE.SYSTEM.SOLV>
0

>  <SCORE.SYSTEM.norm>
0

>  <SCORE.heavy>
44

>  <SCORE.norm>
-0.384067

>  <RMSD>
7.732

$$$$
ligand
 OpenBabel11021811513D
libRbt.so/2013.1/901 2013/11/27
 44 50  0  0  0  0  0  0  0  0999 V2000
   -3.0684   38.1604  -15.4625 P   0  0  2  0  0  0  0  0  0  0  0  0
   -4.9462   33.3256  -13.9448 P   0  0  1  0  0  0  0  0  0  0  0  0
   -1.6192   38.6320  -15.3729 O   0  5  0  0  0  0  0  0  0  0  0  0
   -6.2396   33.6207  -13.2249 O   0  5  0  0  0  0  0  0  0  0  0  0
   -3.9186   39.4071  -15.4131 O   0  0  0  0  0  0  0  0  0  0  0  0
   -4.9046   31.8039  -14.2128 O   0  0  0  0  0  0  0  0  0  0  0  0
   -2.0883   36.5120  -13.8001 C   0  0  0  0  0  0  0  0  0  0  0  0
   -3.7087   34.2838  -15.9988 C   0  0  0  0  0  0  0  0  0  0  0  0
   -3.2618   37.2116  -14.2357 O   0  0  0  0  0  0  0  0  0  0  0  0
   -4.9464   34.3453  -15.2352 O   0  0  0  0  0  0  0  0  0  0  0  0
   -2.4073   35.6638  -12.5737 C   0  0  1  0  0  0  0  0  0  0  0  0
   -3.9242   35.2017  -17.2607 C   0  0  1  0  0  0  0  0  0  0  0  0
   -2.3092   36.4186  -11.5235 O   0  0  0  0  0  0  0  0  0  0  0  0
   -5.0183   34.8105  -17.7745 O   0  0  0  0  0  0  0  0  0  0  0  0
   -3.8141   35.1114  -12.5804 C   0  0  1  0  0  0  0  0  0  0  0  0
   -4.2487   36.6493  -16.8411 C   0  0  1  0  0  0  0  0  0  0  0  0
   -3.7230   33.8205  -12.9970 O   0  0  0  0  0  0  0  0  0  0  0  0
   -3.1763   37.4424  -16.9546 O   0  0  0  0  0  0  0  0  0  0  0  0
   -4.2393   35.1681  -11.0717 C   0  0  1  0  0  0  0  0  0  0  0  0
   -5.4010   37.1339  -17.7502 C   0  0  1  0  0  0  0  0  0  0  0  0
   -4.1307   33.8167  -10.4591 O   0  0  0  0  0  0  0  0  0  0  0  0
   -4.8764   38.0327  -18.8282 O   0  0  0  0  0  0  0  0  0  0  0  0
   -3.4413   36.0069  -10.4927 C   0  0  2  0  0  0  0  0  0  0  0  0
   -5.8811   36.0608  -18.2785 C   0  0  2  0  0  0  0  0  0  0  0  0
   -7.8261   38.6988   -8.9601 N   0  0  0  0  0  0  0  0  0  0  0  0
   -7.7774   37.3747   -9.2789 C   0  0  0  0  0  0  0  0  0  0  0  0
   -6.6020   36.7785   -9.6591 N   0  0  0  0  0  0  0  0  0  0  0  0
   -5.4637   37.5341   -9.7192 C   0  0  0  0  0  0  0  0  0  0  0  0
   -5.4973   38.8391   -9.4156 C   0  0  0  0  0  0  0  0  0  0  0  0
   -6.6939   39.4350   -9.0210 C   0  0  0  0  0  0  0  0  0  0  0  0
   -6.8633   40.7907   -8.6767 N   0  0  0  0  0  0  0  0  0  0  0  0
   -4.2469   39.3284   -9.5543 N   0  0  0  0  0  0  0  0  0  0  0  0
   -3.4392   38.3061   -9.9563 C   0  0  0  0  0  0  0  0  0  0  0  0
   -4.1834   37.1957  -10.0417 N   0  0  0  0  0  0  0  0  0  0  0  0
   -9.5753   32.7215  -16.7546 N   0  0  0  0  0  0  0  0  0  0  0  0
   -8.2692   32.4358  -16.9972 C   0  0  0  0  0  0  0  0  0  0  0  0
   -7.4243   33.4313  -17.4004 N   0  0  0  0  0  0  0  0  0  0  0  0
   -7.8859   34.7018  -17.5527 C   0  0  0  0  0  0  0  0  0  0  0  0
   -9.1796   34.9935  -17.3094 C   0  0  0  0  0  0  0  0  0  0  0  0
  -10.0341   33.9728  -16.9030 C   0  0  0  0  0  0  0  0  0  0  0  0
  -11.4422   34.0517  -16.6095 N   0  0  0  0  0  0  0  0  0  0  0  0
   -9.3475   36.3171  -17.5443 N   0  0  0  0  0  0  0  0  0  0  0  0
   -8.1473   36.8386  -17.9283 C   0  0  0  0  0  0  0  0  0  0  0  0
   -7.2495   35.8325  -17.9274 N   0  0  0  0  0  0  0  0  0  0  0  0
  1  3  1  1  0  0  0
  1  5  2  0  0  0  0
  1  9  1  0  0  0  0
  1 18  1  0  0  0  0
  2  4  1  1  0  0  0
  2  6  2  0  0  0  0
  2 10  1  0  0  0  0
  2 17  1  0  0  0  0
  7  9  1  0  0  0  0
  8 10  1  0  0  0  0
 11  7  1  6  0  0  0
 11 13  1  0  0  0  0
 11 15  1  0  0  0  0
 12  8  1  1  0  0  0
 12 14  1  0  0  0  0
 12 16  1  0  0  0  0
 13 23  1  0  0  0  0
 14 24  1  0  0  0  0
 15 17  1  1  0  0  0
 15 19  1  0  0  0  0
 16 18  1  6  0  0  0
 16 20  1  0  0  0  0
 19 21  1  1  0  0  0
 19 23  1  0  0  0  0
 20 22  1  6  0  0  0
 20 24  1  0  0  0  0
 23 34  1  6  0  0  0
 24 44  1  1  0  0  0
 25 26  2  0  0  0  0
 25 30  1  0  0  0  0
 26 27  1  0  0  0  0
 27 28  2  0  0  0  0
 28 29  1  0  0  0  0
 28 34  1  0  0  0  0
 29 30  2  0  0  0  0
 29 32  1  0  0  0  0
 30 31  1  0  0  0  0
 32 33  2  0  0  0  0
 33 34  1  0  0  0  0
 35 36  2  0  0  0  0
 35 40  1  0  0  0  0
 36 37  1  0  0  0  0
 37 38  2  0  0  0  0
 38 39  1  0  0  0  0
 38 44  1  0  0  0  0
 39 40  2  0  0  0  0
 39 42  1  0  0  0  0
 40 41  1  0  0  0  0
 42 43  2  0  0  0  0
 43 44  1  0  0  0  0
M  CHG  2   3  -1   4  -1
M  END
>  <CHROM.1>
143.21128418,-15.99708030,-5.33846924,36.05758167,-14.14902273,-1.23435258
-0.46071357,-1.80087844

>  <Name>
ligand

>  <RI>
0

>  <Rbt.Current_Directory>
/home/itssahil/PROJECTS/Mol_Feturizer/New_Systems/rnas/4QLM

>  <Rbt.Executable>
rbdock ($Id: //depot/dev/client3/rdock/2013.1/src/exe/rbdock.cxx#4 $)

>  <Rbt.Library>
libRbt.so (2013.1, Build901 2013/11/27)

>  <Rbt.Parameter_File>
/export/apps/rDock/src/rDock_2013.1_src/data/scripts/dock_solv.prm

>  <Rbt.Receptor>
prm/pocket_docking_6.prm

>  <SCORE>
-15.8923

>  <SCORE.INTER>
-16.9284

>  <SCORE.INTER.CONST>
1

>  <SCORE.INTER.POLAR>
0

>  <SCORE.INTER.ROT>
2

>  <SCORE.INTER.SOLV>
21.9834

>  <SCORE.INTER.VDW>
-23.5468

>  <SCORE.INTER.norm>
-0.384737

>  <SCORE.INTRA>
0.463355

>  <SCORE.INTRA.DIHEDRAL>
0.179109

>  <SCORE.INTRA.DIHEDRAL.0>
2.32994

>  <SCORE.INTRA.POLAR>
0

>  <SCORE.INTRA.POLAR.0>
0

>  <SCORE.INTRA.REPUL>
0

>  <SCORE.INTRA.REPUL.0>
0

>  <SCORE.INTRA.SOLV>
0.0894025

>  <SCORE.INTRA.SOLV.lig_0>
-117.703

>  <SCORE.INTRA.VDW>
0.329099

>  <SCORE.INTRA.VDW.0>
-1.59997

>  <SCORE.INTRA.norm>
0.0105308

>  <SCORE.RESTR>
0.572787

>  <SCORE.RESTR.CAVITY>
0.572787

>  <SCORE.RESTR.norm>
0.0130179

>  <SCORE.SYSTEM>
0

>  <SCORE.SYSTEM.CONST>
0

>  <SCORE.SYSTEM.DIHEDRAL>
0

>  <SCORE.SYSTEM.SOLV>
0

>  <SCORE.SYSTEM.norm>
0

>  <SCORE.heavy>
44

>  <SCORE.norm>
-0.361188

>  <RMSD>
7.748

$$$$
ligand
 OpenBabel11021811513D
libRbt.so/2013.1/901 2013/11/27
 44 50  0  0  0  0  0  0  0  0999 V2000
   -4.9278   33.3150  -13.4581 P   0  0  2  0  0  0  0  0  0  0  0  0
   -3.7262   38.0922  -15.6807 P   0  0  1  0  0  0  0  0  0  0  0  0
   -4.5327   31.9443  -14.0017 O   0  5  0  0  0  0  0  0  0  0  0  0
   -4.9955   38.9013  -15.5703 O   0  5  0  0  0  0  0  0  0  0  0  0
   -6.1797   33.0975  -12.6425 O   0  0  0  0  0  0  0  0  0  0  0  0
   -2.5892   39.0678  -16.0610 O   0  0  0  0  0  0  0  0  0  0  0  0
   -4.3514   33.8595  -15.8690 C   0  0  0  0  0  0  0  0  0  0  0  0
   -2.5001   36.3590  -14.2107 C   0  0  0  0  0  0  0  0  0  0  0  0
   -5.1422   34.2060  -14.7241 O   0  0  0  0  0  0  0  0  0  0  0  0
   -3.6189   37.2893  -14.2494 O   0  0  0  0  0  0  0  0  0  0  0  0
   -4.6936   34.7742  -17.0402 C   0  0  1  0  0  0  0  0  0  0  0  0
   -2.4558   35.7848  -12.7444 C   0  0  1  0  0  0  0  0  0  0  0  0
   -5.7301   34.2840  -17.6466 O   0  0  0  0  0  0  0  0  0  0  0  0
   -2.4724   36.8043  -11.9866 O   0  0  0  0  0  0  0  0  0  0  0  0
   -5.0642   36.1760  -16.6134 C   0  0  1  0  0  0  0  0  0  0  0  0
   -3.7796   35.0794  -12.3879 C   0  0  1  0  0  0  0  0  0  0  0  0
   -3.9609   36.9462  -16.8081 O   0  0  0  0  0  0  0  0  0  0  0  0
   -3.6627   33.7489  -12.4759 O   0  0  0  0  0  0  0  0  0  0  0  0
   -6.1959   36.5808  -17.6211 C   0  0  1  0  0  0  0  0  0  0  0  0
   -4.1485   35.5144  -10.9512 C   0  0  1  0  0  0  0  0  0  0  0  0
   -5.6441   37.4694  -18.6791 O   0  0  0  0  0  0  0  0  0  0  0  0
   -3.8189   34.4281   -9.9732 O   0  0  0  0  0  0  0  0  0  0  0  0
   -6.6516   35.4806  -18.1287 C   0  0  2  0  0  0  0  0  0  0  0  0
   -3.4112   36.5450  -10.7165 C   0  0  2  0  0  0  0  0  0  0  0  0
  -11.1732   36.6687  -15.4897 N   0  0  0  0  0  0  0  0  0  0  0  0
  -10.0361   37.4197  -15.4960 C   0  0  0  0  0  0  0  0  0  0  0  0
   -8.9302   37.0279  -16.2066 N   0  0  0  0  0  0  0  0  0  0  0  0
   -8.9770   35.8600  -16.9166 C   0  0  0  0  0  0  0  0  0  0  0  0
  -10.0858   35.1071  -16.9141 C   0  0  0  0  0  0  0  0  0  0  0  0
  -11.2085   35.5173  -16.1971 C   0  0  0  0  0  0  0  0  0  0  0  0
  -12.4303   34.8209  -16.1130 N   0  0  0  0  0  0  0  0  0  0  0  0
   -9.8552   34.0285  -17.6923 N   0  0  0  0  0  0  0  0  0  0  0  0
   -8.5819   34.1220  -18.1712 C   0  0  0  0  0  0  0  0  0  0  0  0
   -8.0449   35.2585  -17.7085 N   0  0  0  0  0  0  0  0  0  0  0  0
   -7.8077   38.7102   -8.9549 N   0  0  0  0  0  0  0  0  0  0  0  0
   -7.5127   37.3845   -8.9967 C   0  0  0  0  0  0  0  0  0  0  0  0
   -6.3092   36.9764   -9.4990 N   0  0  0  0  0  0  0  0  0  0  0  0
   -5.4090   37.8915   -9.9495 C   0  0  0  0  0  0  0  0  0  0  0  0
   -5.6930   39.2089   -9.9069 C   0  0  0  0  0  0  0  0  0  0  0  0
   -6.9228   39.6155   -9.3973 C   0  0  0  0  0  0  0  0  0  0  0  0
   -7.4394   40.9547   -9.2755 N   0  0  0  0  0  0  0  0  0  0  0  0
   -4.6265   39.8699  -10.4174 N   0  0  0  0  0  0  0  0  0  0  0  0
   -3.6824   38.9507  -10.7691 C   0  0  0  0  0  0  0  0  0  0  0  0
   -4.1746   37.7308  -10.4730 N   0  0  0  0  0  0  0  0  0  0  0  0
  1  3  1  6  0  0  0
  1  5  2  0  0  0  0
  1  9  1  0  0  0  0
  1 18  1  0  0  0  0
  2  4  1  1  0  0  0
  2  6  2  0  0  0  0
  2 10  1  0  0  0  0
  2 17  1  0  0  0  0
  7  9  1  0  0  0  0
  8 10  1  0  0  0  0
 11  7  1  1  0  0  0
 11 13  1  0  0  0  0
 11 15  1  0  0  0  0
 12  8  1  6  0  0  0
 12 14  1  0  0  0  0
 12 16  1  0  0  0  0
 13 23  1  0  0  0  0
 14 24  1  0  0  0  0
 15 17  1  6  0  0  0
 15 19  1  0  0  0  0
 16 18  1  1  0  0  0
 16 20  1  0  0  0  0
 19 21  1  6  0  0  0
 19 23  1  0  0  0  0
 20 22  1  1  0  0  0
 20 24  1  0  0  0  0
 23 34  1  1  0  0  0
 24 44  1  6  0  0  0
 25 26  2  0  0  0  0
 25 30  1  0  0  0  0
 26 27  1  0  0  0  0
 27 28  2  0  0  0  0
 28 29  1  0  0  0  0
 28 34  1  0  0  0  0
 29 30  2  0  0  0  0
 29 32  1  0  0  0  0
 30 31  1  0  0  0  0
 32 33  2  0  0  0  0
 33 34  1  0  0  0  0
 35 36  2  0  0  0  0
 35 40  1  0  0  0  0
 36 37  1  0  0  0  0
 37 38  2  0  0  0  0
 38 39  1  0  0  0  0
 38 44  1  0  0  0  0
 39 40  2  0  0  0  0
 39 42  1  0  0  0  0
 40 41  1  0  0  0  0
 42 43  2  0  0  0  0
 43 44  1  0  0  0  0
M  CHG  2   3  -1   4  -1
M  END
>  <CHROM.1>
118.04382517,149.45632009,-5.79486715,36.26387193,-14.04072335,-2.02417611
-0.17075850,1.15378985

>  <Name>
ligand

>  <RI>
0

>  <Rbt.Current_Directory>
/home/itssahil/PROJECTS/Mol_Feturizer/New_Systems/rnas/4QLM

>  <Rbt.Executable>
rbdock ($Id: //depot/dev/client3/rdock/2013.1/src/exe/rbdock.cxx#4 $)

>  <Rbt.Library>
libRbt.so (2013.1, Build901 2013/11/27)

>  <Rbt.Parameter_File>
/export/apps/rDock/src/rDock_2013.1_src/data/scripts/dock_solv.prm

>  <Rbt.Receptor>
prm/pocket_docking_6.prm

>  <SCORE>
-10.0327

>  <SCORE.INTER>
-11.0161

>  <SCORE.INTER.CONST>
1

>  <SCORE.INTER.POLAR>
0

>  <SCORE.INTER.ROT>
2

>  <SCORE.INTER.SOLV>
21.9763

>  <SCORE.INTER.VDW>
-19.6028

>  <SCORE.INTER.norm>
-0.250365

>  <SCORE.INTRA>
0.346165

>  <SCORE.INTRA.DIHEDRAL>
0.0576202

>  <SCORE.INTRA.DIHEDRAL.0>
2.32994

>  <SCORE.INTRA.POLAR>
0

>  <SCORE.INTRA.POLAR.0>
0

>  <SCORE.INTRA.REPUL>
0

>  <SCORE.INTRA.REPUL.0>
0

>  <SCORE.INTRA.SOLV>
0.076675

>  <SCORE.INTRA.SOLV.lig_0>
-117.703

>  <SCORE.INTRA.VDW>
0.279017

>  <SCORE.INTRA.VDW.0>
-1.59997

>  <SCORE.INTRA.norm>
0.00786738

>  <SCORE.RESTR>
0.637171

>  <SCORE.RESTR.CAVITY>
0.637171

>  <SCORE.RESTR.norm>
0.0144812

>  <SCORE.SYSTEM>
0

>  <SCORE.SYSTEM.CONST>
0

>  <SCORE.SYSTEM.DIHEDRAL>
0

>  <SCORE.SYSTEM.SOLV>
0

>  <SCORE.SYSTEM.norm>
0

>  <SCORE.heavy>
44

>  <SCORE.norm>
-0.228017

>  <RMSD>
7.787

$$$$
ligand
 OpenBabel11021811513D
libRbt.so/2013.1/901 2013/11/27
 44 50  0  0  0  0  0  0  0  0999 V2000
   -4.9628   33.2937  -13.5208 P   0  0  2  0  0  0  0  0  0  0  0  0
   -4.2466   38.2870  -15.4597 P   0  0  1  0  0  0  0  0  0  0  0  0
   -4.4058   32.0059  -14.1222 O   0  5  0  0  0  0  0  0  0  0  0  0
   -5.5999   38.9453  -15.3448 O   0  5  0  0  0  0  0  0  0  0  0  0
   -6.2013   32.8968  -12.7540 O   0  0  0  0  0  0  0  0  0  0  0  0
   -3.2161   39.4002  -15.7564 O   0  0  0  0  0  0  0  0  0  0  0  0
   -4.3945   34.0278  -15.8829 C   0  0  0  0  0  0  0  0  0  0  0  0
   -2.8704   36.6213  -14.0456 C   0  0  0  0  0  0  0  0  0  0  0  0
   -5.2452   34.2232  -14.7451 O   0  0  0  0  0  0  0  0  0  0  0  0
   -4.0841   37.4243  -14.0690 O   0  0  0  0  0  0  0  0  0  0  0  0
   -4.8088   34.9617  -17.0150 C   0  0  1  0  0  0  0  0  0  0  0  0
   -2.7967   35.9768  -12.6100 C   0  0  1  0  0  0  0  0  0  0  0  0
   -5.7702   34.3945  -17.6756 O   0  0  0  0  0  0  0  0  0  0  0  0
   -2.9437   36.9459  -11.8017 O   0  0  0  0  0  0  0  0  0  0  0  0
   -5.3421   36.2892  -16.5278 C   0  0  1  0  0  0  0  0  0  0  0  0
   -4.0421   35.1126  -12.3286 C   0  0  1  0  0  0  0  0  0  0  0  0
   -4.3268   37.1849  -16.6507 O   0  0  0  0  0  0  0  0  0  0  0  0
   -3.7766   33.8095  -12.4813 O   0  0  0  0  0  0  0  0  0  0  0  0
   -6.4880   36.6218  -17.5458 C   0  0  1  0  0  0  0  0  0  0  0  0
   -4.4901   35.4262  -10.8829 C   0  0  1  0  0  0  0  0  0  0  0  0
   -6.0137   37.6215  -18.5404 O   0  0  0  0  0  0  0  0  0  0  0  0
   -4.0649   34.3311   -9.9527 O   0  0  0  0  0  0  0  0  0  0  0  0
   -6.8072   35.5075  -18.1221 C   0  0  2  0  0  0  0  0  0  0  0  0
   -3.8771   36.5171  -10.5743 C   0  0  2  0  0  0  0  0  0  0  0  0
  -11.8957   36.4117  -16.6694 N   0  0  0  0  0  0  0  0  0  0  0  0
  -10.9619   37.3692  -16.9311 C   0  0  0  0  0  0  0  0  0  0  0  0
   -9.6836   37.0330  -17.2979 N   0  0  0  0  0  0  0  0  0  0  0  0
   -9.3478   35.7111  -17.3979 C   0  0  0  0  0  0  0  0  0  0  0  0
  -10.2534   34.7581  -17.1367 C   0  0  0  0  0  0  0  0  0  0  0  0
  -11.5527   35.1083  -16.7737 C   0  0  0  0  0  0  0  0  0  0  0  0
  -12.5941   34.2077  -16.4745 N   0  0  0  0  0  0  0  0  0  0  0  0
   -9.6572   33.5605  -17.3168 N   0  0  0  0  0  0  0  0  0  0  0  0
   -8.3646   33.7874  -17.6869 C   0  0  0  0  0  0  0  0  0  0  0  0
   -8.1767   35.1119  -17.7544 N   0  0  0  0  0  0  0  0  0  0  0  0
   -6.0281   39.6973   -7.0558 N   0  0  0  0  0  0  0  0  0  0  0  0
   -5.1324   38.7040   -6.8158 C   0  0  0  0  0  0  0  0  0  0  0  0
   -4.6665   37.9497   -7.8556 N   0  0  0  0  0  0  0  0  0  0  0  0
   -5.0919   38.1947   -9.1243 C   0  0  0  0  0  0  0  0  0  0  0  0
   -5.9770   39.1816   -9.3706 C   0  0  0  0  0  0  0  0  0  0  0  0
   -6.4494   39.9425   -8.3051 C   0  0  0  0  0  0  0  0  0  0  0  0
   -7.4023   41.0223   -8.3331 N   0  0  0  0  0  0  0  0  0  0  0  0
   -6.2144   39.1894  -10.7042 N   0  0  0  0  0  0  0  0  0  0  0  0
   -5.4652   38.2044  -11.2773 C   0  0  0  0  0  0  0  0  0  0  0  0
   -4.7726   37.5972  -10.2926 N   0  0  0  0  0  0  0  0  0  0  0  0
  1  3  1  6  0  0  0
  1  5  2  0  0  0  0
  1  9  1  0  0  0  0
  1 18  1  0  0  0  0
  2  4  1  1  0  0  0
  2  6  2  0  0  0  0
  2 10  1  0  0  0  0
  2 17  1  0  0  0  0
  7  9  1  0  0  0  0
  8 10  1  0  0  0  0
 11  7  1  1  0  0  0
 11 13  1  0  0  0  0
 11 15  1  0  0  0  0
 12  8  1  6  0  0  0
 12 14  1  0  0  0  0
 12 16  1  0  0  0  0
 13 23  1  0  0  0  0
 14 24  1  0  0  0  0
 15 17  1  6  0  0  0
 15 19  1  0  0  0  0
 16 18  1  1  0  0  0
 16 20  1  0  0  0  0
 19 21  1  6  0  0  0
 19 23  1  0  0  0  0
 20 22  1  1  0  0  0
 20 24  1  0  0  0  0
 23 34  1  1  0  0  0
 24 44  1  6  0  0  0
 25 26  2  0  0  0  0
 25 30  1  0  0  0  0
 26 27  1  0  0  0  0
 27 28  2  0  0  0  0
 28 29  1  0  0  0  0
 28 34  1  0  0  0  0
 29 30  2  0  0  0  0
 29 32  1  0  0  0  0
 30 31  1  0  0  0  0
 32 33  2  0  0  0  0
 33 34  1  0  0  0  0
 35 36  2  0  0  0  0
 35 40  1  0  0  0  0
 36 37  1  0  0  0  0
 37 38  2  0  0  0  0
 38 39  1  0  0  0  0
 38 44  1  0  0  0  0
 39 40  2  0  0  0  0
 39 42  1  0  0  0  0
 40 41  1  0  0  0  0
 42 43  2  0  0  0  0
 43 44  1  0  0  0  0
M  CHG  2   3  -1   4  -1
M  END
>  <CHROM.1>
149.31315075,-131.63489458,-5.97308514,36.30789278,-13.91474054,-2.01196993
-0.38487800,1.05622875

>  <Name>
ligand

>  <RI>
0

>  <Rbt.Current_Directory>
/home/itssahil/PROJECTS/Mol_Feturizer/New_Systems/rnas/4QLM

>  <Rbt.Executable>
rbdock ($Id: //depot/dev/client3/rdock/2013.1/src/exe/rbdock.cxx#4 $)

>  <Rbt.Library>
libRbt.so (2013.1, Build901 2013/11/27)

>  <Rbt.Parameter_File>
/export/apps/rDock/src/rDock_2013.1_src/data/scripts/dock_solv.prm

>  <Rbt.Receptor>
prm/pocket_docking_8.prm

>  <SCORE>
-11.3737

>  <SCORE.INTER>
-11.6355

>  <SCORE.INTER.CONST>
1

>  <SCORE.INTER.POLAR>
0

>  <SCORE.INTER.ROT>
2

>  <SCORE.INTER.SOLV>
21.6963

>  <SCORE.INTER.VDW>
-19.9224

>  <SCORE.INTER.norm>
-0.264444

>  <SCORE.INTRA>
0.261843

>  <SCORE.INTRA.DIHEDRAL>
0.180869

>  <SCORE.INTRA.DIHEDRAL.0>
2.32994

>  <SCORE.INTRA.POLAR>
0

>  <SCORE.INTRA.POLAR.0>
0

>  <SCORE.INTRA.REPUL>
0

>  <SCORE.INTRA.REPUL.0>
0

>  <SCORE.INTRA.SOLV>
0.00987531

>  <SCORE.INTRA.SOLV.lig_0>
-117.703

>  <SCORE.INTRA.VDW>
0.166471

>  <SCORE.INTRA.VDW.0>
-1.59997

>  <SCORE.INTRA.norm>
0.00595098

>  <SCORE.RESTR>
0

>  <SCORE.RESTR.CAVITY>
0

>  <SCORE.RESTR.norm>
0

>  <SCORE.SYSTEM>
0

>  <SCORE.SYSTEM.CONST>
0

>  <SCORE.SYSTEM.DIHEDRAL>
0

>  <SCORE.SYSTEM.SOLV>
0

>  <SCORE.SYSTEM.norm>
0

>  <SCORE.heavy>
44

>  <SCORE.norm>
-0.258493

>  <RMSD>
7.964

$$$$
ligand
 OpenBabel11021811513D
libRbt.so/2013.1/901 2013/11/27
 44 50  0  0  0  0  0  0  0  0999 V2000
   -2.7408   38.2978  -15.4215 P   0  0  2  0  0  0  0  0  0  0  0  0
   -4.6785   33.5206  -13.7999 P   0  0  1  0  0  0  0  0  0  0  0  0
   -1.2943   38.7703  -15.3010 O   0  5  0  0  0  0  0  0  0  0  0  0
   -5.9939   33.8420  -13.1332 O   0  5  0  0  0  0  0  0  0  0  0  0
   -3.5893   39.5464  -15.4429 O   0  0  0  0  0  0  0  0  0  0  0  0
   -4.6317   31.9905  -14.0138 O   0  0  0  0  0  0  0  0  0  0  0  0
   -1.8193   36.7066  -13.6721 C   0  0  0  0  0  0  0  0  0  0  0  0
   -3.3725   34.4056  -15.8443 C   0  0  0  0  0  0  0  0  0  0  0  0
   -2.9764   37.3921  -14.1697 O   0  0  0  0  0  0  0  0  0  0  0  0
   -4.6343   34.4950  -15.1240 O   0  0  0  0  0  0  0  0  0  0  0  0
   -2.1800   35.9016  -12.4282 C   0  0  1  0  0  0  0  0  0  0  0  0
   -3.5447   35.2797  -17.1435 C   0  0  1  0  0  0  0  0  0  0  0  0
   -2.1145   36.6922  -11.4020 O   0  0  0  0  0  0  0  0  0  0  0  0
   -4.6223   34.8723  -17.6789 O   0  0  0  0  0  0  0  0  0  0  0  0
   -3.5872   35.3511  -12.4618 C   0  0  1  0  0  0  0  0  0  0  0  0
   -3.8792   36.7414  -16.7849 C   0  0  1  0  0  0  0  0  0  0  0  0
   -3.4856   34.0464  -12.8304 O   0  0  0  0  0  0  0  0  0  0  0  0
   -2.8019   37.5287  -16.8906 O   0  0  0  0  0  0  0  0  0  0  0  0
   -4.0612   35.4604  -10.9706 C   0  0  1  0  0  0  0  0  0  0  0  0
   -5.0002   37.1956  -17.7473 C   0  0  1  0  0  0  0  0  0  0  0  0
   -3.9757   34.1309  -10.3085 O   0  0  0  0  0  0  0  0  0  0  0  0
   -4.4386   38.0560  -18.8379 O   0  0  0  0  0  0  0  0  0  0  0  0
   -3.2805   36.3178  -10.3952 C   0  0  2  0  0  0  0  0  0  0  0  0
   -5.4653   36.1055  -18.2536 C   0  0  2  0  0  0  0  0  0  0  0  0
   -5.5884   39.6930   -6.9163 N   0  0  0  0  0  0  0  0  0  0  0  0
   -4.8981   38.5644   -6.5896 C   0  0  0  0  0  0  0  0  0  0  0  0
   -4.3429   37.7663   -7.5573 N   0  0  0  0  0  0  0  0  0  0  0  0
   -4.4916   38.1154   -8.8712 C   0  0  0  0  0  0  0  0  0  0  0  0
   -5.1740   39.2186   -9.2084 C   0  0  0  0  0  0  0  0  0  0  0  0
   -5.7269   40.0291   -8.2184 C   0  0  0  0  0  0  0  0  0  0  0  0
   -6.4634   41.2099   -8.4385 N   0  0  0  0  0  0  0  0  0  0  0  0
   -5.1580   39.3197  -10.5544 N   0  0  0  0  0  0  0  0  0  0  0  0
   -4.4604   38.2563  -11.0460 C   0  0  0  0  0  0  0  0  0  0  0  0
   -4.0340   37.5223  -10.0099 N   0  0  0  0  0  0  0  0  0  0  0  0
   -9.2134   32.8275  -16.7282 N   0  0  0  0  0  0  0  0  0  0  0  0
   -7.9005   32.5324  -16.9164 C   0  0  0  0  0  0  0  0  0  0  0  0
   -7.0411   33.5116  -17.3286 N   0  0  0  0  0  0  0  0  0  0  0  0
   -7.4953   34.7757  -17.5439 C   0  0  0  0  0  0  0  0  0  0  0  0
   -8.7959   35.0769  -17.3548 C   0  0  0  0  0  0  0  0  0  0  0  0
   -9.6650   34.0725  -16.9387 C   0  0  0  0  0  0  0  0  0  0  0  0
  -11.0819   34.1630  -16.6952 N   0  0  0  0  0  0  0  0  0  0  0  0
   -8.9537   36.3906  -17.6448 N   0  0  0  0  0  0  0  0  0  0  0  0
   -7.7406   36.8968  -18.0082 C   0  0  0  0  0  0  0  0  0  0  0  0
   -6.8450   35.8912  -17.9397 N   0  0  0  0  0  0  0  0  0  0  0  0
  1  3  1  1  0  0  0
  1  5  2  0  0  0  0
  1  9  1  0  0  0  0
  1 18  1  0  0  0  0
  2  4  1  1  0  0  0
  2  6  2  0  0  0  0
  2 10  1  0  0  0  0
  2 17  1  0  0  0  0
  7  9  1  0  0  0  0
  8 10  1  0  0  0  0
 11  7  1  6  0  0  0
 11 13  1  0  0  0  0
 11 15  1  0  0  0  0
 12  8  1  1  0  0  0
 12 14  1  0  0  0  0
 12 16  1  0  0  0  0
 13 23  1  0  0  0  0
 14 24  1  0  0  0  0
 15 17  1  1  0  0  0
 15 19  1  0  0  0  0
 16 18  1  6  0  0  0
 16 20  1  0  0  0  0
 19 21  1  1  0  0  0
 19 23  1  0  0  0  0
 20 22  1  6  0  0  0
 20 24  1  0  0  0  0
 23 34  1  6  0  0  0
 24 44  1  1  0  0  0
 25 26  2  0  0  0  0
 25 30  1  0  0  0  0
 26 27  1  0  0  0  0
 27 28  2  0  0  0  0
 28 29  1  0  0  0  0
 28 34  1  0  0  0  0
 29 30  2  0  0  0  0
 29 32  1  0  0  0  0
 30 31  1  0  0  0  0
 32 33  2  0  0  0  0
 33 34  1  0  0  0  0
 35 36  2  0  0  0  0
 35 40  1  0  0  0  0
 36 37  1  0  0  0  0
 37 38  2  0  0  0  0
 38 39  1  0  0  0  0
 38 44  1  0  0  0  0
 39 40  2  0  0  0  0
 39 42  1  0  0  0  0
 40 41  1  0  0  0  0
 42 43  2  0  0  0  0
 43 44  1  0  0  0  0
M  CHG  2   3  -1   4  -1
M  END
>  <CHROM.1>
-131.59389501,-15.80854753,-4.91794210,36.28321691,-13.95863003,-1.90031001
0.63405207,1.38176151

>  <Name>
ligand

>  <RI>
0

>  <Rbt.Current_Directory>
/home/itssahil/PROJECTS/Mol_Feturizer/New_Systems/rnas/4QLM

>  <Rbt.Executable>
rbdock ($Id: //depot/dev/client3/rdock/2013.1/src/exe/rbdock.cxx#4 $)

>  <Rbt.Library>
libRbt.so (2013.1, Build901 2013/11/27)

>  <Rbt.Parameter_File>
/export/apps/rDock/src/rDock_2013.1_src/data/scripts/dock_solv.prm

>  <Rbt.Receptor>
prm/pocket_docking_8.prm

>  <SCORE>
-15.0668

>  <SCORE.INTER>
-15.545

>  <SCORE.INTER.CONST>
1

>  <SCORE.INTER.POLAR>
0

>  <SCORE.INTER.ROT>
2

>  <SCORE.INTER.SOLV>
22.4764

>  <SCORE.INTER.VDW>
-22.7888

>  <SCORE.INTER.norm>
-0.353296

>  <SCORE.INTRA>
0.478204

>  <SCORE.INTRA.DIHEDRAL>
0.0261536

>  <SCORE.INTRA.DIHEDRAL.0>
2.32994

>  <SCORE.INTRA.POLAR>
0

>  <SCORE.INTRA.POLAR.0>
0

>  <SCORE.INTRA.REPUL>
0

>  <SCORE.INTRA.REPUL.0>
0

>  <SCORE.INTRA.SOLV>
0.0785664

>  <SCORE.INTRA.SOLV.lig_0>
-117.703

>  <SCORE.INTRA.VDW>
0.425844

>  <SCORE.INTRA.VDW.0>
-1.59997

>  <SCORE.INTRA.norm>
0.0108683

>  <SCORE.RESTR>
0

>  <SCORE.RESTR.CAVITY>
0

>  <SCORE.RESTR.norm>
0

>  <SCORE.SYSTEM>
0

>  <SCORE.SYSTEM.CONST>
0

>  <SCORE.SYSTEM.DIHEDRAL>
0

>  <SCORE.SYSTEM.SOLV>
0

>  <SCORE.SYSTEM.norm>
0

>  <SCORE.heavy>
44

>  <SCORE.norm>
-0.342428

>  <RMSD>
8.037

$$$$
ligand
 OpenBabel11021811513D
libRbt.so/2013.1/901 2013/11/27
 44 50  0  0  0  0  0  0  0  0999 V2000
  -12.0711   37.3183  -16.6995 P   0  0  2  0  0  0  0  0  0  0  0  0
  -10.3655   32.3489  -15.4341 P   0  0  1  0  0  0  0  0  0  0  0  0
  -11.1963   38.5612  -16.8423 O   0  5  0  0  0  0  0  0  0  0  0  0
  -11.3790   31.8320  -14.4423 O   0  5  0  0  0  0  0  0  0  0  0  0
  -13.4489   37.8152  -16.3330 O   0  0  0  0  0  0  0  0  0  0  0  0
   -9.5078   31.1452  -15.8865 O   0  0  0  0  0  0  0  0  0  0  0  0
   -9.9631   36.6125  -15.4750 C   0  0  0  0  0  0  0  0  0  0  0  0
  -10.4338   33.8108  -17.5617 C   0  0  0  0  0  0  0  0  0  0  0  0
  -11.3857   36.4671  -15.5822 O   0  0  0  0  0  0  0  0  0  0  0  0
  -11.2577   33.1404  -16.5665 O   0  0  0  0  0  0  0  0  0  0  0  0
   -9.4342   35.7675  -14.3210 C   0  0  1  0  0  0  0  0  0  0  0  0
  -11.4279   34.3931  -18.6360 C   0  0  1  0  0  0  0  0  0  0  0  0
   -9.5556   36.4549  -13.2278 O   0  0  0  0  0  0  0  0  0  0  0  0
  -12.1707   33.4169  -18.9665 O   0  0  0  0  0  0  0  0  0  0  0  0
  -10.2098   34.4866  -14.1157 C   0  0  1  0  0  0  0  0  0  0  0  0
  -12.4278   35.3723  -17.9891 C   0  0  1  0  0  0  0  0  0  0  0  0
   -9.4823   33.4946  -14.6946 O   0  0  0  0  0  0  0  0  0  0  0  0
  -12.0809   36.6451  -18.2162 O   0  0  0  0  0  0  0  0  0  0  0  0
  -10.2261   34.3116  -12.5571 C   0  0  1  0  0  0  0  0  0  0  0  0
  -13.8178   35.0566  -18.5871 C   0  0  1  0  0  0  0  0  0  0  0  0
   -9.2123   33.3035  -12.1455 O   0  0  0  0  0  0  0  0  0  0  0  0
  -14.1817   36.0678  -19.6312 O   0  0  0  0  0  0  0  0  0  0  0  0
   -9.9598   35.4727  -12.0507 C   0  0  2  0  0  0  0  0  0  0  0  0
  -13.6880   33.8974  -19.1353 C   0  0  2  0  0  0  0  0  0  0  0  0
  -15.1982   35.9461  -10.9756 N   0  0  0  0  0  0  0  0  0  0  0  0
  -14.6519   35.1357  -11.9253 C   0  0  0  0  0  0  0  0  0  0  0  0
  -13.2953   35.0859  -12.1216 N   0  0  0  0  0  0  0  0  0  0  0  0
  -12.4837   35.8687  -11.3479 C   0  0  0  0  0  0  0  0  0  0  0  0
  -13.0067   36.6762  -10.4148 C   0  0  0  0  0  0  0  0  0  0  0  0
  -14.3857   36.7138  -10.2154 C   0  0  0  0  0  0  0  0  0  0  0  0
  -15.0588   37.5150   -9.2720 N   0  0  0  0  0  0  0  0  0  0  0  0
  -11.9880   37.3201   -9.8066 N   0  0  0  0  0  0  0  0  0  0  0  0
  -10.8250   36.9034  -10.3838 C   0  0  0  0  0  0  0  0  0  0  0  0
  -11.1268   35.9962  -11.3219 N   0  0  0  0  0  0  0  0  0  0  0  0
  -15.4188   31.5040  -14.8463 N   0  0  0  0  0  0  0  0  0  0  0  0
  -14.4892   32.4931  -14.9079 C   0  0  0  0  0  0  0  0  0  0  0  0
  -14.1374   33.0139  -16.1213 N   0  0  0  0  0  0  0  0  0  0  0  0
  -14.7179   32.5494  -17.2605 C   0  0  0  0  0  0  0  0  0  0  0  0
  -15.6444   31.5712  -17.2066 C   0  0  0  0  0  0  0  0  0  0  0  0
  -15.9939   31.0437  -15.9669 C   0  0  0  0  0  0  0  0  0  0  0  0
  -16.9351   29.9923  -15.6778 N   0  0  0  0  0  0  0  0  0  0  0  0
  -16.0378   31.3154  -18.4774 N   0  0  0  0  0  0  0  0  0  0  0  0
  -15.3513   32.1465  -19.3127 C   0  0  0  0  0  0  0  0  0  0  0  0
  -14.5401   32.9075  -18.5505 N   0  0  0  0  0  0  0  0  0  0  0  0
  1  3  1  6  0  0  0
  1  5  2  0  0  0  0
  1  9  1  0  0  0  0
  1 18  1  0  0  0  0
  2  4  1  1  0  0  0
  2  6  2  0  0  0  0
  2 10  1  0  0  0  0
  2 17  1  0  0  0  0
  7  9  1  0  0  0  0
  8 10  1  0  0  0  0
 11  7  1  6  0  0  0
 11 13  1  0  0  0  0
 11 15  1  0  0  0  0
 12  8  1  1  0  0  0
 12 14  1  0  0  0  0
 12 16  1  0  0  0  0
 13 23  1  0  0  0  0
 14 24  1  0  0  0  0
 15 17  1  6  0  0  0
 15 19  1  0  0  0  0
 16 18  1  6  0  0  0
 16 20  1  0  0  0  0
 19 21  1  6  0  0  0
 19 23  1  0  0  0  0
 20 22  1  6  0  0  0
 20 24  1  0  0  0  0
 23 34  1  6  0  0  0
 24 44  1  1  0  0  0
 25 26  2  0  0  0  0
 25 30  1  0  0  0  0
 26 27  1  0  0  0  0
 27 28  2  0  0  0  0
 28 29  1  0  0  0  0
 28 34  1  0  0  0  0
 29 30  2  0  0  0  0
 29 32  1  0  0  0  0
 30 31  1  0  0  0  0
 32 33  2  0  0  0  0
 33 34  1  0  0  0  0
 35 36  2  0  0  0  0
 35 40  1  0  0  0  0
 36 37  1  0  0  0  0
 37 38  2  0  0  0  0
 38 39  1  0  0  0  0
 38 44  1  0  0  0  0
 39 40  2  0  0  0  0
 39 42  1  0  0  0  0
 40 41  1  0  0  0  0
 42 43  2  0  0  0  0
 43 44  1  0  0  0  0
M  CHG  2   3  -1   4  -1
M  END
>  <CHROM.1>
93.37422995,68.81268732,-12.43860284,34.55806552,-15.14382531,-1.92174263
0.64388089,1.32517453

>  <Name>
ligand

>  <RI>
0

>  <Rbt.Current_Directory>
/home/itssahil/PROJECTS/Mol_Feturizer/New_Systems/rnas/4QLM

>  <Rbt.Executable>
rbdock ($Id: //depot/dev/client3/rdock/2013.1/src/exe/rbdock.cxx#4 $)

>  <Rbt.Library>
libRbt.so (2013.1, Build901 2013/11/27)

>  <Rbt.Parameter_File>
/export/apps/rDock/src/rDock_2013.1_src/data/scripts/dock_solv.prm

>  <Rbt.Receptor>
prm/pocket_docking_8.prm

>  <SCORE>
-14.1111

>  <SCORE.INTER>
-12.5384

>  <SCORE.INTER.CONST>
1

>  <SCORE.INTER.POLAR>
0

>  <SCORE.INTER.ROT>
2

>  <SCORE.INTER.SOLV>
19.8077

>  <SCORE.INTER.VDW>
-19.8948

>  <SCORE.INTER.norm>
-0.284964

>  <SCORE.INTRA>
-1.57264

>  <SCORE.INTRA.DIHEDRAL>
-0.0262146

>  <SCORE.INTRA.DIHEDRAL.0>
2.32994

>  <SCORE.INTRA.POLAR>
0

>  <SCORE.INTRA.POLAR.0>
0

>  <SCORE.INTRA.REPUL>
0

>  <SCORE.INTRA.REPUL.0>
0

>  <SCORE.INTRA.SOLV>
0.58417

>  <SCORE.INTRA.SOLV.lig_0>
-117.703

>  <SCORE.INTRA.VDW>
-1.85162

>  <SCORE.INTRA.VDW.0>
-1.59997

>  <SCORE.INTRA.norm>
-0.0357418

>  <SCORE.RESTR>
0

>  <SCORE.RESTR.CAVITY>
0

>  <SCORE.RESTR.norm>
0

>  <SCORE.SYSTEM>
0

>  <SCORE.SYSTEM.CONST>
0

>  <SCORE.SYSTEM.DIHEDRAL>
0

>  <SCORE.SYSTEM.SOLV>
0

>  <SCORE.SYSTEM.norm>
0

>  <SCORE.heavy>
44

>  <SCORE.norm>
-0.320706

>  <RMSD>
8.963

$$$$
ligand
 OpenBabel11021811513D
libRbt.so/2013.1/901 2013/11/27
 44 50  0  0  0  0  0  0  0  0999 V2000
    2.5029   38.2020  -12.3884 P   0  0  2  0  0  0  0  0  0  0  0  0
    1.7825   32.8590  -12.7613 P   0  0  1  0  0  0  0  0  0  0  0  0
    1.9117   39.1177  -11.3195 O   0  5  0  0  0  0  0  0  0  0  0  0
    1.5520   32.6006  -14.2304 O   0  5  0  0  0  0  0  0  0  0  0  0
    2.7375   39.0703  -13.6011 O   0  0  0  0  0  0  0  0  0  0  0  0
    2.0362   31.4916  -12.0869 O   0  0  0  0  0  0  0  0  0  0  0  0
    0.6221   36.7716  -11.4623 C   0  0  0  0  0  0  0  0  0  0  0  0
    3.2701   34.4468  -11.3705 C   0  0  0  0  0  0  0  0  0  0  0  0
    1.4295   37.0868  -12.6047 O   0  0  0  0  0  0  0  0  0  0  0  0
    2.9819   33.9837  -12.7200 O   0  0  0  0  0  0  0  0  0  0  0  0
   -0.4086   35.7078  -11.8249 C   0  0  1  0  0  0  0  0  0  0  0  0
    4.5184   35.4002  -11.4898 C   0  0  1  0  0  0  0  0  0  0  0  0
   -1.4360   36.3020  -12.3482 O   0  0  0  0  0  0  0  0  0  0  0  0
    5.3837   34.7365  -12.1416 O   0  0  0  0  0  0  0  0  0  0  0  0
    0.0911   34.7199  -12.8538 C   0  0  1  0  0  0  0  0  0  0  0  0
    4.2214   36.5828  -12.4333 C   0  0  1  0  0  0  0  0  0  0  0  0
    0.4644   33.6042  -12.1724 O   0  0  0  0  0  0  0  0  0  0  0  0
    3.9478   37.6986  -11.7462 O   0  0  0  0  0  0  0  0  0  0  0  0
   -1.1775   34.4252  -13.7280 C   0  0  1  0  0  0  0  0  0  0  0  0
    5.4681   36.7689  -13.3280 C   0  0  1  0  0  0  0  0  0  0  0  0
   -1.7750   33.1198  -13.3377 O   0  0  0  0  0  0  0  0  0  0  0  0
    6.2877   37.9291  -12.8511 O   0  0  0  0  0  0  0  0  0  0  0  0
   -2.0062   35.3974  -13.5186 C   0  0  2  0  0  0  0  0  0  0  0  0
    6.1416   35.6788  -13.1901 C   0  0  2  0  0  0  0  0  0  0  0  0
   -2.7859   36.0933  -18.7845 N   0  0  0  0  0  0  0  0  0  0  0  0
   -2.7299   34.8932  -18.1412 C   0  0  0  0  0  0  0  0  0  0  0  0
   -2.5269   34.8224  -16.7865 N   0  0  0  0  0  0  0  0  0  0  0  0
   -2.3763   35.9815  -16.0765 C   0  0  0  0  0  0  0  0  0  0  0  0
   -2.4218   37.1690  -16.6963 C   0  0  0  0  0  0  0  0  0  0  0  0
   -2.6379   37.2324  -18.0718 C   0  0  0  0  0  0  0  0  0  0  0  0
   -2.7071   38.4115  -18.8399 N   0  0  0  0  0  0  0  0  0  0  0  0
   -2.2504   38.1294  -15.7633 N   0  0  0  0  0  0  0  0  0  0  0  0
   -2.0906   37.5166  -14.5557 C   0  0  0  0  0  0  0  0  0  0  0  0
   -2.1852   36.1938  -14.7437 N   0  0  0  0  0  0  0  0  0  0  0  0
    4.0406   34.0808  -17.6792 N   0  0  0  0  0  0  0  0  0  0  0  0
    3.4355   34.8241  -16.7160 C   0  0  0  0  0  0  0  0  0  0  0  0
    4.1276   35.1558  -15.5854 N   0  0  0  0  0  0  0  0  0  0  0  0
    5.4162   34.7497  -15.4269 C   0  0  0  0  0  0  0  0  0  0  0  0
    6.0245   34.0157  -16.3806 C   0  0  0  0  0  0  0  0  0  0  0  0
    5.3109   33.6790  -17.5272 C   0  0  0  0  0  0  0  0  0  0  0  0
    5.7499   32.8954  -18.6534 N   0  0  0  0  0  0  0  0  0  0  0  0
    7.2839   33.7594  -15.9527 N   0  0  0  0  0  0  0  0  0  0  0  0
    7.4481   34.3451  -14.7321 C   0  0  0  0  0  0  0  0  0  0  0  0
    6.2888   34.9574  -14.4173 N   0  0  0  0  0  0  0  0  0  0  0  0
  1  3  1  1  0  0  0
  1  5  2  0  0  0  0
  1  9  1  0  0  0  0
  1 18  1  0  0  0  0
  2  4  1  6  0  0  0
  2  6  2  0  0  0  0
  2 10  1  0  0  0  0
  2 17  1  0  0  0  0
  7  9  1  0  0  0  0
  8 10  1  0  0  0  0
 11  7  1  6  0  0  0
 11 13  1  0  0  0  0
 11 15  1  0  0  0  0
 12  8  1  6  0  0  0
 12 14  1  0  0  0  0
 12 16  1  0  0  0  0
 13 23  1  0  0  0  0
 14 24  1  0  0  0  0
 15 17  1  1  0  0  0
 15 19  1  0  0  0  0
 16 18  1  1  0  0  0
 16 20  1  0  0  0  0
 19 21  1  1  0  0  0
 19 23  1  0  0  0  0
 20 22  1  1  0  0  0
 20 24  1  0  0  0  0
 23 34  1  6  0  0  0
 24 44  1  6  0  0  0
 25 26  2  0  0  0  0
 25 30  1  0  0  0  0
 26 27  1  0  0  0  0
 27 28  2  0  0  0  0
 28 29  1  0  0  0  0
 28 34  1  0  0  0  0
 29 30  2  0  0  0  0
 29 32  1  0  0  0  0
 30 31  1  0  0  0  0
 32 33  2  0  0  0  0
 33 34  1  0  0  0  0
 35 36  2  0  0  0  0
 35 40  1  0  0  0  0
 36 37  1  0  0  0  0
 37 38  2  0  0  0  0
 38 39  1  0  0  0  0
 38 44  1  0  0  0  0
 39 40  2  0  0  0  0
 39 42  1  0  0  0  0
 40 41  1  0  0  0  0
 42 43  2  0  0  0  0
 43 44  1  0  0  0  0
M  CHG  2   3  -1   4  -1
M  END
>  <CHROM.1>
164.35366903,81.10201948,1.87261410,35.51784318,-14.18194707,0.16352204,-0.22642981
1.20581834

>  <Name>
ligand

>  <RI>
0

>  <Rbt.Current_Directory>
/home/itssahil/PROJECTS/Mol_Feturizer/New_Systems/rnas/4QLM

>  <Rbt.Executable>
rbdock ($Id: //depot/dev/client3/rdock/2013.1/src/exe/rbdock.cxx#4 $)

>  <Rbt.Library>
libRbt.so (2013.1, Build901 2013/11/27)

>  <Rbt.Parameter_File>
/export/apps/rDock/src/rDock_2013.1_src/data/scripts/dock_solv.prm

>  <Rbt.Receptor>
prm/blind_docking_80.prm

>  <SCORE>
42.965

>  <SCORE.INTER>
37.1056

>  <SCORE.INTER.CONST>
1

>  <SCORE.INTER.POLAR>
0

>  <SCORE.INTER.ROT>
2

>  <SCORE.INTER.SOLV>
58.9586

>  <SCORE.INTER.VDW>
0.150886

>  <SCORE.INTER.norm>
0.84331

>  <SCORE.INTRA>
-0.297684

>  <SCORE.INTRA.DIHEDRAL>
0.14966

>  <SCORE.INTRA.DIHEDRAL.0>
2.32994

>  <SCORE.INTRA.POLAR>
0

>  <SCORE.INTRA.POLAR.0>
0

>  <SCORE.INTRA.REPUL>
0

>  <SCORE.INTRA.REPUL.0>
0

>  <SCORE.INTRA.SOLV>
0.181967

>  <SCORE.INTRA.SOLV.lig_0>
-117.703

>  <SCORE.INTRA.VDW>
-0.463498

>  <SCORE.INTRA.VDW.0>
-1.59997

>  <SCORE.INTRA.norm>
-0.00676555

>  <SCORE.RESTR>
6.15706

>  <SCORE.RESTR.CAVITY>
6.15706

>  <SCORE.RESTR.norm>
0.139933

>  <SCORE.SYSTEM>
0

>  <SCORE.SYSTEM.CONST>
0

>  <SCORE.SYSTEM.DIHEDRAL>
0

>  <SCORE.SYSTEM.SOLV>
0

>  <SCORE.SYSTEM.norm>
0

>  <SCORE.heavy>
44

>  <SCORE.norm>
0.976478

>  <RMSD>
10.213

$$$$
ligand
 OpenBabel11021811513D
libRbt.so/2013.1/901 2013/11/27
 44 50  0  0  0  0  0  0  0  0999 V2000
    2.4931   38.2147  -12.3923 P   0  0  2  0  0  0  0  0  0  0  0  0
    1.7857   32.8700  -12.7646 P   0  0  1  0  0  0  0  0  0  0  0  0
    1.8909   39.1307  -11.3298 O   0  5  0  0  0  0  0  0  0  0  0  0
    1.5686   32.6093  -14.2353 O   0  5  0  0  0  0  0  0  0  0  0  0
    2.7367   39.0819  -13.6040 O   0  0  0  0  0  0  0  0  0  0  0  0
    2.0360   31.5039  -12.0862 O   0  0  0  0  0  0  0  0  0  0  0  0
    0.6068   36.7821  -11.4808 C   0  0  0  0  0  0  0  0  0  0  0  0
    3.2582   34.4622  -11.3628 C   0  0  0  0  0  0  0  0  0  0  0  0
    1.4237   37.0972  -12.6165 O   0  0  0  0  0  0  0  0  0  0  0  0
    2.9826   33.9968  -12.7142 O   0  0  0  0  0  0  0  0  0  0  0  0
   -0.4187   35.7159  -11.8511 C   0  0  1  0  0  0  0  0  0  0  0  0
    4.5058   35.4178  -11.4724 C   0  0  1  0  0  0  0  0  0  0  0  0
   -1.4425   36.3076  -12.3841 O   0  0  0  0  0  0  0  0  0  0  0  0
    5.3779   34.7548  -12.1158 O   0  0  0  0  0  0  0  0  0  0  0  0
    0.0918   34.7276  -12.8743 C   0  0  1  0  0  0  0  0  0  0  0  0
    4.2149   36.5986  -12.4200 C   0  0  1  0  0  0  0  0  0  0  0  0
    0.4611   33.6134  -12.1883 O   0  0  0  0  0  0  0  0  0  0  0  0
    3.9332   37.7147  -11.7368 O   0  0  0  0  0  0  0  0  0  0  0  0
   -1.1685   34.4295  -13.7592 C   0  0  1  0  0  0  0  0  0  0  0  0
    5.4690   36.7858  -13.3040 C   0  0  1  0  0  0  0  0  0  0  0  0
   -1.7671   33.1235  -13.3725 O   0  0  0  0  0  0  0  0  0  0  0  0
    6.2823   37.9481  -12.8214 O   0  0  0  0  0  0  0  0  0  0  0  0
   -2.0008   35.4004  -13.5583 C   0  0  2  0  0  0  0  0  0  0  0  0
    6.1433   35.6971  -13.1588 C   0  0  2  0  0  0  0  0  0  0  0  0
   -2.7729   36.0885  -18.8263 N   0  0  0  0  0  0  0  0  0  0  0  0
   -2.7311   34.8900  -18.1792 C   0  0  0  0  0  0  0  0  0  0  0  0
   -2.5287   34.8211  -16.8242 N   0  0  0  0  0  0  0  0  0  0  0  0
   -2.3643   35.9806  -16.1180 C   0  0  0  0  0  0  0  0  0  0  0  0
   -2.3958   37.1665  -16.7416 C   0  0  0  0  0  0  0  0  0  0  0  0
   -2.6113   37.2281  -18.1173 C   0  0  0  0  0  0  0  0  0  0  0  0
   -2.6667   38.4054  -18.8892 N   0  0  0  0  0  0  0  0  0  0  0  0
   -2.2129   38.1279  -15.8118 N   0  0  0  0  0  0  0  0  0  0  0  0
   -2.0602   37.5171  -14.6023 C   0  0  0  0  0  0  0  0  0  0  0  0
   -2.1705   36.1949  -14.7860 N   0  0  0  0  0  0  0  0  0  0  0  0
    4.0695   34.0506  -17.6430 N   0  0  0  0  0  0  0  0  0  0  0  0
    3.4521   34.7868  -16.6821 C   0  0  0  0  0  0  0  0  0  0  0  0
    4.1385   35.1334  -15.5525 N   0  0  0  0  0  0  0  0  0  0  0  0
    5.4336   34.7491  -15.3927 C   0  0  0  0  0  0  0  0  0  0  0  0
    6.0540   34.0224  -16.3441 C   0  0  0  0  0  0  0  0  0  0  0  0
    5.3463   33.6704  -17.4897 C   0  0  0  0  0  0  0  0  0  0  0  0
    5.7983   32.8907  -18.6134 N   0  0  0  0  0  0  0  0  0  0  0  0
    7.3175   33.7883  -15.9153 N   0  0  0  0  0  0  0  0  0  0  0  0
    7.4719   34.3805  -14.6966 C   0  0  0  0  0  0  0  0  0  0  0  0
    6.3025   34.9744  -14.3837 N   0  0  0  0  0  0  0  0  0  0  0  0
  1  3  1  1  0  0  0
  1  5  2  0  0  0  0
  1  9  1  0  0  0  0
  1 18  1  0  0  0  0
  2  4  1  6  0  0  0
  2  6  2  0  0  0  0
  2 10  1  0  0  0  0
  2 17  1  0  0  0  0
  7  9  1  0  0  0  0
  8 10  1  0  0  0  0
 11  7  1  6  0  0  0
 11 13  1  0  0  0  0
 11 15  1  0  0  0  0
 12  8  1  6  0  0  0
 12 14  1  0  0  0  0
 12 16  1  0  0  0  0
 13 23  1  0  0  0  0
 14 24  1  0  0  0  0
 15 17  1  1  0  0  0
 15 19  1  0  0  0  0
 16 18  1  1  0  0  0
 16 20  1  0  0  0  0
 19 21  1  1  0  0  0
 19 23  1  0  0  0  0
 20 22  1  1  0  0  0
 20 24  1  0  0  0  0
 23 34  1  6  0  0  0
 24 44  1  6  0  0  0
 25 26  2  0  0  0  0
 25 30  1  0  0  0  0
 26 27  1  0  0  0  0
 27 28  2  0  0  0  0
 28 29  1  0  0  0  0
 28 34  1  0  0  0  0
 29 30  2  0  0  0  0
 29 32  1  0  0  0  0
 30 31  1  0  0  0  0
 32 33  2  0  0  0  0
 33 34  1  0  0  0  0
 35 36  2  0  0  0  0
 35 40  1  0  0  0  0
 36 37  1  0  0  0  0
 37 38  2  0  0  0  0
 38 39  1  0  0  0  0
 38 44  1  0  0  0  0
 39 40  2  0  0  0  0
 39 42  1  0  0  0  0
 40 41  1  0  0  0  0
 42 43  2  0  0  0  0
 43 44  1  0  0  0  0
M  CHG  2   3  -1   4  -1
M  END
>  <CHROM.1>
165.29556661,80.11703847,1.87974814,35.52407343,-14.18587565,0.17168248,-0.22946513
1.19792196

>  <Name>
ligand

>  <RI>
0

>  <Rbt.Current_Directory>
/home/itssahil/PROJECTS/Mol_Feturizer/New_Systems/rnas/4QLM

>  <Rbt.Executable>
rbdock ($Id: //depot/dev/client3/rdock/2013.1/src/exe/rbdock.cxx#4 $)

>  <Rbt.Library>
libRbt.so (2013.1, Build901 2013/11/27)

>  <Rbt.Parameter_File>
/export/apps/rDock/src/rDock_2013.1_src/data/scripts/dock_solv.prm

>  <Rbt.Receptor>
prm/blind_docking_80.prm

>  <SCORE>
43.2554

>  <SCORE.INTER>
37.4667

>  <SCORE.INTER.CONST>
1

>  <SCORE.INTER.POLAR>
0

>  <SCORE.INTER.ROT>
2

>  <SCORE.INTER.SOLV>
59.0589

>  <SCORE.INTER.VDW>
0.358192

>  <SCORE.INTER.norm>
0.851516

>  <SCORE.INTRA>
-0.304882

>  <SCORE.INTRA.DIHEDRAL>
0.145469

>  <SCORE.INTRA.DIHEDRAL.0>
2.32994

>  <SCORE.INTRA.POLAR>
0

>  <SCORE.INTRA.POLAR.0>
0

>  <SCORE.INTRA.REPUL>
0

>  <SCORE.INTRA.REPUL.0>
0

>  <SCORE.INTRA.SOLV>
0.208719

>  <SCORE.INTRA.SOLV.lig_0>
-117.703

>  <SCORE.INTRA.VDW>
-0.481975

>  <SCORE.INTRA.VDW.0>
-1.59997

>  <SCORE.INTRA.norm>
-0.00692913

>  <SCORE.RESTR>
6.09355

>  <SCORE.RESTR.CAVITY>
6.09355

>  <SCORE.RESTR.norm>
0.13849

>  <SCORE.SYSTEM>
0

>  <SCORE.SYSTEM.CONST>
0

>  <SCORE.SYSTEM.DIHEDRAL>
0

>  <SCORE.SYSTEM.SOLV>
0

>  <SCORE.SYSTEM.norm>
0

>  <SCORE.heavy>
44

>  <SCORE.norm>
0.983077

>  <RMSD>
10.224

$$$$
ligand
 OpenBabel11021811513D
libRbt.so/2013.1/901 2013/11/27
 44 50  0  0  0  0  0  0  0  0999 V2000
    2.4960   38.2202  -12.3993 P   0  0  2  0  0  0  0  0  0  0  0  0
    1.7832   32.8758  -12.7664 P   0  0  1  0  0  0  0  0  0  0  0  0
    1.8945   39.1379  -11.3379 O   0  5  0  0  0  0  0  0  0  0  0  0
    1.5662   32.6139  -14.2369 O   0  5  0  0  0  0  0  0  0  0  0  0
    2.7409   39.0859  -13.6118 O   0  0  0  0  0  0  0  0  0  0  0  0
    2.0318   31.5102  -12.0866 O   0  0  0  0  0  0  0  0  0  0  0  0
    0.6081   36.7905  -11.4869 C   0  0  0  0  0  0  0  0  0  0  0  0
    3.2570   34.4680  -11.3658 C   0  0  0  0  0  0  0  0  0  0  0  0
    1.4256   37.1036  -12.6226 O   0  0  0  0  0  0  0  0  0  0  0  0
    2.9813   34.0015  -12.7168 O   0  0  0  0  0  0  0  0  0  0  0  0
   -0.4185   35.7250  -11.8564 C   0  0  1  0  0  0  0  0  0  0  0  0
    4.5056   35.4221  -11.4761 C   0  0  1  0  0  0  0  0  0  0  0  0
   -1.4415   36.3172  -12.3903 O   0  0  0  0  0  0  0  0  0  0  0  0
    5.3772   34.7576  -12.1185 O   0  0  0  0  0  0  0  0  0  0  0  0
    0.0912   34.7351  -12.8784 C   0  0  1  0  0  0  0  0  0  0  0  0
    4.2162   36.6023  -12.4249 C   0  0  1  0  0  0  0  0  0  0  0  0
    0.4592   33.6213  -12.1912 O   0  0  0  0  0  0  0  0  0  0  0  0
    3.9354   37.7194  -11.7429 O   0  0  0  0  0  0  0  0  0  0  0  0
   -1.1691   34.4374  -13.7634 C   0  0  1  0  0  0  0  0  0  0  0  0
    5.4707   36.7873  -13.3087 C   0  0  1  0  0  0  0  0  0  0  0  0
   -1.7692   33.1325  -13.3755 O   0  0  0  0  0  0  0  0  0  0  0  0
    6.2851   37.9493  -12.8271 O   0  0  0  0  0  0  0  0  0  0  0  0
   -2.0005   35.4094  -13.5637 C   0  0  2  0  0  0  0  0  0  0  0  0
    6.1438   35.6980  -13.1622 C   0  0  2  0  0  0  0  0  0  0  0  0
   -2.7870   36.0934  -18.8301 N   0  0  0  0  0  0  0  0  0  0  0  0
   -2.7514   34.8957  -18.1809 C   0  0  0  0  0  0  0  0  0  0  0  0
   -2.5446   34.8279  -16.8266 N   0  0  0  0  0  0  0  0  0  0  0  0
   -2.3692   35.9875  -16.1232 C   0  0  0  0  0  0  0  0  0  0  0  0
   -2.3945   37.1725  -16.7489 C   0  0  0  0  0  0  0  0  0  0  0  0
   -2.6147   37.2331  -18.1238 C   0  0  0  0  0  0  0  0  0  0  0  0
   -2.6644   38.4094  -18.8977 N   0  0  0  0  0  0  0  0  0  0  0  0
   -2.2013   38.1342  -15.8215 N   0  0  0  0  0  0  0  0  0  0  0  0
   -2.0486   37.5246  -14.6114 C   0  0  0  0  0  0  0  0  0  0  0  0
   -2.1690   36.2029  -14.7922 N   0  0  0  0  0  0  0  0  0  0  0  0
    4.0660   34.0397  -17.6402 N   0  0  0  0  0  0  0  0  0  0  0  0
    3.4485   34.7757  -16.6793 C   0  0  0  0  0  0  0  0  0  0  0  0
    4.1361   35.1258  -15.5515 N   0  0  0  0  0  0  0  0  0  0  0  0
    5.4325   34.7450  -15.3934 C   0  0  0  0  0  0  0  0  0  0  0  0
    6.0530   34.0184  -16.3449 C   0  0  0  0  0  0  0  0  0  0  0  0
    5.3440   33.6629  -17.4887 C   0  0  0  0  0  0  0  0  0  0  0  0
    5.7959   32.8827  -18.6121 N   0  0  0  0  0  0  0  0  0  0  0  0
    7.3178   33.7881  -15.9181 N   0  0  0  0  0  0  0  0  0  0  0  0
    7.4729   34.3825  -14.7005 C   0  0  0  0  0  0  0  0  0  0  0  0
    6.3026   34.9739  -14.3864 N   0  0  0  0  0  0  0  0  0  0  0  0
  1  3  1  1  0  0  0
  1  5  2  0  0  0  0
  1  9  1  0  0  0  0
  1 18  1  0  0  0  0
  2  4  1  6  0  0  0
  2  6  2  0  0  0  0
  2 10  1  0  0  0  0
  2 17  1  0  0  0  0
  7  9  1  0  0  0  0
  8 10  1  0  0  0  0
 11  7  1  6  0  0  0
 11 13  1  0  0  0  0
 11 15  1  0  0  0  0
 12  8  1  6  0  0  0
 12 14  1  0  0  0  0
 12 16  1  0  0  0  0
 13 23  1  0  0  0  0
 14 24  1  0  0  0  0
 15 17  1  1  0  0  0
 15 19  1  0  0  0  0
 16 18  1  1  0  0  0
 16 20  1  0  0  0  0
 19 21  1  1  0  0  0
 19 23  1  0  0  0  0
 20 22  1  1  0  0  0
 20 24  1  0  0  0  0
 23 34  1  6  0  0  0
 24 44  1  6  0  0  0
 25 26  2  0  0  0  0
 25 30  1  0  0  0  0
 26 27  1  0  0  0  0
 27 28  2  0  0  0  0
 28 29  1  0  0  0  0
 28 34  1  0  0  0  0
 29 30  2  0  0  0  0
 29 32  1  0  0  0  0
 30 31  1  0  0  0  0
 32 33  2  0  0  0  0
 33 34  1  0  0  0  0
 35 36  2  0  0  0  0
 35 40  1  0  0  0  0
 36 37  1  0  0  0  0
 37 38  2  0  0  0  0
 38 39  1  0  0  0  0
 38 44  1  0  0  0  0
 39 40  2  0  0  0  0
 39 42  1  0  0  0  0
 40 41  1  0  0  0  0
 42 43  2  0  0  0  0
 43 44  1  0  0  0  0
M  CHG  2   3  -1   4  -1
M  END
>  <CHROM.1>
165.71573107,79.87757744,1.87899237,35.52768020,-14.18978185,0.17139653,-0.23086996
1.19450636

>  <Name>
ligand

>  <RI>
0

>  <Rbt.Current_Directory>
/home/itssahil/PROJECTS/Mol_Feturizer/New_Systems/rnas/4QLM

>  <Rbt.Executable>
rbdock ($Id: //depot/dev/client3/rdock/2013.1/src/exe/rbdock.cxx#4 $)

>  <Rbt.Library>
libRbt.so (2013.1, Build901 2013/11/27)

>  <Rbt.Parameter_File>
/export/apps/rDock/src/rDock_2013.1_src/data/scripts/dock_solv.prm

>  <Rbt.Receptor>
prm/blind_docking_80.prm

>  <SCORE>
43.2478

>  <SCORE.INTER>
37.4696

>  <SCORE.INTER.CONST>
1

>  <SCORE.INTER.POLAR>
0

>  <SCORE.INTER.ROT>
2

>  <SCORE.INTER.SOLV>
59.0881

>  <SCORE.INTER.VDW>
0.35037

>  <SCORE.INTER.norm>
0.851582

>  <SCORE.INTRA>
-0.310442

>  <SCORE.INTRA.DIHEDRAL>
0.143597

>  <SCORE.INTRA.DIHEDRAL.0>
2.32994

>  <SCORE.INTRA.POLAR>
0

>  <SCORE.INTRA.POLAR.0>
0

>  <SCORE.INTRA.REPUL>
0

>  <SCORE.INTRA.REPUL.0>
0

>  <SCORE.INTRA.SOLV>
0.215235

>  <SCORE.INTRA.SOLV.lig_0>
-117.703

>  <SCORE.INTRA.VDW>
-0.489858

>  <SCORE.INTRA.VDW.0>
-1.59997

>  <SCORE.INTRA.norm>
-0.0070555

>  <SCORE.RESTR>
6.08862

>  <SCORE.RESTR.CAVITY>
6.08862

>  <SCORE.RESTR.norm>
0.138378

>  <SCORE.SYSTEM>
0

>  <SCORE.SYSTEM.CONST>
0

>  <SCORE.SYSTEM.DIHEDRAL>
0

>  <SCORE.SYSTEM.SOLV>
0

>  <SCORE.SYSTEM.norm>
0

>  <SCORE.heavy>
44

>  <SCORE.norm>
0.982904

>  <RMSD>
10.224

$$$$
ligand
 OpenBabel11021811513D
libRbt.so/2013.1/901 2013/11/27
 44 50  0  0  0  0  0  0  0  0999 V2000
    2.4982   38.2110  -12.3931 P   0  0  2  0  0  0  0  0  0  0  0  0
    1.7841   32.8666  -12.7576 P   0  0  1  0  0  0  0  0  0  0  0  0
    1.8966   39.1293  -11.3324 O   0  5  0  0  0  0  0  0  0  0  0  0
    1.5674   32.6039  -14.2281 O   0  5  0  0  0  0  0  0  0  0  0  0
    2.7438   39.0759  -13.6060 O   0  0  0  0  0  0  0  0  0  0  0  0
    2.0321   31.5012  -12.0770 O   0  0  0  0  0  0  0  0  0  0  0  0
    0.6095   36.7822  -11.4806 C   0  0  0  0  0  0  0  0  0  0  0  0
    3.2578   34.4590  -11.3574 C   0  0  0  0  0  0  0  0  0  0  0  0
    1.4275   37.0945  -12.6162 O   0  0  0  0  0  0  0  0  0  0  0  0
    2.9824   33.9919  -12.7082 O   0  0  0  0  0  0  0  0  0  0  0  0
   -0.4172   35.7168  -11.8498 C   0  0  1  0  0  0  0  0  0  0  0  0
    4.5067   35.4127  -11.4678 C   0  0  1  0  0  0  0  0  0  0  0  0
   -1.4399   36.3090  -12.3844 O   0  0  0  0  0  0  0  0  0  0  0  0
    5.3783   34.7476  -12.1096 O   0  0  0  0  0  0  0  0  0  0  0  0
    0.0926   34.7262  -12.8712 C   0  0  1  0  0  0  0  0  0  0  0  0
    4.2179   36.5925  -12.4173 C   0  0  1  0  0  0  0  0  0  0  0  0
    0.4601   33.6127  -12.1833 O   0  0  0  0  0  0  0  0  0  0  0  0
    3.9373   37.7101  -11.7360 O   0  0  0  0  0  0  0  0  0  0  0  0
   -1.1675   34.4285  -13.7564 C   0  0  1  0  0  0  0  0  0  0  0  0
    5.4728   36.7767  -13.3008 C   0  0  1  0  0  0  0  0  0  0  0  0
   -1.7681   33.1239  -13.3681 O   0  0  0  0  0  0  0  0  0  0  0  0
    6.2873   37.9387  -12.8195 O   0  0  0  0  0  0  0  0  0  0  0  0
   -1.9987   35.4007  -13.5576 C   0  0  2  0  0  0  0  0  0  0  0  0
    6.1456   35.6873  -13.1535 C   0  0  2  0  0  0  0  0  0  0  0  0
   -2.7810   36.0821  -18.8249 N   0  0  0  0  0  0  0  0  0  0  0  0
   -2.7453   34.8848  -18.1752 C   0  0  0  0  0  0  0  0  0  0  0  0
   -2.5396   34.8176  -16.8207 N   0  0  0  0  0  0  0  0  0  0  0  0
   -2.3655   35.9776  -16.1175 C   0  0  0  0  0  0  0  0  0  0  0  0
   -2.3909   37.1623  -16.7437 C   0  0  0  0  0  0  0  0  0  0  0  0
   -2.6099   37.2222  -18.1189 C   0  0  0  0  0  0  0  0  0  0  0  0
   -2.6597   38.3981  -18.8934 N   0  0  0  0  0  0  0  0  0  0  0  0
   -2.1991   38.1245  -15.8166 N   0  0  0  0  0  0  0  0  0  0  0  0
   -2.0471   37.5155  -14.6061 C   0  0  0  0  0  0  0  0  0  0  0  0
   -2.1666   36.1936  -14.7865 N   0  0  0  0  0  0  0  0  0  0  0  0
    4.0824   34.0630  -17.6508 N   0  0  0  0  0  0  0  0  0  0  0  0
    3.4672   34.8064  -16.6941 C   0  0  0  0  0  0  0  0  0  0  0  0
    4.1501   35.1456  -15.5601 N   0  0  0  0  0  0  0  0  0  0  0  0
    5.4398   34.7468  -15.3918 C   0  0  0  0  0  0  0  0  0  0  0  0
    6.0581   34.0129  -16.3390 C   0  0  0  0  0  0  0  0  0  0  0  0
    5.3538   33.6685  -17.4891 C   0  0  0  0  0  0  0  0  0  0  0  0
    5.8043   32.8834  -18.6097 N   0  0  0  0  0  0  0  0  0  0  0  0
    7.3161   33.7646  -15.9020 N   0  0  0  0  0  0  0  0  0  0  0  0
    7.4692   34.3554  -14.6824 C   0  0  0  0  0  0  0  0  0  0  0  0
    6.3046   34.9625  -14.3772 N   0  0  0  0  0  0  0  0  0  0  0  0
  1  3  1  1  0  0  0
  1  5  2  0  0  0  0
  1  9  1  0  0  0  0
  1 18  1  0  0  0  0
  2  4  1  6  0  0  0
  2  6  2  0  0  0  0
  2 10  1  0  0  0  0
  2 17  1  0  0  0  0
  7  9  1  0  0  0  0
  8 10  1  0  0  0  0
 11  7  1  6  0  0  0
 11 13  1  0  0  0  0
 11 15  1  0  0  0  0
 12  8  1  6  0  0  0
 12 14  1  0  0  0  0
 12 16  1  0  0  0  0
 13 23  1  0  0  0  0
 14 24  1  0  0  0  0
 15 17  1  1  0  0  0
 15 19  1  0  0  0  0
 16 18  1  1  0  0  0
 16 20  1  0  0  0  0
 19 21  1  1  0  0  0
 19 23  1  0  0  0  0
 20 22  1  1  0  0  0
 20 24  1  0  0  0  0
 23 34  1  6  0  0  0
 24 44  1  6  0  0  0
 25 26  2  0  0  0  0
 25 30  1  0  0  0  0
 26 27  1  0  0  0  0
 27 28  2  0  0  0  0
 28 29  1  0  0  0  0
 28 34  1  0  0  0  0
 29 30  2  0  0  0  0
 29 32  1  0  0  0  0
 30 31  1  0  0  0  0
 32 33  2  0  0  0  0
 33 34  1  0  0  0  0
 35 36  2  0  0  0  0
 35 40  1  0  0  0  0
 36 37  1  0  0  0  0
 37 38  2  0  0  0  0
 38 39  1  0  0  0  0
 38 44  1  0  0  0  0
 39 40  2  0  0  0  0
 39 42  1  0  0  0  0
 40 41  1  0  0  0  0
 42 43  2  0  0  0  0
 43 44  1  0  0  0  0
M  CHG  2   3  -1   4  -1
M  END
>  <CHROM.1>
165.65762159,80.78249136,1.88224157,35.52036466,-14.18390660,0.17284428,-0.22950732
1.20080684

>  <Name>
ligand

>  <RI>
0

>  <Rbt.Current_Directory>
/home/itssahil/PROJECTS/Mol_Feturizer/New_Systems/rnas/4QLM

>  <Rbt.Executable>
rbdock ($Id: //depot/dev/client3/rdock/2013.1/src/exe/rbdock.cxx#4 $)

>  <Rbt.Library>
libRbt.so (2013.1, Build901 2013/11/27)

>  <Rbt.Parameter_File>
/export/apps/rDock/src/rDock_2013.1_src/data/scripts/dock_solv.prm

>  <Rbt.Receptor>
prm/blind_docking_80.prm

>  <SCORE>
43.3577

>  <SCORE.INTER>
37.5752

>  <SCORE.INTER.CONST>
1

>  <SCORE.INTER.POLAR>
0

>  <SCORE.INTER.ROT>
2

>  <SCORE.INTER.SOLV>
59.1058

>  <SCORE.INTER.VDW>
0.414836

>  <SCORE.INTER.norm>
0.853981

>  <SCORE.INTRA>
-0.284496

>  <SCORE.INTRA.DIHEDRAL>
0.144102

>  <SCORE.INTRA.DIHEDRAL.0>
2.32994

>  <SCORE.INTRA.POLAR>
0

>  <SCORE.INTRA.POLAR.0>
0

>  <SCORE.INTRA.REPUL>
0

>  <SCORE.INTRA.REPUL.0>
0

>  <SCORE.INTRA.SOLV>
0.190782

>  <SCORE.INTRA.SOLV.lig_0>
-117.703

>  <SCORE.INTRA.VDW>
-0.451938

>  <SCORE.INTRA.VDW.0>
-1.59997

>  <SCORE.INTRA.norm>
-0.00646582

>  <SCORE.RESTR>
6.06702

>  <SCORE.RESTR.CAVITY>
6.06702

>  <SCORE.RESTR.norm>
0.137887

>  <SCORE.SYSTEM>
0

>  <SCORE.SYSTEM.CONST>
0

>  <SCORE.SYSTEM.DIHEDRAL>
0

>  <SCORE.SYSTEM.SOLV>
0

>  <SCORE.SYSTEM.norm>
0

>  <SCORE.heavy>
44

>  <SCORE.norm>
0.985402

>  <RMSD>
10.225

$$$$
ligand
 OpenBabel11021811513D
libRbt.so/2013.1/901 2013/11/27
 44 50  0  0  0  0  0  0  0  0999 V2000
    2.4991   38.2145  -12.3859 P   0  0  2  0  0  0  0  0  0  0  0  0
    1.7852   32.8710  -12.7648 P   0  0  1  0  0  0  0  0  0  0  0  0
    1.8983   39.1298  -11.3220 O   0  5  0  0  0  0  0  0  0  0  0  0
    1.5672   32.6125  -14.2358 O   0  5  0  0  0  0  0  0  0  0  0  0
    2.7434   39.0829  -13.5965 O   0  0  0  0  0  0  0  0  0  0  0  0
    2.0340   31.5038  -12.0883 O   0  0  0  0  0  0  0  0  0  0  0  0
    0.6114   36.7829  -11.4757 C   0  0  0  0  0  0  0  0  0  0  0  0
    3.2600   34.4597  -11.3615 C   0  0  0  0  0  0  0  0  0  0  0  0
    1.4283   37.0985  -12.6112 O   0  0  0  0  0  0  0  0  0  0  0  0
    2.9835   33.9964  -12.7134 O   0  0  0  0  0  0  0  0  0  0  0  0
   -0.4155   35.7184  -11.8470 C   0  0  1  0  0  0  0  0  0  0  0  0
    4.5087   35.4139  -11.4703 C   0  0  1  0  0  0  0  0  0  0  0  0
   -1.4388   36.3120  -12.3789 O   0  0  0  0  0  0  0  0  0  0  0  0
    5.3798   34.7507  -12.1148 O   0  0  0  0  0  0  0  0  0  0  0  0
    0.0934   34.7308  -12.8716 C   0  0  1  0  0  0  0  0  0  0  0  0
    4.2189   36.5963  -12.4163 C   0  0  1  0  0  0  0  0  0  0  0  0
    0.4617   33.6153  -12.1871 O   0  0  0  0  0  0  0  0  0  0  0  0
    3.9388   37.7119  -11.7315 O   0  0  0  0  0  0  0  0  0  0  0  0
   -1.1675   34.4354  -13.7565 C   0  0  1  0  0  0  0  0  0  0  0  0
    5.4730   36.7831  -13.3004 C   0  0  1  0  0  0  0  0  0  0  0  0
   -1.7675   33.1296  -13.3713 O   0  0  0  0  0  0  0  0  0  0  0  0
    6.2878   37.9439  -12.8166 O   0  0  0  0  0  0  0  0  0  0  0  0
   -1.9986   35.4070  -13.5541 C   0  0  2  0  0  0  0  0  0  0  0  0
    6.1460   35.6934  -13.1568 C   0  0  2  0  0  0  0  0  0  0  0  0
   -2.7591   36.1026  -18.8228 N   0  0  0  0  0  0  0  0  0  0  0  0
   -2.7150   34.9030  -18.1778 C   0  0  0  0  0  0  0  0  0  0  0  0
   -2.5160   34.8322  -16.8225 N   0  0  0  0  0  0  0  0  0  0  0  0
   -2.3573   35.9909  -16.1136 C   0  0  0  0  0  0  0  0  0  0  0  0
   -2.3911   37.1779  -16.7351 C   0  0  0  0  0  0  0  0  0  0  0  0
   -2.6032   37.2414  -18.1112 C   0  0  0  0  0  0  0  0  0  0  0  0
   -2.6605   38.4200  -18.8810 N   0  0  0  0  0  0  0  0  0  0  0  0
   -2.2139   38.1381  -15.8029 N   0  0  0  0  0  0  0  0  0  0  0  0
   -2.0623   37.5255  -14.5942 C   0  0  0  0  0  0  0  0  0  0  0  0
   -2.1677   36.2033  -14.7807 N   0  0  0  0  0  0  0  0  0  0  0  0
    4.0770   34.0766  -17.6540 N   0  0  0  0  0  0  0  0  0  0  0  0
    3.4622   34.8162  -16.6942 C   0  0  0  0  0  0  0  0  0  0  0  0
    4.1468   35.1539  -15.5607 N   0  0  0  0  0  0  0  0  0  0  0  0
    5.4375   34.7573  -15.3961 C   0  0  0  0  0  0  0  0  0  0  0  0
    6.0554   34.0270  -16.3464 C   0  0  0  0  0  0  0  0  0  0  0  0
    5.3495   33.6842  -17.4959 C   0  0  0  0  0  0  0  0  0  0  0  0
    5.7993   32.9029  -18.6195 N   0  0  0  0  0  0  0  0  0  0  0  0
    7.3147   33.7802  -15.9126 N   0  0  0  0  0  0  0  0  0  0  0  0
    7.4692   34.3681  -14.6918 C   0  0  0  0  0  0  0  0  0  0  0  0
    6.3040   34.9721  -14.3827 N   0  0  0  0  0  0  0  0  0  0  0  0
  1  3  1  1  0  0  0
  1  5  2  0  0  0  0
  1  9  1  0  0  0  0
  1 18  1  0  0  0  0
  2  4  1  6  0  0  0
  2  6  2  0  0  0  0
  2 10  1  0  0  0  0
  2 17  1  0  0  0  0
  7  9  1  0  0  0  0
  8 10  1  0  0  0  0
 11  7  1  6  0  0  0
 11 13  1  0  0  0  0
 11 15  1  0  0  0  0
 12  8  1  6  0  0  0
 12 14  1  0  0  0  0
 12 16  1  0  0  0  0
 13 23  1  0  0  0  0
 14 24  1  0  0  0  0
 15 17  1  1  0  0  0
 15 19  1  0  0  0  0
 16 18  1  1  0  0  0
 16 20  1  0  0  0  0
 19 21  1  1  0  0  0
 19 23  1  0  0  0  0
 20 22  1  1  0  0  0
 20 24  1  0  0  0  0
 23 34  1  6  0  0  0
 24 44  1  6  0  0  0
 25 26  2  0  0  0  0
 25 30  1  0  0  0  0
 26 27  1  0  0  0  0
 27 28  2  0  0  0  0
 28 29  1  0  0  0  0
 28 34  1  0  0  0  0
 29 30  2  0  0  0  0
 29 32  1  0  0  0  0
 30 31  1  0  0  0  0
 32 33  2  0  0  0  0
 33 34  1  0  0  0  0
 35 36  2  0  0  0  0
 35 40  1  0  0  0  0
 36 37  1  0  0  0  0
 37 38  2  0  0  0  0
 38 39  1  0  0  0  0
 38 44  1  0  0  0  0
 39 40  2  0  0  0  0
 39 42  1  0  0  0  0
 40 41  1  0  0  0  0
 42 43  2  0  0  0  0
 43 44  1  0  0  0  0
M  CHG  2   3  -1   4  -1
M  END
>  <CHROM.1>
164.98302782,80.65648983,1.88340647,35.52848625,-14.18373502,0.17153468,-0.22951767
1.20347643

>  <Name>
ligand

>  <RI>
0

>  <Rbt.Current_Directory>
/home/itssahil/PROJECTS/Mol_Feturizer/New_Systems/rnas/4QLM

>  <Rbt.Executable>
rbdock ($Id: //depot/dev/client3/rdock/2013.1/src/exe/rbdock.cxx#4 $)

>  <Rbt.Library>
libRbt.so (2013.1, Build901 2013/11/27)

>  <Rbt.Parameter_File>
/export/apps/rDock/src/rDock_2013.1_src/data/scripts/dock_solv.prm

>  <Rbt.Receptor>
prm/blind_docking_80.prm

>  <SCORE>
43.244

>  <SCORE.INTER>
37.4204

>  <SCORE.INTER.CONST>
1

>  <SCORE.INTER.POLAR>
0

>  <SCORE.INTER.ROT>
2

>  <SCORE.INTER.SOLV>
59.137

>  <SCORE.INTER.VDW>
0.301281

>  <SCORE.INTER.norm>
0.850464

>  <SCORE.INTRA>
-0.290424

>  <SCORE.INTRA.DIHEDRAL>
0.146939

>  <SCORE.INTRA.DIHEDRAL.0>
2.32994

>  <SCORE.INTRA.POLAR>
0

>  <SCORE.INTRA.POLAR.0>
0

>  <SCORE.INTRA.REPUL>
0

>  <SCORE.INTRA.REPUL.0>
0

>  <SCORE.INTRA.SOLV>
0.194081

>  <SCORE.INTRA.SOLV.lig_0>
-117.703

>  <SCORE.INTRA.VDW>
-0.460934

>  <SCORE.INTRA.VDW.0>
-1.59997

>  <SCORE.INTRA.norm>
-0.00660054

>  <SCORE.RESTR>
6.11397

>  <SCORE.RESTR.CAVITY>
6.11397

>  <SCORE.RESTR.norm>
0.138954

>  <SCORE.SYSTEM>
0

>  <SCORE.SYSTEM.CONST>
0

>  <SCORE.SYSTEM.DIHEDRAL>
0

>  <SCORE.SYSTEM.SOLV>
0

>  <SCORE.SYSTEM.norm>
0

>  <SCORE.heavy>
44

>  <SCORE.norm>
0.982817

>  <RMSD>
10.229

$$$$
ligand
 OpenBabel11021811513D
libRbt.so/2013.1/901 2013/11/27
 44 50  0  0  0  0  0  0  0  0999 V2000
    2.4399   38.2317  -12.3844 P   0  0  2  0  0  0  0  0  0  0  0  0
    1.7411   32.8863  -12.7630 P   0  0  1  0  0  0  0  0  0  0  0  0
    1.8502   39.1429  -11.3109 O   0  5  0  0  0  0  0  0  0  0  0  0
    1.5041   32.6294  -14.2314 O   0  5  0  0  0  0  0  0  0  0  0  0
    2.6645   39.1031  -13.5967 O   0  0  0  0  0  0  0  0  0  0  0  0
    2.0042   31.5188  -12.0923 O   0  0  0  0  0  0  0  0  0  0  0  0
    0.5701   36.7914  -11.4512 C   0  0  0  0  0  0  0  0  0  0  0  0
    3.2288   34.4782  -11.3770 C   0  0  0  0  0  0  0  0  0  0  0  0
    1.3703   37.1121  -12.5971 O   0  0  0  0  0  0  0  0  0  0  0  0
    2.9357   34.0161  -12.7258 O   0  0  0  0  0  0  0  0  0  0  0  0
   -0.4577   35.7237  -11.8104 C   0  0  1  0  0  0  0  0  0  0  0  0
    4.4723   35.4372  -11.5011 C   0  0  1  0  0  0  0  0  0  0  0  0
   -1.4903   36.3143  -12.3274 O   0  0  0  0  0  0  0  0  0  0  0  0
    5.3371   34.7785  -12.1585 O   0  0  0  0  0  0  0  0  0  0  0  0
    0.0410   34.7398  -12.8436 C   0  0  1  0  0  0  0  0  0  0  0  0
    4.1652   36.6202  -12.4409 C   0  0  1  0  0  0  0  0  0  0  0  0
    0.4227   33.6246  -12.1661 O   0  0  0  0  0  0  0  0  0  0  0  0
    3.8902   37.7335  -11.7505 O   0  0  0  0  0  0  0  0  0  0  0  0
   -1.2307   34.4411  -13.7118 C   0  0  1  0  0  0  0  0  0  0  0  0
    5.4065   36.8133  -13.3416 C   0  0  1  0  0  0  0  0  0  0  0  0
   -1.8205   33.1324  -13.3208 O   0  0  0  0  0  0  0  0  0  0  0  0
    6.2234   37.9762  -12.8669 O   0  0  0  0  0  0  0  0  0  0  0  0
   -2.0626   35.4092  -13.4965 C   0  0  2  0  0  0  0  0  0  0  0  0
    6.0855   35.7259  -13.2091 C   0  0  2  0  0  0  0  0  0  0  0  0
   -2.7964   36.1121  -18.7680 N   0  0  0  0  0  0  0  0  0  0  0  0
   -2.7101   34.9105  -18.1309 C   0  0  0  0  0  0  0  0  0  0  0  0
   -2.5224   34.8379  -16.7741 N   0  0  0  0  0  0  0  0  0  0  0  0
   -2.4183   35.9968  -16.0556 C   0  0  0  0  0  0  0  0  0  0  0  0
   -2.4940   37.1861  -16.6691 C   0  0  0  0  0  0  0  0  0  0  0  0
   -2.6944   37.2510  -18.0469 C   0  0  0  0  0  0  0  0  0  0  0  0
   -2.7917   38.4319  -18.8091 N   0  0  0  0  0  0  0  0  0  0  0  0
   -2.3658   38.1458  -15.7285 N   0  0  0  0  0  0  0  0  0  0  0  0
   -2.2019   37.5310  -14.5225 C   0  0  0  0  0  0  0  0  0  0  0  0
   -2.2513   36.2070  -14.7192 N   0  0  0  0  0  0  0  0  0  0  0  0
    8.8441   32.3889  -16.1031 N   0  0  0  0  0  0  0  0  0  0  0  0
    9.1495   32.8293  -14.8544 C   0  0  0  0  0  0  0  0  0  0  0  0
    8.3187   33.7165  -14.2299 N   0  0  0  0  0  0  0  0  0  0  0  0
    7.1899   34.1524  -14.8514 C   0  0  0  0  0  0  0  0  0  0  0  0
    6.8782   33.7161  -16.0886 C   0  0  0  0  0  0  0  0  0  0  0  0
    7.7319   32.8156  -16.7189 C   0  0  0  0  0  0  0  0  0  0  0  0
    7.6075   32.2384  -18.0329 N   0  0  0  0  0  0  0  0  0  0  0  0
    5.7171   34.3140  -16.4482 N   0  0  0  0  0  0  0  0  0  0  0  0
    5.3138   35.1166  -15.4220 C   0  0  0  0  0  0  0  0  0  0  0  0
    6.2295   35.0073  -14.4383 N   0  0  0  0  0  0  0  0  0  0  0  0
  1  3  1  1  0  0  0
  1  5  2  0  0  0  0
  1  9  1  0  0  0  0
  1 18  1  0  0  0  0
  2  4  1  6  0  0  0
  2  6  2  0  0  0  0
  2 10  1  0  0  0  0
  2 17  1  0  0  0  0
  7  9  1  0  0  0  0
  8 10  1  0  0  0  0
 11  7  1  6  0  0  0
 11 13  1  0  0  0  0
 11 15  1  0  0  0  0
 12  8  1  6  0  0  0
 12 14  1  0  0  0  0
 12 16  1  0  0  0  0
 13 23  1  0  0  0  0
 14 24  1  0  0  0  0
 15 17  1  1  0  0  0
 15 19  1  0  0  0  0
 16 18  1  1  0  0  0
 16 20  1  0  0  0  0
 19 21  1  1  0  0  0
 19 23  1  0  0  0  0
 20 22  1  1  0  0  0
 20 24  1  0  0  0  0
 23 34  1  6  0  0  0
 24 44  1  6  0  0  0
 25 26  2  0  0  0  0
 25 30  1  0  0  0  0
 26 27  1  0  0  0  0
 27 28  2  0  0  0  0
 28 29  1  0  0  0  0
 28 34  1  0  0  0  0
 29 30  2  0  0  0  0
 29 32  1  0  0  0  0
 30 31  1  0  0  0  0
 32 33  2  0  0  0  0
 33 34  1  0  0  0  0
 35 36  2  0  0  0  0
 35 40  1  0  0  0  0
 36 37  1  0  0  0  0
 37 38  2  0  0  0  0
 38 39  1  0  0  0  0
 38 44  1  0  0  0  0
 39 40  2  0  0  0  0
 39 42  1  0  0  0  0
 40 41  1  0  0  0  0
 42 43  2  0  0  0  0
 43 44  1  0  0  0  0
M  CHG  2   3  -1   4  -1
M  END
>  <CHROM.1>
162.43921370,-86.33950298,2.19086665,35.41366550,-14.05768606,-3.10724842
0.25476975,-2.08687383

>  <Name>
ligand

>  <RI>
0

>  <Rbt.Current_Directory>
/home/itssahil/PROJECTS/Mol_Feturizer/New_Systems/rnas/4QLM

>  <Rbt.Executable>
rbdock ($Id: //depot/dev/client3/rdock/2013.1/src/exe/rbdock.cxx#4 $)

>  <Rbt.Library>
libRbt.so (2013.1, Build901 2013/11/27)

>  <Rbt.Parameter_File>
/export/apps/rDock/src/rDock_2013.1_src/data/scripts/dock_solv.prm

>  <Rbt.Receptor>
prm/blind_docking_80.prm

>  <SCORE>
53.7022

>  <SCORE.INTER>
45.8056

>  <SCORE.INTER.CONST>
1

>  <SCORE.INTER.POLAR>
0

>  <SCORE.INTER.ROT>
2

>  <SCORE.INTER.SOLV>
57.0908

>  <SCORE.INTER.VDW>
6.57345

>  <SCORE.INTER.norm>
1.04104

>  <SCORE.INTRA>
1.58031

>  <SCORE.INTRA.DIHEDRAL>
0.136751

>  <SCORE.INTRA.DIHEDRAL.0>
2.32994

>  <SCORE.INTRA.POLAR>
0

>  <SCORE.INTRA.POLAR.0>
0

>  <SCORE.INTRA.REPUL>
0

>  <SCORE.INTRA.REPUL.0>
0

>  <SCORE.INTRA.SOLV>
0.0270584

>  <SCORE.INTRA.SOLV.lig_0>
-117.703

>  <SCORE.INTRA.VDW>
1.4984

>  <SCORE.INTRA.VDW.0>
-1.59997

>  <SCORE.INTRA.norm>
0.0359161

>  <SCORE.RESTR>
6.31632

>  <SCORE.RESTR.CAVITY>
6.31632

>  <SCORE.RESTR.norm>
0.143553

>  <SCORE.SYSTEM>
0

>  <SCORE.SYSTEM.CONST>
0

>  <SCORE.SYSTEM.DIHEDRAL>
0

>  <SCORE.SYSTEM.SOLV>
0

>  <SCORE.SYSTEM.norm>
0

>  <SCORE.heavy>
44

>  <SCORE.norm>
1.22051

>  <RMSD>
10.566

$$$$
ligand
 OpenBabel11021811513D
libRbt.so/2013.1/901 2013/11/27
 44 50  0  0  0  0  0  0  0  0999 V2000
    3.6196   33.6394  -12.5457 P   0  0  2  0  0  0  0  0  0  0  0  0
    1.2014   37.8475  -10.1688 P   0  0  1  0  0  0  0  0  0  0  0  0
    4.4658   32.5764  -11.8497 O   0  5  0  0  0  0  0  0  0  0  0  0
    1.4525   39.0126  -11.0948 O   0  5  0  0  0  0  0  0  0  0  0  0
    4.1019   33.6891  -13.9755 O   0  0  0  0  0  0  0  0  0  0  0  0
    0.1173   38.2869   -9.1585 O   0  0  0  0  0  0  0  0  0  0  0  0
    4.1870   34.7825  -10.3519 C   0  0  0  0  0  0  0  0  0  0  0  0
    0.7062   35.3290  -10.4520 C   0  0  0  0  0  0  0  0  0  0  0  0
    3.8803   34.9543  -11.7421 O   0  0  0  0  0  0  0  0  0  0  0  0
    0.8696   36.5850  -11.1692 O   0  0  0  0  0  0  0  0  0  0  0  0
    4.4639   36.1349   -9.7039 C   0  0  1  0  0  0  0  0  0  0  0  0
    0.2602   34.2648  -11.5244 C   0  0  1  0  0  0  0  0  0  0  0  0
    5.7090   36.4343   -9.9096 O   0  0  0  0  0  0  0  0  0  0  0  0
   -0.7237   34.7937  -12.1296 O   0  0  0  0  0  0  0  0  0  0  0  0
    3.6446   37.2585  -10.2960 C   0  0  1  0  0  0  0  0  0  0  0  0
    1.3126   34.1346  -12.6435 C   0  0  1  0  0  0  0  0  0  0  0  0
    2.6067   37.4734   -9.4445 O   0  0  0  0  0  0  0  0  0  0  0  0
    2.0719   33.0452  -12.4751 O   0  0  0  0  0  0  0  0  0  0  0  0
    4.6272   38.4808  -10.2765 C   0  0  1  0  0  0  0  0  0  0  0  0
    0.5415   34.0772  -13.9819 C   0  0  1  0  0  0  0  0  0  0  0  0
    4.3072   39.3754   -9.1316 O   0  0  0  0  0  0  0  0  0  0  0  0
    0.4737   32.6685  -14.4883 O   0  0  0  0  0  0  0  0  0  0  0  0
    5.8219   37.9946  -10.1671 C   0  0  2  0  0  0  0  0  0  0  0  0
   -0.6455   34.4921  -13.6995 C   0  0  2  0  0  0  0  0  0  0  0  0
    7.6128   36.9095  -15.1104 N   0  0  0  0  0  0  0  0  0  0  0  0
    6.7349   36.1483  -14.3984 C   0  0  0  0  0  0  0  0  0  0  0  0
    6.3371   36.5148  -13.1378 N   0  0  0  0  0  0  0  0  0  0  0  0
    6.8373   37.6647  -12.5922 C   0  0  0  0  0  0  0  0  0  0  0  0
    7.7070   38.4199  -13.2774 C   0  0  0  0  0  0  0  0  0  0  0  0
    8.0988   38.0453  -14.5615 C   0  0  0  0  0  0  0  0  0  0  0  0
    9.0018   38.7478  -15.3838 N   0  0  0  0  0  0  0  0  0  0  0  0
    8.0267   39.4830  -12.5093 N   0  0  0  0  0  0  0  0  0  0  0  0
    7.3459   39.3699  -11.3333 C   0  0  0  0  0  0  0  0  0  0  0  0
    6.5990   38.2594  -11.3891 N   0  0  0  0  0  0  0  0  0  0  0  0
   -3.1116   36.7130  -17.7128 N   0  0  0  0  0  0  0  0  0  0  0  0
   -3.0406   35.3849  -17.4348 C   0  0  0  0  0  0  0  0  0  0  0  0
   -2.3427   34.9612  -16.3390 N   0  0  0  0  0  0  0  0  0  0  0  0
   -1.7273   35.8633  -15.5277 C   0  0  0  0  0  0  0  0  0  0  0  0
   -1.7974   37.1831  -15.7949 C   0  0  0  0  0  0  0  0  0  0  0  0
   -2.5070   37.6056  -16.9153 C   0  0  0  0  0  0  0  0  0  0  0  0
   -2.6953   38.9498  -17.3975 N   0  0  0  0  0  0  0  0  0  0  0  0
   -1.0980   37.8291  -14.8313 N   0  0  0  0  0  0  0  0  0  0  0  0
   -0.6020   36.8984  -13.9666 C   0  0  0  0  0  0  0  0  0  0  0  0
   -0.9991   35.6864  -14.4042 N   0  0  0  0  0  0  0  0  0  0  0  0
  1  3  1  1  0  0  0
  1  5  2  0  0  0  0
  1  9  1  0  0  0  0
  1 18  1  0  0  0  0
  2  4  1  6  0  0  0
  2  6  2  0  0  0  0
  2 10  1  0  0  0  0
  2 17  1  0  0  0  0
  7  9  1  0  0  0  0
  8 10  1  0  0  0  0
 11  7  1  6  0  0  0
 11 13  1  0  0  0  0
 11 15  1  0  0  0  0
 12  8  1  1  0  0  0
 12 14  1  0  0  0  0
 12 16  1  0  0  0  0
 13 23  1  0  0  0  0
 14 24  1  0  0  0  0
 15 17  1  1  0  0  0
 15 19  1  0  0  0  0
 16 18  1  1  0  0  0
 16 20  1  0  0  0  0
 19 21  1  1  0  0  0
 19 23  1  0  0  0  0
 20 22  1  1  0  0  0
 20 24  1  0  0  0  0
 23 34  1  6  0  0  0
 24 44  1  6  0  0  0
 25 26  2  0  0  0  0
 25 30  1  0  0  0  0
 26 27  1  0  0  0  0
 27 28  2  0  0  0  0
 28 29  1  0  0  0  0
 28 34  1  0  0  0  0
 29 30  2  0  0  0  0
 29 32  1  0  0  0  0
 30 31  1  0  0  0  0
 32 33  2  0  0  0  0
 33 34  1  0  0  0  0
 35 36  2  0  0  0  0
 35 40  1  0  0  0  0
 36 37  1  0  0  0  0
 37 38  2  0  0  0  0
 38 39  1  0  0  0  0
 38 44  1  0  0  0  0
 39 40  2  0  0  0  0
 39 42  1  0  0  0  0
 40 41  1  0  0  0  0
 42 43  2  0  0  0  0
 43 44  1  0  0  0  0
M  CHG  2   3  -1   4  -1
M  END
>  <CHROM.1>
31.00812797,-141.13371522,2.56170372,36.37255528,-12.70135072,-0.39408363
-0.18637444,-1.61832433

>  <Name>
ligand

>  <RI>
0

>  <Rbt.Current_Directory>
/home/itssahil/PROJECTS/Mol_Feturizer/New_Systems/rnas/4QLM

>  <Rbt.Executable>
rbdock ($Id: //depot/dev/client3/rdock/2013.1/src/exe/rbdock.cxx#4 $)

>  <Rbt.Library>
libRbt.so (2013.1, Build901 2013/11/27)

>  <Rbt.Parameter_File>
/export/apps/rDock/src/rDock_2013.1_src/data/scripts/dock_solv.prm

>  <Rbt.Receptor>
prm/blind_docking_80.prm

>  <SCORE>
69.2214

>  <SCORE.INTER>
61.8586

>  <SCORE.INTER.CONST>
1

>  <SCORE.INTER.POLAR>
0

>  <SCORE.INTER.ROT>
2

>  <SCORE.INTER.SOLV>
45.6011

>  <SCORE.INTER.VDW>
21.1054

>  <SCORE.INTER.norm>
1.40588

>  <SCORE.INTRA>
-0.900507

>  <SCORE.INTRA.DIHEDRAL>
0.183444

>  <SCORE.INTRA.DIHEDRAL.0>
2.32994

>  <SCORE.INTRA.POLAR>
0

>  <SCORE.INTRA.POLAR.0>
0

>  <SCORE.INTRA.REPUL>
0

>  <SCORE.INTRA.REPUL.0>
0

>  <SCORE.INTRA.SOLV>
0.357904

>  <SCORE.INTRA.SOLV.lig_0>
-117.703

>  <SCORE.INTRA.VDW>
-1.17118

>  <SCORE.INTRA.VDW.0>
-1.59997

>  <SCORE.INTRA.norm>
-0.0204661

>  <SCORE.RESTR>
8.26323

>  <SCORE.RESTR.CAVITY>
8.26323

>  <SCORE.RESTR.norm>
0.187801

>  <SCORE.SYSTEM>
0

>  <SCORE.SYSTEM.CONST>
0

>  <SCORE.SYSTEM.DIHEDRAL>
0

>  <SCORE.SYSTEM.SOLV>
0

>  <SCORE.SYSTEM.norm>
0

>  <SCORE.heavy>
44

>  <SCORE.norm>
1.57321

>  <RMSD>
11.304

$$$$
ligand
 OpenBabel11021811513D
libRbt.so/2013.1/901 2013/11/27
 44 50  0  0  0  0  0  0  0  0999 V2000
    1.0152   37.6009   -9.7297 P   0  0  2  0  0  0  0  0  0  0  0  0
    3.8235   33.8011  -12.3528 P   0  0  1  0  0  0  0  0  0  0  0  0
   -0.1642   37.3613   -8.7906 O   0  5  0  0  0  0  0  0  0  0  0  0
    4.0206   34.3551  -13.7428 O   0  5  0  0  0  0  0  0  0  0  0  0
    0.8358   38.9950  -10.2808 O   0  0  0  0  0  0  0  0  0  0  0  0
    4.7674   32.5864  -12.2024 O   0  0  0  0  0  0  0  0  0  0  0  0
    0.3150   35.2461  -10.3667 C   0  0  0  0  0  0  0  0  0  0  0  0
    3.7840   34.7712   -9.9600 C   0  0  0  0  0  0  0  0  0  0  0  0
    0.9098   36.4741  -10.8076 O   0  0  0  0  0  0  0  0  0  0  0  0
    4.0460   35.0900  -11.3558 O   0  0  0  0  0  0  0  0  0  0  0  0
    0.2320   34.2571  -11.5245 C   0  0  1  0  0  0  0  0  0  0  0  0
    4.1739   36.0552   -9.1348 C   0  0  1  0  0  0  0  0  0  0  0  0
   -0.8520   34.5062  -12.1919 O   0  0  0  0  0  0  0  0  0  0  0  0
    5.3477   36.3540   -9.5180 O   0  0  0  0  0  0  0  0  0  0  0  0
    1.3798   34.3832  -12.4997 C   0  0  1  0  0  0  0  0  0  0  0  0
    3.3503   37.2758   -9.5916 C   0  0  1  0  0  0  0  0  0  0  0  0
    2.2591   33.3919  -12.1955 O   0  0  0  0  0  0  0  0  0  0  0  0
    2.3476   37.5334   -8.7429 O   0  0  0  0  0  0  0  0  0  0  0  0
    0.7117   34.1102  -13.8923 C   0  0  1  0  0  0  0  0  0  0  0  0
    4.3275   38.4701   -9.6812 C   0  0  1  0  0  0  0  0  0  0  0  0
    1.0022   32.7198  -14.3346 O   0  0  0  0  0  0  0  0  0  0  0  0
    4.1714   39.3662   -8.4905 O   0  0  0  0  0  0  0  0  0  0  0  0
   -0.5603   34.2923  -13.7355 C   0  0  2  0  0  0  0  0  0  0  0  0
    5.5021   37.9396   -9.6712 C   0  0  2  0  0  0  0  0  0  0  0  0
   -3.0357   36.7411  -17.8217 N   0  0  0  0  0  0  0  0  0  0  0  0
   -2.9828   35.3949  -17.6164 C   0  0  0  0  0  0  0  0  0  0  0  0
   -2.3231   34.8666  -16.5361 N   0  0  0  0  0  0  0  0  0  0  0  0
   -1.7077   35.7128  -15.6555 C   0  0  0  0  0  0  0  0  0  0  0  0
   -1.7449   37.0387  -15.8480 C   0  0  0  0  0  0  0  0  0  0  0  0
   -2.4256   37.5678  -16.9432 C   0  0  0  0  0  0  0  0  0  0  0  0
   -2.5397   38.9364  -17.2579 N   0  0  0  0  0  0  0  0  0  0  0  0
   -1.0684   37.6228  -14.8364 N   0  0  0  0  0  0  0  0  0  0  0  0
   -0.6049   36.6359  -14.0176 C   0  0  0  0  0  0  0  0  0  0  0  0
   -1.0124   35.4592  -14.5109 N   0  0  0  0  0  0  0  0  0  0  0  0
    7.3708   36.2049  -14.2120 N   0  0  0  0  0  0  0  0  0  0  0  0
    6.6507   35.4960  -13.3036 C   0  0  0  0  0  0  0  0  0  0  0  0
    6.2382   36.1004  -12.1496 N   0  0  0  0  0  0  0  0  0  0  0  0
    6.5413   37.4053  -11.9134 C   0  0  0  0  0  0  0  0  0  0  0  0
    7.2516   38.1163  -12.8124 C   0  0  0  0  0  0  0  0  0  0  0  0
    7.6711   37.4917  -13.9833 C   0  0  0  0  0  0  0  0  0  0  0  0
    8.4482   38.0470  -15.0617 N   0  0  0  0  0  0  0  0  0  0  0  0
    7.4006   39.3667  -12.3132 N   0  0  0  0  0  0  0  0  0  0  0  0
    6.7726   39.4218  -11.1039 C   0  0  0  0  0  0  0  0  0  0  0  0
    6.2419   38.2051  -10.8672 N   0  0  0  0  0  0  0  0  0  0  0  0
  1  3  1  1  0  0  0
  1  5  2  0  0  0  0
  1  9  1  0  0  0  0
  1 18  1  0  0  0  0
  2  4  1  6  0  0  0
  2  6  2  0  0  0  0
  2 10  1  0  0  0  0
  2 17  1  0  0  0  0
  7  9  1  0  0  0  0
  8 10  1  0  0  0  0
 11  7  1  1  0  0  0
 11 13  1  0  0  0  0
 11 15  1  0  0  0  0
 12  8  1  6  0  0  0
 12 14  1  0  0  0  0
 12 16  1  0  0  0  0
 13 23  1  0  0  0  0
 14 24  1  0  0  0  0
 15 17  1  1  0  0  0
 15 19  1  0  0  0  0
 16 18  1  1  0  0  0
 16 20  1  0  0  0  0
 19 21  1  1  0  0  0
 19 23  1  0  0  0  0
 20 22  1  1  0  0  0
 20 24  1  0  0  0  0
 23 34  1  6  0  0  0
 24 44  1  6  0  0  0
 25 26  2  0  0  0  0
 25 30  1  0  0  0  0
 26 27  1  0  0  0  0
 27 28  2  0  0  0  0
 28 29  1  0  0  0  0
 28 34  1  0  0  0  0
 29 30  2  0  0  0  0
 29 32  1  0  0  0  0
 30 31  1  0  0  0  0
 32 33  2  0  0  0  0
 33 34  1  0  0  0  0
 35 36  2  0  0  0  0
 35 40  1  0  0  0  0
 36 37  1  0  0  0  0
 37 38  2  0  0  0  0
 38 39  1  0  0  0  0
 38 44  1  0  0  0  0
 39 40  2  0  0  0  0
 39 42  1  0  0  0  0
 40 41  1  0  0  0  0
 42 43  2  0  0  0  0
 43 44  1  0  0  0  0
M  CHG  2   3  -1   4  -1
M  END
>  <CHROM.1>
-134.60477394,14.88464745,2.44598246,36.26430511,-12.40637894,0.53094178
0.03618556,1.32179534

>  <Name>
ligand

>  <RI>
0

>  <Rbt.Current_Directory>
/home/itssahil/PROJECTS/Mol_Feturizer/New_Systems/rnas/4QLM

>  <Rbt.Executable>
rbdock ($Id: //depot/dev/client3/rdock/2013.1/src/exe/rbdock.cxx#4 $)

>  <Rbt.Library>
libRbt.so (2013.1, Build901 2013/11/27)

>  <Rbt.Parameter_File>
/export/apps/rDock/src/rDock_2013.1_src/data/scripts/dock_solv.prm

>  <Rbt.Receptor>
prm/blind_docking_80.prm

>  <SCORE>
27.3587

>  <SCORE.INTER>
18.2948

>  <SCORE.INTER.CONST>
1

>  <SCORE.INTER.POLAR>
0

>  <SCORE.INTER.ROT>
2

>  <SCORE.INTER.SOLV>
40.6202

>  <SCORE.INTER.VDW>
-6.27686

>  <SCORE.INTER.norm>
0.415792

>  <SCORE.INTRA>
-0.0168936

>  <SCORE.INTRA.DIHEDRAL>
-0.00309694

>  <SCORE.INTRA.DIHEDRAL.0>
2.32994

>  <SCORE.INTRA.POLAR>
0

>  <SCORE.INTRA.POLAR.0>
0

>  <SCORE.INTRA.REPUL>
0

>  <SCORE.INTRA.REPUL.0>
0

>  <SCORE.INTRA.SOLV>
1.42735

>  <SCORE.INTRA.SOLV.lig_0>
-117.703

>  <SCORE.INTRA.VDW>
-0.729018

>  <SCORE.INTRA.VDW.0>
-1.59997

>  <SCORE.INTRA.norm>
-0.000383946

>  <SCORE.RESTR>
9.08073

>  <SCORE.RESTR.CAVITY>
9.08073

>  <SCORE.RESTR.norm>
0.20638

>  <SCORE.SYSTEM>
0

>  <SCORE.SYSTEM.CONST>
0

>  <SCORE.SYSTEM.DIHEDRAL>
0

>  <SCORE.SYSTEM.SOLV>
0

>  <SCORE.SYSTEM.norm>
0

>  <SCORE.heavy>
44

>  <SCORE.norm>
0.621788

>  <RMSD>
11.321

$$$$
ligand
 OpenBabel11021811513D
libRbt.so/2013.1/901 2013/11/27
 44 50  0  0  0  0  0  0  0  0999 V2000
    1.0180   37.6201   -9.7014 P   0  0  2  0  0  0  0  0  0  0  0  0
    3.8114   33.8147  -12.3323 P   0  0  1  0  0  0  0  0  0  0  0  0
   -0.1597   37.3828   -8.7594 O   0  5  0  0  0  0  0  0  0  0  0  0
    4.0062   34.3686  -13.7227 O   0  5  0  0  0  0  0  0  0  0  0  0
    0.8402   39.0147  -10.2517 O   0  0  0  0  0  0  0  0  0  0  0  0
    4.7531   32.5980  -12.1846 O   0  0  0  0  0  0  0  0  0  0  0  0
    0.3110   35.2669  -10.3370 C   0  0  0  0  0  0  0  0  0  0  0  0
    3.7801   34.7845   -9.9392 C   0  0  0  0  0  0  0  0  0  0  0  0
    0.9073   36.4937  -10.7793 O   0  0  0  0  0  0  0  0  0  0  0  0
    4.0392   35.1030  -11.3356 O   0  0  0  0  0  0  0  0  0  0  0  0
    0.2229   34.2784  -11.4949 C   0  0  1  0  0  0  0  0  0  0  0  0
    4.1747   36.0674   -9.1147 C   0  0  1  0  0  0  0  0  0  0  0  0
   -0.8622   34.5299  -12.1595 O   0  0  0  0  0  0  0  0  0  0  0  0
    5.3483   36.3638   -9.5008 O   0  0  0  0  0  0  0  0  0  0  0  0
    1.3686   34.4021  -12.4729 C   0  0  1  0  0  0  0  0  0  0  0  0
    3.3526   37.2899   -9.5692 C   0  0  1  0  0  0  0  0  0  0  0  0
    2.2465   33.4089  -12.1711 O   0  0  0  0  0  0  0  0  0  0  0  0
    2.3527   37.5495   -8.7180 O   0  0  0  0  0  0  0  0  0  0  0  0
    0.6964   34.1309  -13.8638 C   0  0  1  0  0  0  0  0  0  0  0  0
    4.3322   38.4821   -9.6611 C   0  0  1  0  0  0  0  0  0  0  0  0
    0.9827   32.7399  -14.3072 O   0  0  0  0  0  0  0  0  0  0  0  0
    4.1810   39.3784   -8.4698 O   0  0  0  0  0  0  0  0  0  0  0  0
   -0.5748   34.3157  -13.7038 C   0  0  2  0  0  0  0  0  0  0  0  0
    5.5057   37.9491   -9.6542 C   0  0  2  0  0  0  0  0  0  0  0  0
   -3.0724   36.7711  -17.7725 N   0  0  0  0  0  0  0  0  0  0  0  0
   -3.0267   35.4251  -17.5643 C   0  0  0  0  0  0  0  0  0  0  0  0
   -2.3603   34.8950  -16.4890 N   0  0  0  0  0  0  0  0  0  0  0  0
   -1.7308   35.7392  -15.6164 C   0  0  0  0  0  0  0  0  0  0  0  0
   -1.7609   37.0649  -15.8120 C   0  0  0  0  0  0  0  0  0  0  0  0
   -2.4484   37.5959  -16.9020 C   0  0  0  0  0  0  0  0  0  0  0  0
   -2.5561   38.9644  -17.2191 N   0  0  0  0  0  0  0  0  0  0  0  0
   -1.0708   37.6468  -14.8083 N   0  0  0  0  0  0  0  0  0  0  0  0
   -0.6062   36.6588  -13.9915 C   0  0  0  0  0  0  0  0  0  0  0  0
   -1.0264   35.4837  -14.4779 N   0  0  0  0  0  0  0  0  0  0  0  0
    7.3422   36.2172  -14.2092 N   0  0  0  0  0  0  0  0  0  0  0  0
    6.6198   35.5106  -13.3008 C   0  0  0  0  0  0  0  0  0  0  0  0
    6.2168   36.1138  -12.1427 N   0  0  0  0  0  0  0  0  0  0  0  0
    6.5317   37.4152  -11.9025 C   0  0  0  0  0  0  0  0  0  0  0  0
    7.2444   38.1238  -12.8014 C   0  0  0  0  0  0  0  0  0  0  0  0
    7.6542   37.5005  -13.9765 C   0  0  0  0  0  0  0  0  0  0  0  0
    8.4317   38.0536  -15.0556 N   0  0  0  0  0  0  0  0  0  0  0  0
    7.4058   39.3710  -12.2979 N   0  0  0  0  0  0  0  0  0  0  0  0
    6.7829   39.4264  -11.0859 C   0  0  0  0  0  0  0  0  0  0  0  0
    6.2431   38.2132  -10.8519 N   0  0  0  0  0  0  0  0  0  0  0  0
  1  3  1  1  0  0  0
  1  5  2  0  0  0  0
  1  9  1  0  0  0  0
  1 18  1  0  0  0  0
  2  4  1  6  0  0  0
  2  6  2  0  0  0  0
  2 10  1  0  0  0  0
  2 17  1  0  0  0  0
  7  9  1  0  0  0  0
  8 10  1  0  0  0  0
 11  7  1  1  0  0  0
 11 13  1  0  0  0  0
 11 15  1  0  0  0  0
 12  8  1  6  0  0  0
 12 14  1  0  0  0  0
 12 16  1  0  0  0  0
 13 23  1  0  0  0  0
 14 24  1  0  0  0  0
 15 17  1  1  0  0  0
 15 19  1  0  0  0  0
 16 18  1  1  0  0  0
 16 20  1  0  0  0  0
 19 21  1  1  0  0  0
 19 23  1  0  0  0  0
 20 22  1  1  0  0  0
 20 24  1  0  0  0  0
 23 34  1  6  0  0  0
 24 44  1  6  0  0  0
 25 26  2  0  0  0  0
 25 30  1  0  0  0  0
 26 27  1  0  0  0  0
 27 28  2  0  0  0  0
 28 29  1  0  0  0  0
 28 34  1  0  0  0  0
 29 30  2  0  0  0  0
 29 32  1  0  0  0  0
 30 31  1  0  0  0  0
 32 33  2  0  0  0  0
 33 34  1  0  0  0  0
 35 36  2  0  0  0  0
 35 40  1  0  0  0  0
 36 37  1  0  0  0  0
 37 38  2  0  0  0  0
 38 39  1  0  0  0  0
 38 44  1  0  0  0  0
 39 40  2  0  0  0  0
 39 42  1  0  0  0  0
 40 41  1  0  0  0  0
 42 43  2  0  0  0  0
 43 44  1  0  0  0  0
M  CHG  2   3  -1   4  -1
M  END
>  <CHROM.1>
-134.09916550,15.30765385,2.43657322,36.28140080,-12.38192148,0.52763605
0.03531498,1.32259371

>  <Name>
ligand

>  <RI>
0

>  <Rbt.Current_Directory>
/home/itssahil/PROJECTS/Mol_Feturizer/New_Systems/rnas/4QLM

>  <Rbt.Executable>
rbdock ($Id: //depot/dev/client3/rdock/2013.1/src/exe/rbdock.cxx#4 $)

>  <Rbt.Library>
libRbt.so (2013.1, Build901 2013/11/27)

>  <Rbt.Parameter_File>
/export/apps/rDock/src/rDock_2013.1_src/data/scripts/dock_solv.prm

>  <Rbt.Receptor>
prm/blind_docking_80.prm

>  <SCORE>
26.3899

>  <SCORE.INTER>
17.0349

>  <SCORE.INTER.CONST>
1

>  <SCORE.INTER.POLAR>
0

>  <SCORE.INTER.ROT>
2

>  <SCORE.INTER.SOLV>
40.426

>  <SCORE.INTER.VDW>
-7.05208

>  <SCORE.INTER.norm>
0.387156

>  <SCORE.INTRA>
0.0334376

>  <SCORE.INTRA.DIHEDRAL>
-0.0010863

>  <SCORE.INTRA.DIHEDRAL.0>
2.32994

>  <SCORE.INTRA.POLAR>
0

>  <SCORE.INTRA.POLAR.0>
0

>  <SCORE.INTRA.REPUL>
0

>  <SCORE.INTRA.REPUL.0>
0

>  <SCORE.INTRA.SOLV>
1.44284

>  <SCORE.INTRA.SOLV.lig_0>
-117.703

>  <SCORE.INTRA.VDW>
-0.687441

>  <SCORE.INTRA.VDW.0>
-1.59997

>  <SCORE.INTRA.norm>
0.000759945

>  <SCORE.RESTR>
9.32163

>  <SCORE.RESTR.CAVITY>
9.32163

>  <SCORE.RESTR.norm>
0.211855

>  <SCORE.SYSTEM>
0

>  <SCORE.SYSTEM.CONST>
0

>  <SCORE.SYSTEM.DIHEDRAL>
0

>  <SCORE.SYSTEM.SOLV>
0

>  <SCORE.SYSTEM.norm>
0

>  <SCORE.heavy>
44

>  <SCORE.norm>
0.599772

>  <RMSD>
11.323

$$$$
ligand
 OpenBabel11021811513D
libRbt.so/2013.1/901 2013/11/27
 44 50  0  0  0  0  0  0  0  0999 V2000
    1.0513   37.4928   -9.5653 P   0  0  2  0  0  0  0  0  0  0  0  0
    3.9259   33.8494  -12.3343 P   0  0  1  0  0  0  0  0  0  0  0  0
   -0.1350   37.1973   -8.6510 O   0  5  0  0  0  0  0  0  0  0  0  0
    4.1312   34.4702  -13.6946 O   0  5  0  0  0  0  0  0  0  0  0  0
    0.8627   38.9095  -10.0521 O   0  0  0  0  0  0  0  0  0  0  0  0
    4.8811   32.6386  -12.2312 O   0  0  0  0  0  0  0  0  0  0  0  0
    0.3825   35.1637  -10.3196 C   0  0  0  0  0  0  0  0  0  0  0  0
    3.8521   34.7053   -9.8990 C   0  0  0  0  0  0  0  0  0  0  0  0
    0.9686   36.4171  -10.6960 O   0  0  0  0  0  0  0  0  0  0  0  0
    4.1247   35.0921  -11.2755 O   0  0  0  0  0  0  0  0  0  0  0  0
    0.3216   34.2296  -11.5234 C   0  0  1  0  0  0  0  0  0  0  0  0
    4.2199   35.9528   -9.0103 C   0  0  1  0  0  0  0  0  0  0  0  0
   -0.7582   34.4988  -12.1898 O   0  0  0  0  0  0  0  0  0  0  0  0
    5.3944   36.2812   -9.3666 O   0  0  0  0  0  0  0  0  0  0  0  0
    1.4778   34.4130  -12.4794 C   0  0  1  0  0  0  0  0  0  0  0  0
    3.3881   37.1852   -9.4179 C   0  0  1  0  0  0  0  0  0  0  0  0
    2.3644   33.4175  -12.2129 O   0  0  0  0  0  0  0  0  0  0  0  0
    2.3743   37.3924   -8.5687 O   0  0  0  0  0  0  0  0  0  0  0  0
    0.8267   34.1992  -13.8903 C   0  0  1  0  0  0  0  0  0  0  0  0
    4.3535   38.3922   -9.4410 C   0  0  1  0  0  0  0  0  0  0  0  0
    1.1363   32.8342  -14.3944 O   0  0  0  0  0  0  0  0  0  0  0  0
    4.1759   39.2297   -8.2112 O   0  0  0  0  0  0  0  0  0  0  0  0
   -0.4487   34.3609  -13.7386 C   0  0  2  0  0  0  0  0  0  0  0  0
    5.5335   37.8738   -9.4436 C   0  0  2  0  0  0  0  0  0  0  0  0
   -3.2898   36.9968  -17.4536 N   0  0  0  0  0  0  0  0  0  0  0  0
   -3.3309   35.6537  -17.2268 C   0  0  0  0  0  0  0  0  0  0  0  0
   -2.5635   35.0748  -16.2483 N   0  0  0  0  0  0  0  0  0  0  0  0
   -1.7431   35.8666  -15.4930 C   0  0  0  0  0  0  0  0  0  0  0  0
   -1.6865   37.1882  -15.7091 C   0  0  0  0  0  0  0  0  0  0  0  0
   -2.4767   37.7696  -16.6992 C   0  0  0  0  0  0  0  0  0  0  0  0
   -2.5107   39.1399  -17.0252 N   0  0  0  0  0  0  0  0  0  0  0  0
   -0.8100   37.7143  -14.8276 N   0  0  0  0  0  0  0  0  0  0  0  0
   -0.3188   36.6953  -14.0664 C   0  0  0  0  0  0  0  0  0  0  0  0
   -0.9053   35.5583  -14.4630 N   0  0  0  0  0  0  0  0  0  0  0  0
    8.4729   36.2638  -13.4295 N   0  0  0  0  0  0  0  0  0  0  0  0
    7.9363   35.4909  -12.4492 C   0  0  0  0  0  0  0  0  0  0  0  0
    7.1894   36.0729  -11.4639 N   0  0  0  0  0  0  0  0  0  0  0  0
    6.9792   37.4169  -11.4669 C   0  0  0  0  0  0  0  0  0  0  0  0
    7.5048   38.1895  -12.4391 C   0  0  0  0  0  0  0  0  0  0  0  0
    8.2675   37.5889  -13.4365 C   0  0  0  0  0  0  0  0  0  0  0  0
    8.9333   38.2155  -14.5497 N   0  0  0  0  0  0  0  0  0  0  0  0
    7.1364   39.4679  -12.1841 N   0  0  0  0  0  0  0  0  0  0  0  0
    6.3763   39.4759  -11.0518 C   0  0  0  0  0  0  0  0  0  0  0  0
    6.2825   38.2027  -10.6178 N   0  0  0  0  0  0  0  0  0  0  0  0
  1  3  1  1  0  0  0
  1  5  2  0  0  0  0
  1  9  1  0  0  0  0
  1 18  1  0  0  0  0
  2  4  1  6  0  0  0
  2  6  2  0  0  0  0
  2 10  1  0  0  0  0
  2 17  1  0  0  0  0
  7  9  1  0  0  0  0
  8 10  1  0  0  0  0
 11  7  1  1  0  0  0
 11 13  1  0  0  0  0
 11 15  1  0  0  0  0
 12  8  1  6  0  0  0
 12 14  1  0  0  0  0
 12 16  1  0  0  0  0
 13 23  1  0  0  0  0
 14 24  1  0  0  0  0
 15 17  1  1  0  0  0
 15 19  1  0  0  0  0
 16 18  1  1  0  0  0
 16 20  1  0  0  0  0
 19 21  1  1  0  0  0
 19 23  1  0  0  0  0
 20 22  1  1  0  0  0
 20 24  1  0  0  0  0
 23 34  1  6  0  0  0
 24 44  1  6  0  0  0
 25 26  2  0  0  0  0
 25 30  1  0  0  0  0
 26 27  1  0  0  0  0
 27 28  2  0  0  0  0
 28 29  1  0  0  0  0
 28 34  1  0  0  0  0
 29 30  2  0  0  0  0
 29 32  1  0  0  0  0
 30 31  1  0  0  0  0
 32 33  2  0  0  0  0
 33 34  1  0  0  0  0
 35 36  2  0  0  0  0
 35 40  1  0  0  0  0
 36 37  1  0  0  0  0
 37 38  2  0  0  0  0
 38 39  1  0  0  0  0
 38 44  1  0  0  0  0
 39 40  2  0  0  0  0
 39 42  1  0  0  0  0
 40 41  1  0  0  0  0
 42 43  2  0  0  0  0
 43 44  1  0  0  0  0
M  CHG  2   3  -1   4  -1
M  END
>  <CHROM.1>
-122.79774560,-10.20484660,2.57403613,36.29054543,-12.22164964,2.65487565
0.00192601,-1.83572461

>  <Name>
ligand

>  <RI>
0

>  <Rbt.Current_Directory>
/home/itssahil/PROJECTS/Mol_Feturizer/New_Systems/rnas/4QLM

>  <Rbt.Executable>
rbdock ($Id: //depot/dev/client3/rdock/2013.1/src/exe/rbdock.cxx#4 $)

>  <Rbt.Library>
libRbt.so (2013.1, Build901 2013/11/27)

>  <Rbt.Parameter_File>
/export/apps/rDock/src/rDock_2013.1_src/data/scripts/dock_solv.prm

>  <Rbt.Receptor>
prm/blind_docking_80.prm

>  <SCORE>
38.4571

>  <SCORE.INTER>
27.6825

>  <SCORE.INTER.CONST>
1

>  <SCORE.INTER.POLAR>
0

>  <SCORE.INTER.ROT>
2

>  <SCORE.INTER.SOLV>
39.0555

>  <SCORE.INTER.VDW>
0.50314

>  <SCORE.INTER.norm>
0.629147

>  <SCORE.INTRA>
0.550102

>  <SCORE.INTRA.DIHEDRAL>
0.0694893

>  <SCORE.INTRA.DIHEDRAL.0>
2.32994

>  <SCORE.INTRA.POLAR>
0

>  <SCORE.INTRA.POLAR.0>
0

>  <SCORE.INTRA.REPUL>
0

>  <SCORE.INTRA.REPUL.0>
0

>  <SCORE.INTRA.SOLV>
0.11937

>  <SCORE.INTRA.SOLV.lig_0>
-117.703

>  <SCORE.INTRA.VDW>
0.455672

>  <SCORE.INTRA.VDW.0>
-1.59997

>  <SCORE.INTRA.norm>
0.0125023

>  <SCORE.RESTR>
10.2245

>  <SCORE.RESTR.CAVITY>
10.2245

>  <SCORE.RESTR.norm>
0.232374

>  <SCORE.SYSTEM>
0

>  <SCORE.SYSTEM.CONST>
0

>  <SCORE.SYSTEM.DIHEDRAL>
0

>  <SCORE.SYSTEM.SOLV>
0

>  <SCORE.SYSTEM.norm>
0

>  <SCORE.heavy>
44

>  <SCORE.norm>
0.874024

>  <RMSD>
11.546

$$$$
ligand
 OpenBabel11021811513D
libRbt.so/2013.1/901 2013/11/27
 44 50  0  0  0  0  0  0  0  0999 V2000
    5.4767   37.1899  -12.6298 P   0  0  2  0  0  0  0  0  0  0  0  0
    2.2352   32.8862  -13.0496 P   0  0  1  0  0  0  0  0  0  0  0  0
    5.9420   37.8432  -11.3308 O   0  5  0  0  0  0  0  0  0  0  0  0
    1.2785   33.2290  -14.1655 O   0  5  0  0  0  0  0  0  0  0  0  0
    5.5208   38.2715  -13.6822 O   0  0  0  0  0  0  0  0  0  0  0  0
    2.0833   31.3756  -12.7598 O   0  0  0  0  0  0  0  0  0  0  0  0
    3.7903   36.2870  -10.9618 C   0  0  0  0  0  0  0  0  0  0  0  0
    4.7385   33.2941  -12.5646 C   0  0  0  0  0  0  0  0  0  0  0  0
    4.0384   36.6604  -12.3239 O   0  0  0  0  0  0  0  0  0  0  0  0
    3.6949   33.4379  -13.5690 O   0  0  0  0  0  0  0  0  0  0  0  0
    2.3430   35.8363  -10.7960 C   0  0  1  0  0  0  0  0  0  0  0  0
    6.0822   33.7322  -13.2604 C   0  0  1  0  0  0  0  0  0  0  0  0
    1.6105   36.8900  -10.6078 O   0  0  0  0  0  0  0  0  0  0  0  0
    6.1312   33.0649  -14.3404 O   0  0  0  0  0  0  0  0  0  0  0  0
    1.7921   35.1383  -12.0182 C   0  0  1  0  0  0  0  0  0  0  0  0
    5.9929   35.1856  -13.7670 C   0  0  1  0  0  0  0  0  0  0  0  0
    1.8532   33.8041  -11.7647 O   0  0  0  0  0  0  0  0  0  0  0  0
    6.6220   36.0300  -12.9406 O   0  0  0  0  0  0  0  0  0  0  0  0
    0.2987   35.6147  -12.0727 C   0  0  1  0  0  0  0  0  0  0  0  0
    6.6241   35.2099  -15.1778 C   0  0  1  0  0  0  0  0  0  0  0  0
   -0.5966   34.5506  -11.5439 O   0  0  0  0  0  0  0  0  0  0  0  0
    8.0084   35.7809  -15.1235 O   0  0  0  0  0  0  0  0  0  0  0  0
    0.2246   36.6863  -11.3504 C   0  0  2  0  0  0  0  0  0  0  0  0
    6.6807   33.9737  -15.5378 C   0  0  2  0  0  0  0  0  0  0  0  0
   -1.8731   39.1709  -15.6222 N   0  0  0  0  0  0  0  0  0  0  0  0
   -1.9634   37.8378  -15.3545 C   0  0  0  0  0  0  0  0  0  0  0  0
   -1.3914   37.2987  -14.2303 N   0  0  0  0  0  0  0  0  0  0  0  0
   -0.7179   38.1204  -13.3693 C   0  0  0  0  0  0  0  0  0  0  0  0
   -0.6144   39.4325  -13.6228 C   0  0  0  0  0  0  0  0  0  0  0  0
   -1.2067   39.9737  -14.7625 C   0  0  0  0  0  0  0  0  0  0  0  0
   -1.1718   41.3299  -15.1424 N   0  0  0  0  0  0  0  0  0  0  0  0
    0.0896   39.9939  -12.6170 N   0  0  0  0  0  0  0  0  0  0  0  0
    0.4270   39.0061  -11.7396 C   0  0  0  0  0  0  0  0  0  0  0  0
   -0.0844   37.8538  -12.1922 N   0  0  0  0  0  0  0  0  0  0  0  0
    2.1806   34.5263  -18.0998 N   0  0  0  0  0  0  0  0  0  0  0  0
    2.4826   35.0170  -16.8692 C   0  0  0  0  0  0  0  0  0  0  0  0
    3.7149   34.7757  -16.3304 N   0  0  0  0  0  0  0  0  0  0  0  0
    4.6363   34.0535  -17.0233 C   0  0  0  0  0  0  0  0  0  0  0  0
    4.3451   33.5674  -18.2469 C   0  0  0  0  0  0  0  0  0  0  0  0
    3.0862   33.8146  -18.7865 C   0  0  0  0  0  0  0  0  0  0  0  0
    2.5582   33.3809  -20.0546 N   0  0  0  0  0  0  0  0  0  0  0  0
    5.4371   32.8972  -18.6867 N   0  0  0  0  0  0  0  0  0  0  0  0
    6.4036   32.9790  -17.7281 C   0  0  0  0  0  0  0  0  0  0  0  0
    5.8998   33.6985  -16.7051 N   0  0  0  0  0  0  0  0  0  0  0  0
  1  3  1  1  0  0  0
  1  5  2  0  0  0  0
  1  9  1  0  0  0  0
  1 18  1  0  0  0  0
  2  4  1  6  0  0  0
  2  6  2  0  0  0  0
  2 10  1  0  0  0  0
  2 17  1  0  0  0  0
  7  9  1  0  0  0  0
  8 10  1  0  0  0  0
 11  7  1  6  0  0  0
 11 13  1  0  0  0  0
 11 15  1  0  0  0  0
 12  8  1  6  0  0  0
 12 14  1  0  0  0  0
 12 16  1  0  0  0  0
 13 23  1  0  0  0  0
 14 24  1  0  0  0  0
 15 17  1  1  0  0  0
 15 19  1  0  0  0  0
 16 18  1  1  0  0  0
 16 20  1  0  0  0  0
 19 21  1  1  0  0  0
 19 23  1  0  0  0  0
 20 22  1  1  0  0  0
 20 24  1  0  0  0  0
 23 34  1  6  0  0  0
 24 44  1  6  0  0  0
 25 26  2  0  0  0  0
 25 30  1  0  0  0  0
 26 27  1  0  0  0  0
 27 28  2  0  0  0  0
 28 29  1  0  0  0  0
 28 34  1  0  0  0  0
 29 30  2  0  0  0  0
 29 32  1  0  0  0  0
 30 31  1  0  0  0  0
 32 33  2  0  0  0  0
 33 34  1  0  0  0  0
 35 36  2  0  0  0  0
 35 40  1  0  0  0  0
 36 37  1  0  0  0  0
 37 38  2  0  0  0  0
 38 39  1  0  0  0  0
 38 44  1  0  0  0  0
 39 40  2  0  0  0  0
 39 42  1  0  0  0  0
 40 41  1  0  0  0  0
 42 43  2  0  0  0  0
 43 44  1  0  0  0  0
M  CHG  2   3  -1   4  -1
M  END
>  <CHROM.1>
147.32407189,73.85566222,2.94959041,35.62546040,-14.03912675,-0.58679150
-0.46453379,1.17112914

>  <Name>
ligand

>  <RI>
0

>  <Rbt.Current_Directory>
/home/itssahil/PROJECTS/Mol_Feturizer/New_Systems/rnas/4QLM

>  <Rbt.Executable>
rbdock ($Id: //depot/dev/client3/rdock/2013.1/src/exe/rbdock.cxx#4 $)

>  <Rbt.Library>
libRbt.so (2013.1, Build901 2013/11/27)

>  <Rbt.Parameter_File>
/export/apps/rDock/src/rDock_2013.1_src/data/scripts/dock_solv.prm

>  <Rbt.Receptor>
prm/blind_docking_80.prm

>  <SCORE>
36.9262

>  <SCORE.INTER>
26.104

>  <SCORE.INTER.CONST>
1

>  <SCORE.INTER.POLAR>
0

>  <SCORE.INTER.ROT>
2

>  <SCORE.INTER.SOLV>
49.7128

>  <SCORE.INTER.VDW>
-4.10157

>  <SCORE.INTER.norm>
0.593274

>  <SCORE.INTRA>
-0.552194

>  <SCORE.INTRA.DIHEDRAL>
0.181699

>  <SCORE.INTRA.DIHEDRAL.0>
2.32994

>  <SCORE.INTRA.POLAR>
0

>  <SCORE.INTRA.POLAR.0>
0

>  <SCORE.INTRA.REPUL>
0

>  <SCORE.INTRA.REPUL.0>
0

>  <SCORE.INTRA.SOLV>
0.405973

>  <SCORE.INTRA.SOLV.lig_0>
-117.703

>  <SCORE.INTRA.VDW>
-0.846031

>  <SCORE.INTRA.VDW.0>
-1.59997

>  <SCORE.INTRA.norm>
-0.0125499

>  <SCORE.RESTR>
11.3744

>  <SCORE.RESTR.CAVITY>
11.3744

>  <SCORE.RESTR.norm>
0.258509

>  <SCORE.SYSTEM>
0

>  <SCORE.SYSTEM.CONST>
0

>  <SCORE.SYSTEM.DIHEDRAL>
0

>  <SCORE.SYSTEM.SOLV>
0

>  <SCORE.SYSTEM.norm>
0

>  <SCORE.heavy>
44

>  <SCORE.norm>
0.839232

>  <RMSD>
11.657

$$$$
ligand
 OpenBabel11021811513D
libRbt.so/2013.1/901 2013/11/27
 44 50  0  0  0  0  0  0  0  0999 V2000
    2.9642   33.9086  -13.8200 P   0  0  2  0  0  0  0  0  0  0  0  0
    1.0296   37.0862   -9.9001 P   0  0  1  0  0  0  0  0  0  0  0  0
    3.6484   32.5575  -13.6282 O   0  5  0  0  0  0  0  0  0  0  0  0
    1.4529   38.4820  -10.2883 O   0  5  0  0  0  0  0  0  0  0  0  0
    3.4903   34.4638  -15.1217 O   0  0  0  0  0  0  0  0  0  0  0  0
   -0.0192   37.2194   -8.7725 O   0  0  0  0  0  0  0  0  0  0  0  0
    3.6075   33.9965  -11.3665 C   0  0  0  0  0  0  0  0  0  0  0  0
    0.2282   34.9767  -11.1554 C   0  0  0  0  0  0  0  0  0  0  0  0
    3.3656   34.7475  -12.5639 O   0  0  0  0  0  0  0  0  0  0  0  0
    0.5700   36.3826  -11.3138 O   0  0  0  0  0  0  0  0  0  0  0  0
    4.0342   34.9297  -10.2384 C   0  0  1  0  0  0  0  0  0  0  0  0
   -0.3175   34.4964  -12.5530 C   0  0  1  0  0  0  0  0  0  0  0  0
    5.3127   35.1249  -10.3371 O   0  0  0  0  0  0  0  0  0  0  0  0
   -1.2085   35.3439  -12.8720 O   0  0  0  0  0  0  0  0  0  0  0  0
    3.3812   36.2908  -10.3114 C   0  0  1  0  0  0  0  0  0  0  0  0
    0.7422   34.6915  -13.6557 C   0  0  1  0  0  0  0  0  0  0  0  0
    2.3546   36.2778   -9.4203 O   0  0  0  0  0  0  0  0  0  0  0  0
    1.3523   33.5384  -13.9558 O   0  0  0  0  0  0  0  0  0  0  0  0
    4.5097   37.2671   -9.8281 C   0  0  1  0  0  0  0  0  0  0  0  0
    0.0093   35.2728  -14.8863 C   0  0  1  0  0  0  0  0  0  0  0  0
    4.2722   37.6621   -8.4135 O   0  0  0  0  0  0  0  0  0  0  0  0
   -0.2214   34.2053  -15.9122 O   0  0  0  0  0  0  0  0  0  0  0  0
    5.6296   36.6296   -9.9513 C   0  0  2  0  0  0  0  0  0  0  0  0
   -1.1234   35.6879  -14.4328 C   0  0  2  0  0  0  0  0  0  0  0  0
    7.2707   37.5434  -14.9805 N   0  0  0  0  0  0  0  0  0  0  0  0
    6.2439   36.7249  -14.6160 C   0  0  0  0  0  0  0  0  0  0  0  0
    5.9010   36.5594  -13.2982 N   0  0  0  0  0  0  0  0  0  0  0  0
    6.6090   37.2295  -12.3391 C   0  0  0  0  0  0  0  0  0  0  0  0
    7.6261   38.0324  -12.6817 C   0  0  0  0  0  0  0  0  0  0  0  0
    7.9619   38.2023  -14.0237 C   0  0  0  0  0  0  0  0  0  0  0  0
    9.0038   39.0138  -14.5144 N   0  0  0  0  0  0  0  0  0  0  0  0
    8.1353   38.5613  -11.5489 N   0  0  0  0  0  0  0  0  0  0  0  0
    7.4212   38.0667  -10.4978 C   0  0  0  0  0  0  0  0  0  0  0  0
    6.4692   37.2594  -10.9836 N   0  0  0  0  0  0  0  0  0  0  0  0
    0.4657   40.5185  -13.3100 N   0  0  0  0  0  0  0  0  0  0  0  0
    1.0102   39.3572  -12.8615 C   0  0  0  0  0  0  0  0  0  0  0  0
    0.4666   38.1640  -13.2465 N   0  0  0  0  0  0  0  0  0  0  0  0
   -0.6095   38.1380  -14.0782 C   0  0  0  0  0  0  0  0  0  0  0  0
   -1.1523   39.2863  -14.5308 C   0  0  0  0  0  0  0  0  0  0  0  0
   -0.5948   40.4972  -14.1305 C   0  0  0  0  0  0  0  0  0  0  0  0
   -1.0187   41.8309  -14.4721 N   0  0  0  0  0  0  0  0  0  0  0  0
   -2.1974   38.9543  -15.3263 N   0  0  0  0  0  0  0  0  0  0  0  0
   -2.2904   37.5943  -15.3643 C   0  0  0  0  0  0  0  0  0  0  0  0
   -1.3024   37.0989  -14.5919 N   0  0  0  0  0  0  0  0  0  0  0  0
  1  3  1  1  0  0  0
  1  5  2  0  0  0  0
  1  9  1  0  0  0  0
  1 18  1  0  0  0  0
  2  4  1  6  0  0  0
  2  6  2  0  0  0  0
  2 10  1  0  0  0  0
  2 17  1  0  0  0  0
  7  9  1  0  0  0  0
  8 10  1  0  0  0  0
 11  7  1  6  0  0  0
 11 13  1  0  0  0  0
 11 15  1  0  0  0  0
 12  8  1  1  0  0  0
 12 14  1  0  0  0  0
 12 16  1  0  0  0  0
 13 23  1  0  0  0  0
 14 24  1  0  0  0  0
 15 17  1  1  0  0  0
 15 19  1  0  0  0  0
 16 18  1  6  0  0  0
 16 20  1  0  0  0  0
 19 21  1  1  0  0  0
 19 23  1  0  0  0  0
 20 22  1  6  0  0  0
 20 24  1  0  0  0  0
 23 34  1  6  0  0  0
 24 44  1  1  0  0  0
 25 26  2  0  0  0  0
 25 30  1  0  0  0  0
 26 27  1  0  0  0  0
 27 28  2  0  0  0  0
 28 29  1  0  0  0  0
 28 34  1  0  0  0  0
 29 30  2  0  0  0  0
 29 32  1  0  0  0  0
 30 31  1  0  0  0  0
 32 33  2  0  0  0  0
 33 34  1  0  0  0  0
 35 36  2  0  0  0  0
 35 40  1  0  0  0  0
 36 37  1  0  0  0  0
 37 38  2  0  0  0  0
 38 39  1  0  0  0  0
 38 44  1  0  0  0  0
 39 40  2  0  0  0  0
 39 42  1  0  0  0  0
 40 41  1  0  0  0  0
 42 43  2  0  0  0  0
 43 44  1  0  0  0  0
M  CHG  2   3  -1   4  -1
M  END
>  <CHROM.1>
36.19850148,57.86543249,2.53583708,36.66517711,-12.55064698,-0.03476070,0.24266149
-2.91821951

>  <Name>
ligand

>  <RI>
0

>  <Rbt.Current_Directory>
/home/itssahil/PROJECTS/Mol_Feturizer/New_Systems/rnas/4QLM

>  <Rbt.Executable>
rbdock ($Id: //depot/dev/client3/rdock/2013.1/src/exe/rbdock.cxx#4 $)

>  <Rbt.Library>
libRbt.so (2013.1, Build901 2013/11/27)

>  <Rbt.Parameter_File>
/export/apps/rDock/src/rDock_2013.1_src/data/scripts/dock_solv.prm

>  <Rbt.Receptor>
prm/blind_docking_80.prm

>  <SCORE>
30.5843

>  <SCORE.INTER>
17.9823

>  <SCORE.INTER.CONST>
1

>  <SCORE.INTER.POLAR>
0

>  <SCORE.INTER.ROT>
2

>  <SCORE.INTER.SOLV>
34.8764

>  <SCORE.INTER.VDW>
-4.57057

>  <SCORE.INTER.norm>
0.408689

>  <SCORE.INTRA>
-1.55369

>  <SCORE.INTRA.DIHEDRAL>
0.164648

>  <SCORE.INTRA.DIHEDRAL.0>
2.32994

>  <SCORE.INTRA.POLAR>
0

>  <SCORE.INTRA.POLAR.0>
0

>  <SCORE.INTRA.REPUL>
0

>  <SCORE.INTRA.REPUL.0>
0

>  <SCORE.INTRA.SOLV>
1.4525

>  <SCORE.INTRA.SOLV.lig_0>
-117.703

>  <SCORE.INTRA.VDW>
-2.36226

>  <SCORE.INTRA.VDW.0>
-1.59997

>  <SCORE.INTRA.norm>
-0.0353112

>  <SCORE.RESTR>
14.1557

>  <SCORE.RESTR.CAVITY>
14.1557

>  <SCORE.RESTR.norm>
0.32172

>  <SCORE.SYSTEM>
0

>  <SCORE.SYSTEM.CONST>
0

>  <SCORE.SYSTEM.DIHEDRAL>
0

>  <SCORE.SYSTEM.SOLV>
0

>  <SCORE.SYSTEM.norm>
0

>  <SCORE.heavy>
44

>  <SCORE.norm>
0.695098

>  <RMSD>
11.843

$$$$
ligand
 OpenBabel11021811513D
libRbt.so/2013.1/901 2013/11/27
 44 50  0  0  0  0  0  0  0  0999 V2000
    3.2298   33.9619  -12.4425 P   0  0  2  0  0  0  0  0  0  0  0  0
    1.5506   38.0623   -9.3485 P   0  0  1  0  0  0  0  0  0  0  0  0
    3.9858   32.7246  -11.9649 O   0  5  0  0  0  0  0  0  0  0  0  0
    1.8751   39.3046  -10.1419 O   0  5  0  0  0  0  0  0  0  0  0  0
    3.6038   34.1475  -13.8934 O   0  0  0  0  0  0  0  0  0  0  0  0
    0.6110   38.4836   -8.1958 O   0  0  0  0  0  0  0  0  0  0  0  0
    4.1029   34.7265  -10.1854 C   0  0  0  0  0  0  0  0  0  0  0  0
    0.7214   35.6786   -9.8955 C   0  0  0  0  0  0  0  0  0  0  0  0
    3.7150   35.1179  -11.5093 O   0  0  0  0  0  0  0  0  0  0  0  0
    0.9866   36.9925  -10.4631 O   0  0  0  0  0  0  0  0  0  0  0  0
    4.5969   35.9385   -9.4028 C   0  0  1  0  0  0  0  0  0  0  0  0
    0.0640   34.8268  -11.0460 C   0  0  1  0  0  0  0  0  0  0  0  0
    5.8505   36.1175   -9.6837 O   0  0  0  0  0  0  0  0  0  0  0  0
   -0.8886   35.5420  -11.4875 O   0  0  0  0  0  0  0  0  0  0  0  0
    3.8830   37.2183   -9.7727 C   0  0  1  0  0  0  0  0  0  0  0  0
    1.0030   34.7280  -12.2649 C   0  0  1  0  0  0  0  0  0  0  0  0
    2.9487   37.4348   -8.8090 O   0  0  0  0  0  0  0  0  0  0  0  0
    1.6294   33.5457  -12.3038 O   0  0  0  0  0  0  0  0  0  0  0  0
    5.0106   38.3056   -9.6921 C   0  0  1  0  0  0  0  0  0  0  0  0
    0.1307   34.9402  -13.5232 C   0  0  1  0  0  0  0  0  0  0  0  0
    4.8945   39.0690   -8.4204 O   0  0  0  0  0  0  0  0  0  0  0  0
   -0.1527   33.6297  -14.1922 O   0  0  0  0  0  0  0  0  0  0  0  0
    6.1393   37.6748   -9.7547 C   0  0  2  0  0  0  0  0  0  0  0  0
   -0.9694   35.4473  -13.0832 C   0  0  2  0  0  0  0  0  0  0  0  0
    7.3604   37.0958  -14.9503 N   0  0  0  0  0  0  0  0  0  0  0  0
    6.4406   36.3613  -14.2635 C   0  0  0  0  0  0  0  0  0  0  0  0
    6.2002   36.5892  -12.9324 N   0  0  0  0  0  0  0  0  0  0  0  0
    6.9024   37.5713  -12.2900 C   0  0  0  0  0  0  0  0  0  0  0  0
    7.8153   38.2971  -12.9503 C   0  0  0  0  0  0  0  0  0  0  0  0
    8.0467   38.0654  -14.3051 C   0  0  0  0  0  0  0  0  0  0  0  0
    8.9740   38.7552  -15.1109 N   0  0  0  0  0  0  0  0  0  0  0  0
    8.3444   39.1853  -12.0823 N   0  0  0  0  0  0  0  0  0  0  0  0
    7.7491   38.9926  -10.8709 C   0  0  0  0  0  0  0  0  0  0  0  0
    6.8478   38.0103  -11.0007 N   0  0  0  0  0  0  0  0  0  0  0  0
    0.4786   40.4379  -13.4254 N   0  0  0  0  0  0  0  0  0  0  0  0
    1.1055   39.4540  -12.7287 C   0  0  0  0  0  0  0  0  0  0  0  0
    0.5896   38.1887  -12.7353 N   0  0  0  0  0  0  0  0  0  0  0  0
   -0.5415   37.9136  -13.4393 C   0  0  0  0  0  0  0  0  0  0  0  0
   -1.1663   38.8839  -14.1366 C   0  0  0  0  0  0  0  0  0  0  0  0
   -0.6362   40.1707  -14.1212 C   0  0  0  0  0  0  0  0  0  0  0  0
   -1.1428   41.3523  -14.7711 N   0  0  0  0  0  0  0  0  0  0  0  0
   -2.2500   38.3248  -14.7265 N   0  0  0  0  0  0  0  0  0  0  0  0
   -2.2846   37.0032  -14.3920 C   0  0  0  0  0  0  0  0  0  0  0  0
   -1.2223   36.7582  -13.5984 N   0  0  0  0  0  0  0  0  0  0  0  0
  1  3  1  1  0  0  0
  1  5  2  0  0  0  0
  1  9  1  0  0  0  0
  1 18  1  0  0  0  0
  2  4  1  6  0  0  0
  2  6  2  0  0  0  0
  2 10  1  0  0  0  0
  2 17  1  0  0  0  0
  7  9  1  0  0  0  0
  8 10  1  0  0  0  0
 11  7  1  6  0  0  0
 11 13  1  0  0  0  0
 11 15  1  0  0  0  0
 12  8  1  1  0  0  0
 12 14  1  0  0  0  0
 12 16  1  0  0  0  0
 13 23  1  0  0  0  0
 14 24  1  0  0  0  0
 15 17  1  1  0  0  0
 15 19  1  0  0  0  0
 16 18  1  6  0  0  0
 16 20  1  0  0  0  0
 19 21  1  1  0  0  0
 19 23  1  0  0  0  0
 20 22  1  1  0  0  0
 20 24  1  0  0  0  0
 23 34  1  6  0  0  0
 24 44  1  6  0  0  0
 25 26  2  0  0  0  0
 25 30  1  0  0  0  0
 26 27  1  0  0  0  0
 27 28  2  0  0  0  0
 28 29  1  0  0  0  0
 28 34  1  0  0  0  0
 29 30  2  0  0  0  0
 29 32  1  0  0  0  0
 30 31  1  0  0  0  0
 32 33  2  0  0  0  0
 33 34  1  0  0  0  0
 35 36  2  0  0  0  0
 35 40  1  0  0  0  0
 36 37  1  0  0  0  0
 37 38  2  0  0  0  0
 38 39  1  0  0  0  0
 38 44  1  0  0  0  0
 39 40  2  0  0  0  0
 39 42  1  0  0  0  0
 40 41  1  0  0  0  0
 42 43  2  0  0  0  0
 43 44  1  0  0  0  0
M  CHG  2   3  -1   4  -1
M  END
>  <CHROM.1>
32.20991315,56.42087477,2.81512435,36.94830880,-11.92173710,-0.06222528,0.12822234
-3.08480570

>  <Name>
ligand

>  <RI>
0

>  <Rbt.Current_Directory>
/home/itssahil/PROJECTS/Mol_Feturizer/New_Systems/rnas/4QLM

>  <Rbt.Executable>
rbdock ($Id: //depot/dev/client3/rdock/2013.1/src/exe/rbdock.cxx#4 $)

>  <Rbt.Library>
libRbt.so (2013.1, Build901 2013/11/27)

>  <Rbt.Parameter_File>
/export/apps/rDock/src/rDock_2013.1_src/data/scripts/dock_solv.prm

>  <Rbt.Receptor>
prm/blind_docking_80.prm

>  <SCORE>
22.439

>  <SCORE.INTER>
7.26166

>  <SCORE.INTER.CONST>
1

>  <SCORE.INTER.POLAR>
0

>  <SCORE.INTER.ROT>
2

>  <SCORE.INTER.SOLV>
34.483

>  <SCORE.INTER.VDW>
-11.5866

>  <SCORE.INTER.norm>
0.165038

>  <SCORE.INTRA>
-1.34691

>  <SCORE.INTRA.DIHEDRAL>
0.170439

>  <SCORE.INTRA.DIHEDRAL.0>
2.32994

>  <SCORE.INTRA.POLAR>
0

>  <SCORE.INTRA.POLAR.0>
0

>  <SCORE.INTRA.REPUL>
0

>  <SCORE.INTRA.REPUL.0>
0

>  <SCORE.INTRA.SOLV>
1.49948

>  <SCORE.INTRA.SOLV.lig_0>
-117.703

>  <SCORE.INTRA.VDW>
-2.18187

>  <SCORE.INTRA.VDW.0>
-1.59997

>  <SCORE.INTRA.norm>
-0.0306115

>  <SCORE.RESTR>
16.5242

>  <SCORE.RESTR.CAVITY>
16.5242

>  <SCORE.RESTR.norm>
0.375551

>  <SCORE.SYSTEM>
0

>  <SCORE.SYSTEM.CONST>
0

>  <SCORE.SYSTEM.DIHEDRAL>
0

>  <SCORE.SYSTEM.SOLV>
0

>  <SCORE.SYSTEM.norm>
0

>  <SCORE.heavy>
44

>  <SCORE.norm>
0.509977

>  <RMSD>
12.079

$$$$
ligand
 OpenBabel11021811513D
libRbt.so/2013.1/901 2013/11/27
 44 50  0  0  0  0  0  0  0  0999 V2000
    2.4327   35.8438  -10.3003 P   0  0  2  0  0  0  0  0  0  0  0  0
    4.6533   34.2978  -14.9784 P   0  0  1  0  0  0  0  0  0  0  0  0
    1.4642   35.0259   -9.4498 O   0  5  0  0  0  0  0  0  0  0  0  0
    4.5698   35.5143  -15.8678 O   0  5  0  0  0  0  0  0  0  0  0  0
    2.1494   37.2923   -9.9823 O   0  0  0  0  0  0  0  0  0  0  0  0
    5.6060   33.2910  -15.6624 O   0  0  0  0  0  0  0  0  0  0  0  0
    1.6150   34.1120  -11.9657 C   0  0  0  0  0  0  0  0  0  0  0  0
    5.0945   33.8621  -12.4716 C   0  0  0  0  0  0  0  0  0  0  0  0
    2.1119   35.4438  -11.7767 O   0  0  0  0  0  0  0  0  0  0  0  0
    5.0729   34.8896  -13.5024 O   0  0  0  0  0  0  0  0  0  0  0  0
    1.3005   33.8727  -13.4385 C   0  0  1  0  0  0  0  0  0  0  0  0
    5.6437   34.5572  -11.1690 C   0  0  1  0  0  0  0  0  0  0  0  0
    0.1055   34.3186  -13.6744 O   0  0  0  0  0  0  0  0  0  0  0  0
    6.7179   35.1337  -11.5264 O   0  0  0  0  0  0  0  0  0  0  0  0
    2.2306   34.6102  -14.3742 C   0  0  1  0  0  0  0  0  0  0  0  0
    4.7477   35.7419  -10.7561 C   0  0  1  0  0  0  0  0  0  0  0  0
    3.1511   33.7051  -14.8006 O   0  0  0  0  0  0  0  0  0  0  0  0
    3.9353   35.4104   -9.7452 O   0  0  0  0  0  0  0  0  0  0  0  0
    1.2973   35.0377  -15.5600 C   0  0  1  0  0  0  0  0  0  0  0  0
    5.6896   36.9015  -10.3590 C   0  0  1  0  0  0  0  0  0  0  0  0
    1.4910   34.1238  -16.7179 O   0  0  0  0  0  0  0  0  0  0  0  0
    5.7760   37.0200   -8.8678 O   0  0  0  0  0  0  0  0  0  0  0  0
    0.0826   34.9761  -15.1169 C   0  0  2  0  0  0  0  0  0  0  0  0
    6.8414   36.5711  -10.8334 C   0  0  2  0  0  0  0  0  0  0  0  0
   -3.3689   38.8214  -16.5735 N   0  0  0  0  0  0  0  0  0  0  0  0
   -3.3374   37.5524  -17.0693 C   0  0  0  0  0  0  0  0  0  0  0  0
   -2.4126   36.6404  -16.6283 N   0  0  0  0  0  0  0  0  0  0  0  0
   -1.5079   37.0203  -15.6757 C   0  0  0  0  0  0  0  0  0  0  0  0
   -1.5219   38.2670  -15.1838 C   0  0  0  0  0  0  0  0  0  0  0  0
   -2.4710   39.1847  -15.6305 C   0  0  0  0  0  0  0  0  0  0  0  0
   -2.5926   40.5195  -15.1961 N   0  0  0  0  0  0  0  0  0  0  0  0
   -0.5348   38.3613  -14.2678 N   0  0  0  0  0  0  0  0  0  0  0  0
    0.0958   37.1540  -14.2057 C   0  0  0  0  0  0  0  0  0  0  0  0
   -0.5132   36.3211  -15.0597 N   0  0  0  0  0  0  0  0  0  0  0  0
    9.4613   37.3951  -15.2581 N   0  0  0  0  0  0  0  0  0  0  0  0
    9.2477   36.1995  -14.6488 C   0  0  0  0  0  0  0  0  0  0  0  0
    8.5411   36.1545  -13.4800 N   0  0  0  0  0  0  0  0  0  0  0  0
    8.0493   37.2984  -12.9322 C   0  0  0  0  0  0  0  0  0  0  0  0
    8.2534   38.4878  -13.5337 C   0  0  0  0  0  0  0  0  0  0  0  0
    8.9776   38.5250  -14.7217 C   0  0  0  0  0  0  0  0  0  0  0  0
    9.3286   39.6736  -15.5171 N   0  0  0  0  0  0  0  0  0  0  0  0
    7.6594   39.4354  -12.7693 N   0  0  0  0  0  0  0  0  0  0  0  0
    7.0839   38.8204  -11.6967 C   0  0  0  0  0  0  0  0  0  0  0  0
    7.3280   37.4990  -11.8083 N   0  0  0  0  0  0  0  0  0  0  0  0
  1  3  1  1  0  0  0
  1  5  2  0  0  0  0
  1  9  1  0  0  0  0
  1 18  1  0  0  0  0
  2  4  1  6  0  0  0
  2  6  2  0  0  0  0
  2 10  1  0  0  0  0
  2 17  1  0  0  0  0
  7  9  1  0  0  0  0
  8 10  1  0  0  0  0
 11  7  1  1  0  0  0
 11 13  1  0  0  0  0
 11 15  1  0  0  0  0
 12  8  1  6  0  0  0
 12 14  1  0  0  0  0
 12 16  1  0  0  0  0
 13 23  1  0  0  0  0
 14 24  1  0  0  0  0
 15 17  1  6  0  0  0
 15 19  1  0  0  0  0
 16 18  1  1  0  0  0
 16 20  1  0  0  0  0
 19 21  1  6  0  0  0
 19 23  1  0  0  0  0
 20 22  1  1  0  0  0
 20 24  1  0  0  0  0
 23 34  1  1  0  0  0
 24 44  1  6  0  0  0
 25 26  2  0  0  0  0
 25 30  1  0  0  0  0
 26 27  1  0  0  0  0
 27 28  2  0  0  0  0
 28 29  1  0  0  0  0
 28 34  1  0  0  0  0
 29 30  2  0  0  0  0
 29 32  1  0  0  0  0
 30 31  1  0  0  0  0
 32 33  2  0  0  0  0
 33 34  1  0  0  0  0
 35 36  2  0  0  0  0
 35 40  1  0  0  0  0
 36 37  1  0  0  0  0
 37 38  2  0  0  0  0
 38 39  1  0  0  0  0
 38 44  1  0  0  0  0
 39 40  2  0  0  0  0
 39 42  1  0  0  0  0
 40 41  1  0  0  0  0
 42 43  2  0  0  0  0
 43 44  1  0  0  0  0
M  CHG  2   3  -1   4  -1
M  END
>  <CHROM.1>
-126.81934573,-24.10053091,3.41301814,36.23517328,-13.41687169,2.86598294
-0.05745726,-1.29662477

>  <Name>
ligand

>  <RI>
0

>  <Rbt.Current_Directory>
/home/itssahil/PROJECTS/Mol_Feturizer/New_Systems/rnas/4QLM

>  <Rbt.Executable>
rbdock ($Id: //depot/dev/client3/rdock/2013.1/src/exe/rbdock.cxx#4 $)

>  <Rbt.Library>
libRbt.so (2013.1, Build901 2013/11/27)

>  <Rbt.Parameter_File>
/export/apps/rDock/src/rDock_2013.1_src/data/scripts/dock_solv.prm

>  <Rbt.Receptor>
prm/blind_docking_100.prm

>  <SCORE>
51.9771

>  <SCORE.INTER>
25.2675

>  <SCORE.INTER.CONST>
1

>  <SCORE.INTER.POLAR>
0

>  <SCORE.INTER.ROT>
2

>  <SCORE.INTER.SOLV>
44.2923

>  <SCORE.INTER.VDW>
-2.85244

>  <SCORE.INTER.norm>
0.574261

>  <SCORE.INTRA>
1.15796

>  <SCORE.INTRA.DIHEDRAL>
0.052554

>  <SCORE.INTRA.DIHEDRAL.0>
2.32994

>  <SCORE.INTRA.POLAR>
0

>  <SCORE.INTRA.POLAR.0>
0

>  <SCORE.INTRA.REPUL>
0

>  <SCORE.INTRA.REPUL.0>
0

>  <SCORE.INTRA.SOLV>
0.0847143

>  <SCORE.INTRA.SOLV.lig_0>
-117.703

>  <SCORE.INTRA.VDW>
1.08932

>  <SCORE.INTRA.VDW.0>
-1.59997

>  <SCORE.INTRA.norm>
0.0263172

>  <SCORE.RESTR>
25.5517

>  <SCORE.RESTR.CAVITY>
25.5517

>  <SCORE.RESTR.norm>
0.580719

>  <SCORE.SYSTEM>
0

>  <SCORE.SYSTEM.CONST>
0

>  <SCORE.SYSTEM.DIHEDRAL>
0

>  <SCORE.SYSTEM.SOLV>
0

>  <SCORE.SYSTEM.norm>
0

>  <SCORE.heavy>
44

>  <SCORE.norm>
1.1813

>  <RMSD>
12.206

$$$$
ligand
 OpenBabel11021811513D
libRbt.so/2013.1/901 2013/11/27
 44 50  0  0  0  0  0  0  0  0999 V2000
    2.4800   36.0294   -9.9981 P   0  0  2  0  0  0  0  0  0  0  0  0
    4.6071   34.3610  -14.6775 P   0  0  1  0  0  0  0  0  0  0  0  0
    1.5118   35.2428   -9.1180 O   0  5  0  0  0  0  0  0  0  0  0  0
    4.5289   35.5617  -15.5888 O   0  5  0  0  0  0  0  0  0  0  0  0
    2.2234   37.4879   -9.7038 O   0  0  0  0  0  0  0  0  0  0  0  0
    5.5341   33.3269  -15.3560 O   0  0  0  0  0  0  0  0  0  0  0  0
    1.6114   34.2793  -11.6179 C   0  0  0  0  0  0  0  0  0  0  0  0
    5.0788   33.9661  -12.1696 C   0  0  0  0  0  0  0  0  0  0  0  0
    2.1312   35.6066  -11.4617 O   0  0  0  0  0  0  0  0  0  0  0  0
    5.0575   34.9741  -13.2194 O   0  0  0  0  0  0  0  0  0  0  0  0
    1.2714   34.0171  -13.0812 C   0  0  1  0  0  0  0  0  0  0  0  0
    5.6577   34.6771  -10.8886 C   0  0  1  0  0  0  0  0  0  0  0  0
    0.0800   34.4769  -13.3081 O   0  0  0  0  0  0  0  0  0  0  0  0
    6.7351   35.2301  -11.2727 O   0  0  0  0  0  0  0  0  0  0  0  0
    2.1986   34.7222  -14.0442 C   0  0  1  0  0  0  0  0  0  0  0  0
    4.7861   35.8832  -10.4855 C   0  0  1  0  0  0  0  0  0  0  0  0
    3.0989   33.7951  -14.4665 O   0  0  0  0  0  0  0  0  0  0  0  0
    3.9838   35.5834   -9.4567 O   0  0  0  0  0  0  0  0  0  0  0  0
    1.2544   35.1416  -15.2243 C   0  0  1  0  0  0  0  0  0  0  0  0
    5.7512   37.0354  -10.1245 C   0  0  1  0  0  0  0  0  0  0  0  0
    1.4170   34.2030  -16.3671 O   0  0  0  0  0  0  0  0  0  0  0  0
    5.8616   37.1807   -8.6372 O   0  0  0  0  0  0  0  0  0  0  0  0
    0.0456   35.1072  -14.7624 C   0  0  2  0  0  0  0  0  0  0  0  0
    6.8908   36.6783  -10.6092 C   0  0  2  0  0  0  0  0  0  0  0  0
   -3.1077   39.0949  -16.4875 N   0  0  0  0  0  0  0  0  0  0  0  0
   -3.0312   37.8490  -17.0343 C   0  0  0  0  0  0  0  0  0  0  0  0
   -2.1912   36.8964  -16.5163 N   0  0  0  0  0  0  0  0  0  0  0  0
   -1.4180   37.2116  -15.4332 C   0  0  0  0  0  0  0  0  0  0  0  0
   -1.4769   38.4350  -14.8889 C   0  0  0  0  0  0  0  0  0  0  0  0
   -2.3402   39.3942  -15.4156 C   0  0  0  0  0  0  0  0  0  0  0  0
   -2.4965   40.7106  -14.9386 N   0  0  0  0  0  0  0  0  0  0  0  0
   -0.6223   38.4647  -13.8444 N   0  0  0  0  0  0  0  0  0  0  0  0
   -0.0272   37.2412  -13.7552 C   0  0  0  0  0  0  0  0  0  0  0  0
   -0.5287   36.4620  -14.7224 N   0  0  0  0  0  0  0  0  0  0  0  0
    9.2281   37.3615  -15.2125 N   0  0  0  0  0  0  0  0  0  0  0  0
    8.9638   36.1771  -14.6012 C   0  0  0  0  0  0  0  0  0  0  0  0
    8.3461   36.1698  -13.3824 N   0  0  0  0  0  0  0  0  0  0  0  0
    7.9924   37.3404  -12.7865 C   0  0  0  0  0  0  0  0  0  0  0  0
    8.2474   38.5194  -13.3893 C   0  0  0  0  0  0  0  0  0  0  0  0
    8.8805   38.5177  -14.6288 C   0  0  0  0  0  0  0  0  0  0  0  0
    9.2634   39.6472  -15.4367 N   0  0  0  0  0  0  0  0  0  0  0  0
    7.7924   39.4990  -12.5718 N   0  0  0  0  0  0  0  0  0  0  0  0
    7.2510   38.9148  -11.4648 C   0  0  0  0  0  0  0  0  0  0  0  0
    7.3768   37.5800  -11.6086 N   0  0  0  0  0  0  0  0  0  0  0  0
  1  3  1  1  0  0  0
  1  5  2  0  0  0  0
  1  9  1  0  0  0  0
  1 18  1  0  0  0  0
  2  4  1  6  0  0  0
  2  6  2  0  0  0  0
  2 10  1  0  0  0  0
  2 17  1  0  0  0  0
  7  9  1  0  0  0  0
  8 10  1  0  0  0  0
 11  7  1  1  0  0  0
 11 13  1  0  0  0  0
 11 15  1  0  0  0  0
 12  8  1  6  0  0  0
 12 14  1  0  0  0  0
 12 16  1  0  0  0  0
 13 23  1  0  0  0  0
 14 24  1  0  0  0  0
 15 17  1  6  0  0  0
 15 19  1  0  0  0  0
 16 18  1  1  0  0  0
 16 20  1  0  0  0  0
 19 21  1  6  0  0  0
 19 23  1  0  0  0  0
 20 22  1  1  0  0  0
 20 24  1  0  0  0  0
 23 34  1  1  0  0  0
 24 44  1  6  0  0  0
 25 26  2  0  0  0  0
 25 30  1  0  0  0  0
 26 27  1  0  0  0  0
 27 28  2  0  0  0  0
 28 29  1  0  0  0  0
 28 34  1  0  0  0  0
 29 30  2  0  0  0  0
 29 32  1  0  0  0  0
 30 31  1  0  0  0  0
 32 33  2  0  0  0  0
 33 34  1  0  0  0  0
 35 36  2  0  0  0  0
 35 40  1  0  0  0  0
 36 37  1  0  0  0  0
 37 38  2  0  0  0  0
 38 39  1  0  0  0  0
 38 44  1  0  0  0  0
 39 40  2  0  0  0  0
 39 42  1  0  0  0  0
 40 41  1  0  0  0  0
 42 43  2  0  0  0  0
 43 44  1  0  0  0  0
M  CHG  2   3  -1   4  -1
M  END
>  <CHROM.1>
-136.24282708,-18.59312679,3.42016603,36.35350674,-13.16110736,0.28491896
0.04047376,1.83920379

>  <Name>
ligand

>  <RI>
0

>  <Rbt.Current_Directory>
/home/itssahil/PROJECTS/Mol_Feturizer/New_Systems/rnas/4QLM

>  <Rbt.Executable>
rbdock ($Id: //depot/dev/client3/rdock/2013.1/src/exe/rbdock.cxx#4 $)

>  <Rbt.Library>
libRbt.so (2013.1, Build901 2013/11/27)

>  <Rbt.Parameter_File>
/export/apps/rDock/src/rDock_2013.1_src/data/scripts/dock_solv.prm

>  <Rbt.Receptor>
prm/blind_docking_80.prm

>  <SCORE>
35.1117

>  <SCORE.INTER>
24.6988

>  <SCORE.INTER.CONST>
1

>  <SCORE.INTER.POLAR>
0

>  <SCORE.INTER.ROT>
2

>  <SCORE.INTER.SOLV>
41.322

>  <SCORE.INTER.VDW>
-2.24148

>  <SCORE.INTER.norm>
0.561336

>  <SCORE.INTRA>
0.524187

>  <SCORE.INTRA.DIHEDRAL>
0.00676565

>  <SCORE.INTRA.DIHEDRAL.0>
2.32994

>  <SCORE.INTRA.POLAR>
0

>  <SCORE.INTRA.POLAR.0>
0

>  <SCORE.INTRA.REPUL>
0

>  <SCORE.INTRA.REPUL.0>
0

>  <SCORE.INTRA.SOLV>
0.081749

>  <SCORE.INTRA.SOLV.lig_0>
-117.703

>  <SCORE.INTRA.VDW>
0.479929

>  <SCORE.INTRA.VDW.0>
-1.59997

>  <SCORE.INTRA.norm>
0.0119133

>  <SCORE.RESTR>
9.88877

>  <SCORE.RESTR.CAVITY>
9.88877

>  <SCORE.RESTR.norm>
0.224745

>  <SCORE.SYSTEM>
0

>  <SCORE.SYSTEM.CONST>
0

>  <SCORE.SYSTEM.DIHEDRAL>
0

>  <SCORE.SYSTEM.SOLV>
0

>  <SCORE.SYSTEM.norm>
0

>  <SCORE.heavy>
44

>  <SCORE.norm>
0.797994

>  <RMSD>
12.284

$$$$
ligand
 OpenBabel11021811513D
libRbt.so/2013.1/901 2013/11/27
 44 50  0  0  0  0  0  0  0  0999 V2000
    2.4907   36.0063  -10.0047 P   0  0  2  0  0  0  0  0  0  0  0  0
    4.6274   34.3751  -14.6929 P   0  0  1  0  0  0  0  0  0  0  0  0
    1.5222   35.2120   -9.1320 O   0  5  0  0  0  0  0  0  0  0  0  0
    4.5491   35.5823  -15.5954 O   0  5  0  0  0  0  0  0  0  0  0  0
    2.2318   37.4622   -9.7001 O   0  0  0  0  0  0  0  0  0  0  0  0
    5.5569   33.3472  -15.3774 O   0  0  0  0  0  0  0  0  0  0  0  0
    1.6269   34.2670  -11.6387 C   0  0  0  0  0  0  0  0  0  0  0  0
    5.0956   33.9624  -12.1871 C   0  0  0  0  0  0  0  0  0  0  0  0
    2.1448   35.5938  -11.4720 O   0  0  0  0  0  0  0  0  0  0  0  0
    5.0747   34.9780  -13.2295 O   0  0  0  0  0  0  0  0  0  0  0  0
    1.2897   34.0151  -13.1044 C   0  0  1  0  0  0  0  0  0  0  0  0
    5.6716   34.6647  -10.9001 C   0  0  1  0  0  0  0  0  0  0  0  0
    0.0980   34.4750  -13.3298 O   0  0  0  0  0  0  0  0  0  0  0  0
    6.7489   35.2219  -11.2783 O   0  0  0  0  0  0  0  0  0  0  0  0
    2.2175   34.7285  -14.0608 C   0  0  1  0  0  0  0  0  0  0  0  0
    4.7977   35.8667  -10.4895 C   0  0  1  0  0  0  0  0  0  0  0  0
    3.1196   33.8057  -14.4885 O   0  0  0  0  0  0  0  0  0  0  0  0
    3.9942   35.5583   -9.4642 O   0  0  0  0  0  0  0  0  0  0  0  0
    1.2746   35.1554  -15.2393 C   0  0  1  0  0  0  0  0  0  0  0  0
    5.7608   37.0174  -10.1185 C   0  0  1  0  0  0  0  0  0  0  0  0
    1.4402   34.2254  -16.3887 O   0  0  0  0  0  0  0  0  0  0  0  0
    5.8687   37.1519   -8.6300 O   0  0  0  0  0  0  0  0  0  0  0  0
    0.0651   35.1160  -14.7796 C   0  0  2  0  0  0  0  0  0  0  0  0
    6.9016   36.6653  -10.6040 C   0  0  2  0  0  0  0  0  0  0  0  0
   -3.1459   39.0870  -16.4352 N   0  0  0  0  0  0  0  0  0  0  0  0
   -3.0822   37.8383  -16.9771 C   0  0  0  0  0  0  0  0  0  0  0  0
   -2.2254   36.8904  -16.4782 N   0  0  0  0  0  0  0  0  0  0  0  0
   -1.4222   37.2134  -15.4195 C   0  0  0  0  0  0  0  0  0  0  0  0
   -1.4683   38.4397  -14.8806 C   0  0  0  0  0  0  0  0  0  0  0  0
   -2.3487   39.3940  -15.3875 C   0  0  0  0  0  0  0  0  0  0  0  0
   -2.4943   40.7127  -14.9134 N   0  0  0  0  0  0  0  0  0  0  0  0
   -0.5841   38.4771  -13.8613 N   0  0  0  0  0  0  0  0  0  0  0  0
    0.0163   37.2554  -13.7824 C   0  0  0  0  0  0  0  0  0  0  0  0
   -0.5111   36.4698  -14.7305 N   0  0  0  0  0  0  0  0  0  0  0  0
    9.2045   37.3846  -15.2191 N   0  0  0  0  0  0  0  0  0  0  0  0
    8.9334   36.1950  -14.6209 C   0  0  0  0  0  0  0  0  0  0  0  0
    8.3265   36.1782  -13.3967 N   0  0  0  0  0  0  0  0  0  0  0  0
    7.9905   37.3445  -12.7824 C   0  0  0  0  0  0  0  0  0  0  0  0
    8.2524   38.5285  -13.3721 C   0  0  0  0  0  0  0  0  0  0  0  0
    8.8743   38.5366  -14.6173 C   0  0  0  0  0  0  0  0  0  0  0  0
    9.2618   39.6725  -15.4138 N   0  0  0  0  0  0  0  0  0  0  0  0
    7.8151   39.5020  -12.5378 N   0  0  0  0  0  0  0  0  0  0  0  0
    7.2775   38.9090  -11.4336 C   0  0  0  0  0  0  0  0  0  0  0  0
    7.3881   37.5750  -11.5959 N   0  0  0  0  0  0  0  0  0  0  0  0
  1  3  1  1  0  0  0
  1  5  2  0  0  0  0
  1  9  1  0  0  0  0
  1 18  1  0  0  0  0
  2  4  1  6  0  0  0
  2  6  2  0  0  0  0
  2 10  1  0  0  0  0
  2 17  1  0  0  0  0
  7  9  1  0  0  0  0
  8 10  1  0  0  0  0
 11  7  1  1  0  0  0
 11 13  1  0  0  0  0
 11 15  1  0  0  0  0
 12  8  1  6  0  0  0
 12 14  1  0  0  0  0
 12 16  1  0  0  0  0
 13 23  1  0  0  0  0
 14 24  1  0  0  0  0
 15 17  1  6  0  0  0
 15 19  1  0  0  0  0
 16 18  1  1  0  0  0
 16 20  1  0  0  0  0
 19 21  1  6  0  0  0
 19 23  1  0  0  0  0
 20 22  1  1  0  0  0
 20 24  1  0  0  0  0
 23 34  1  1  0  0  0
 24 44  1  6  0  0  0
 25 26  2  0  0  0  0
 25 30  1  0  0  0  0
 26 27  1  0  0  0  0
 27 28  2  0  0  0  0
 28 29  1  0  0  0  0
 28 34  1  0  0  0  0
 29 30  2  0  0  0  0
 29 32  1  0  0  0  0
 30 31  1  0  0  0  0
 32 33  2  0  0  0  0
 33 34  1  0  0  0  0
 35 36  2  0  0  0  0
 35 40  1  0  0  0  0
 36 37  1  0  0  0  0
 37 38  2  0  0  0  0
 38 39  1  0  0  0  0
 38 44  1  0  0  0  0
 39 40  2  0  0  0  0
 39 42  1  0  0  0  0
 40 41  1  0  0  0  0
 42 43  2  0  0  0  0
 43 44  1  0  0  0  0
M  CHG  2   3  -1   4  -1
M  END
>  <CHROM.1>
-134.35196212,-17.62898749,3.42852508,36.35306324,-13.16240394,0.28432730
0.04084286,1.84161811

>  <Name>
ligand

>  <RI>
0

>  <Rbt.Current_Directory>
/home/itssahil/PROJECTS/Mol_Feturizer/New_Systems/rnas/4QLM

>  <Rbt.Executable>
rbdock ($Id: //depot/dev/client3/rdock/2013.1/src/exe/rbdock.cxx#4 $)

>  <Rbt.Library>
libRbt.so (2013.1, Build901 2013/11/27)

>  <Rbt.Parameter_File>
/export/apps/rDock/src/rDock_2013.1_src/data/scripts/dock_solv.prm

>  <Rbt.Receptor>
prm/blind_docking_80.prm

>  <SCORE>
34.911

>  <SCORE.INTER>
24.4696

>  <SCORE.INTER.CONST>
1

>  <SCORE.INTER.POLAR>
0

>  <SCORE.INTER.ROT>
2

>  <SCORE.INTER.SOLV>
41.184

>  <SCORE.INTER.VDW>
-2.34825

>  <SCORE.INTER.norm>
0.556128

>  <SCORE.INTRA>
0.499118

>  <SCORE.INTRA.DIHEDRAL>
0.0142793

>  <SCORE.INTRA.DIHEDRAL.0>
2.32994

>  <SCORE.INTRA.POLAR>
0

>  <SCORE.INTRA.POLAR.0>
0

>  <SCORE.INTRA.REPUL>
0

>  <SCORE.INTRA.REPUL.0>
0

>  <SCORE.INTRA.SOLV>
0.0805631

>  <SCORE.INTRA.SOLV.lig_0>
-117.703

>  <SCORE.INTRA.VDW>
0.451697

>  <SCORE.INTRA.VDW.0>
-1.59997

>  <SCORE.INTRA.norm>
0.0113436

>  <SCORE.RESTR>
9.94222

>  <SCORE.RESTR.CAVITY>
9.94222

>  <SCORE.RESTR.norm>
0.22596

>  <SCORE.SYSTEM>
0

>  <SCORE.SYSTEM.CONST>
0

>  <SCORE.SYSTEM.DIHEDRAL>
0

>  <SCORE.SYSTEM.SOLV>
0

>  <SCORE.SYSTEM.norm>
0

>  <SCORE.heavy>
44

>  <SCORE.norm>
0.793431

>  <RMSD>
12.292

$$$$
ligand
 OpenBabel11021811513D
libRbt.so/2013.1/901 2013/11/27
 44 50  0  0  0  0  0  0  0  0999 V2000
    2.6137   35.7285  -10.2060 P   0  0  2  0  0  0  0  0  0  0  0  0
    4.7124   34.3342  -14.9869 P   0  0  1  0  0  0  0  0  0  0  0  0
    1.6693   34.8821   -9.3561 O   0  5  0  0  0  0  0  0  0  0  0  0
    4.6034   35.5776  -15.8355 O   0  5  0  0  0  0  0  0  0  0  0  0
    2.3365   37.1657   -9.8358 O   0  0  0  0  0  0  0  0  0  0  0  0
    5.6484   33.3516  -15.7268 O   0  0  0  0  0  0  0  0  0  0  0  0
    1.7551   34.0473  -11.9024 C   0  0  0  0  0  0  0  0  0  0  0  0
    5.2204   33.8220  -12.5074 C   0  0  0  0  0  0  0  0  0  0  0  0
    2.2547   35.3738  -11.6852 O   0  0  0  0  0  0  0  0  0  0  0  0
    5.1699   34.8809  -13.5048 O   0  0  0  0  0  0  0  0  0  0  0  0
    1.4022   33.8531  -13.3732 C   0  0  1  0  0  0  0  0  0  0  0  0
    5.8027   34.4775  -11.1987 C   0  0  1  0  0  0  0  0  0  0  0  0
    0.2007   34.3032  -13.5634 O   0  0  0  0  0  0  0  0  0  0  0  0
    6.8661   35.0676  -11.5662 O   0  0  0  0  0  0  0  0  0  0  0  0
    2.3060   34.6216  -14.3096 C   0  0  1  0  0  0  0  0  0  0  0  0
    4.9160   35.6467  -10.7256 C   0  0  1  0  0  0  0  0  0  0  0  0
    3.2164   33.7325  -14.7881 O   0  0  0  0  0  0  0  0  0  0  0  0
    4.1311   35.2818   -9.7045 O   0  0  0  0  0  0  0  0  0  0  0  0
    1.3409   35.0835  -15.4565 C   0  0  1  0  0  0  0  0  0  0  0  0
    5.8660   36.7957  -10.3177 C   0  0  1  0  0  0  0  0  0  0  0  0
    1.5055   34.2065  -16.6470 O   0  0  0  0  0  0  0  0  0  0  0  0
    5.9917   36.8680   -8.8263 O   0  0  0  0  0  0  0  0  0  0  0  0
    0.1385   35.0051  -14.9836 C   0  0  2  0  0  0  0  0  0  0  0  0
    7.0055   36.4831  -10.8323 C   0  0  2  0  0  0  0  0  0  0  0  0
   -0.1274   40.0623  -13.2018 N   0  0  0  0  0  0  0  0  0  0  0  0
    0.8633   39.1707  -12.9177 C   0  0  0  0  0  0  0  0  0  0  0  0
    0.8395   37.8968  -13.4258 N   0  0  0  0  0  0  0  0  0  0  0  0
   -0.2021   37.5221  -14.2289 C   0  0  0  0  0  0  0  0  0  0  0  0
   -1.1874   38.3856  -14.5114 C   0  0  0  0  0  0  0  0  0  0  0  0
   -1.1507   39.6811  -13.9987 C   0  0  0  0  0  0  0  0  0  0  0  0
   -2.1189   40.6806  -14.2190 N   0  0  0  0  0  0  0  0  0  0  0  0
   -2.0689   37.7578  -15.3184 N   0  0  0  0  0  0  0  0  0  0  0  0
   -1.6168   36.4882  -15.5252 C   0  0  0  0  0  0  0  0  0  0  0  0
   -0.4578   36.3461  -14.8689 N   0  0  0  0  0  0  0  0  0  0  0  0
    9.5189   37.4521  -15.2893 N   0  0  0  0  0  0  0  0  0  0  0  0
    9.3258   36.2380  -14.7106 C   0  0  0  0  0  0  0  0  0  0  0  0
    8.6464   36.1544  -13.5280 N   0  0  0  0  0  0  0  0  0  0  0  0
    8.1610   37.2788  -12.9358 C   0  0  0  0  0  0  0  0  0  0  0  0
    8.3448   38.4865  -13.5065 C   0  0  0  0  0  0  0  0  0  0  0  0
    9.0414   38.5629  -14.7091 C   0  0  0  0  0  0  0  0  0  0  0  0
    9.3679   39.7363  -15.4782 N   0  0  0  0  0  0  0  0  0  0  0  0
    7.7634   39.4077  -12.7013 N   0  0  0  0  0  0  0  0  0  0  0  0
    7.2159   38.7581  -11.6345 C   0  0  0  0  0  0  0  0  0  0  0  0
    7.4646   37.4421  -11.7903 N   0  0  0  0  0  0  0  0  0  0  0  0
  1  3  1  1  0  0  0
  1  5  2  0  0  0  0
  1  9  1  0  0  0  0
  1 18  1  0  0  0  0
  2  4  1  6  0  0  0
  2  6  2  0  0  0  0
  2 10  1  0  0  0  0
  2 17  1  0  0  0  0
  7  9  1  0  0  0  0
  8 10  1  0  0  0  0
 11  7  1  1  0  0  0
 11 13  1  0  0  0  0
 11 15  1  0  0  0  0
 12  8  1  6  0  0  0
 12 14  1  0  0  0  0
 12 16  1  0  0  0  0
 13 23  1  0  0  0  0
 14 24  1  0  0  0  0
 15 17  1  6  0  0  0
 15 19  1  0  0  0  0
 16 18  1  1  0  0  0
 16 20  1  0  0  0  0
 19 21  1  6  0  0  0
 19 23  1  0  0  0  0
 20 22  1  1  0  0  0
 20 24  1  0  0  0  0
 23 34  1  1  0  0  0
 24 44  1  6  0  0  0
 25 26  2  0  0  0  0
 25 30  1  0  0  0  0
 26 27  1  0  0  0  0
 27 28  2  0  0  0  0
 28 29  1  0  0  0  0
 28 34  1  0  0  0  0
 29 30  2  0  0  0  0
 29 32  1  0  0  0  0
 30 31  1  0  0  0  0
 32 33  2  0  0  0  0
 33 34  1  0  0  0  0
 35 36  2  0  0  0  0
 35 40  1  0  0  0  0
 36 37  1  0  0  0  0
 37 38  2  0  0  0  0
 38 39  1  0  0  0  0
 38 44  1  0  0  0  0
 39 40  2  0  0  0  0
 39 42  1  0  0  0  0
 40 41  1  0  0  0  0
 42 43  2  0  0  0  0
 43 44  1  0  0  0  0
M  CHG  2   3  -1   4  -1
M  END
>  <CHROM.1>
60.50972009,-24.41312149,3.72369927,36.29539619,-13.12166938,3.01106632,0.00204804
-1.55687992

>  <Name>
ligand

>  <RI>
0

>  <Rbt.Current_Directory>
/home/itssahil/PROJECTS/Mol_Feturizer/New_Systems/rnas/4QLM

>  <Rbt.Executable>
rbdock ($Id: //depot/dev/client3/rdock/2013.1/src/exe/rbdock.cxx#4 $)

>  <Rbt.Library>
libRbt.so (2013.1, Build901 2013/11/27)

>  <Rbt.Parameter_File>
/export/apps/rDock/src/rDock_2013.1_src/data/scripts/dock_solv.prm

>  <Rbt.Receptor>
prm/blind_docking_80.prm

>  <SCORE>
27.5971

>  <SCORE.INTER>
18.905

>  <SCORE.INTER.CONST>
1

>  <SCORE.INTER.POLAR>
0

>  <SCORE.INTER.ROT>
2

>  <SCORE.INTER.SOLV>
39.5345

>  <SCORE.INTER.VDW>
-5.50817

>  <SCORE.INTER.norm>
0.429659

>  <SCORE.INTRA>
-0.17451

>  <SCORE.INTRA.DIHEDRAL>
0.0685872

>  <SCORE.INTRA.DIHEDRAL.0>
2.32994

>  <SCORE.INTRA.POLAR>
0

>  <SCORE.INTRA.POLAR.0>
0

>  <SCORE.INTRA.REPUL>
0

>  <SCORE.INTRA.REPUL.0>
0

>  <SCORE.INTRA.SOLV>
0.175167

>  <SCORE.INTRA.SOLV.lig_0>
-117.703

>  <SCORE.INTRA.VDW>
-0.296387

>  <SCORE.INTRA.VDW.0>
-1.59997

>  <SCORE.INTRA.norm>
-0.00396613

>  <SCORE.RESTR>
8.86662

>  <SCORE.RESTR.CAVITY>
8.86662

>  <SCORE.RESTR.norm>
0.201514

>  <SCORE.SYSTEM>
0

>  <SCORE.SYSTEM.CONST>
0

>  <SCORE.SYSTEM.DIHEDRAL>
0

>  <SCORE.SYSTEM.SOLV>
0

>  <SCORE.SYSTEM.norm>
0

>  <SCORE.heavy>
44

>  <SCORE.norm>
0.627207

>  <RMSD>
12.543

$$$$
ligand
 OpenBabel11021811513D
libRbt.so/2013.1/901 2013/11/27
 44 50  0  0  0  0  0  0  0  0999 V2000
    2.6130   35.7854  -10.1778 P   0  0  2  0  0  0  0  0  0  0  0  0
    4.7589   34.3131  -14.9142 P   0  0  1  0  0  0  0  0  0  0  0  0
    1.6657   34.9502   -9.3202 O   0  5  0  0  0  0  0  0  0  0  0  0
    4.6509   35.5399  -15.7867 O   0  5  0  0  0  0  0  0  0  0  0  0
    2.3256   37.2278   -9.8368 O   0  0  0  0  0  0  0  0  0  0  0  0
    5.7060   33.3217  -15.6278 O   0  0  0  0  0  0  0  0  0  0  0  0
    1.7771   34.0685  -11.8496 C   0  0  0  0  0  0  0  0  0  0  0  0
    5.2485   33.8497  -12.4214 C   0  0  0  0  0  0  0  0  0  0  0  0
    2.2682   35.4014  -11.6531 O   0  0  0  0  0  0  0  0  0  0  0  0
    5.2011   34.8896  -13.4387 O   0  0  0  0  0  0  0  0  0  0  0  0
    1.4376   33.8452  -13.3194 C   0  0  1  0  0  0  0  0  0  0  0  0
    5.8165   34.5325  -11.1203 C   0  0  1  0  0  0  0  0  0  0  0  0
    0.2355   34.2855  -13.5281 O   0  0  0  0  0  0  0  0  0  0  0  0
    6.8800   35.1210  -11.4899 O   0  0  0  0  0  0  0  0  0  0  0  0
    2.3455   34.6008  -14.2625 C   0  0  1  0  0  0  0  0  0  0  0  0
    4.9200   35.7057  -10.6766 C   0  0  1  0  0  0  0  0  0  0  0  0
    3.2643   33.7076  -14.7166 O   0  0  0  0  0  0  0  0  0  0  0  0
    4.1283   35.3559   -9.6554 O   0  0  0  0  0  0  0  0  0  0  0  0
    1.3879   35.0363  -15.4258 C   0  0  1  0  0  0  0  0  0  0  0  0
    5.8609   36.8669  -10.2822 C   0  0  1  0  0  0  0  0  0  0  0  0
    1.5668   34.1381  -16.5983 O   0  0  0  0  0  0  0  0  0  0  0  0
    5.9736   36.9676   -8.7914 O   0  0  0  0  0  0  0  0  0  0  0  0
    0.1819   34.9605  -14.9616 C   0  0  2  0  0  0  0  0  0  0  0  0
    7.0062   36.5506  -10.7814 C   0  0  2  0  0  0  0  0  0  0  0  0
   -0.1181   40.0519  -13.2855 N   0  0  0  0  0  0  0  0  0  0  0  0
    0.8762   39.1716  -12.9791 C   0  0  0  0  0  0  0  0  0  0  0  0
    0.8612   37.8875  -13.4609 N   0  0  0  0  0  0  0  0  0  0  0  0
   -0.1751   37.4906  -14.2603 C   0  0  0  0  0  0  0  0  0  0  0  0
   -1.1639   38.3428  -14.5644 C   0  0  0  0  0  0  0  0  0  0  0  0
   -1.1361   39.6489  -14.0784 C   0  0  0  0  0  0  0  0  0  0  0  0
   -2.1087   40.6383  -14.3231 N   0  0  0  0  0  0  0  0  0  0  0  0
   -2.0387   37.6938  -15.3618 N   0  0  0  0  0  0  0  0  0  0  0  0
   -1.5791   36.4226  -15.5406 C   0  0  0  0  0  0  0  0  0  0  0  0
   -0.4220   36.3004  -14.8770 N   0  0  0  0  0  0  0  0  0  0  0  0
    9.4672   37.4401  -15.2839 N   0  0  0  0  0  0  0  0  0  0  0  0
    9.2598   36.2339  -14.6937 C   0  0  0  0  0  0  0  0  0  0  0  0
    8.5976   36.1717  -13.5000 N   0  0  0  0  0  0  0  0  0  0  0  0
    8.1436   37.3093  -12.9082 C   0  0  0  0  0  0  0  0  0  0  0  0
    8.3417   38.5093  -13.4904 C   0  0  0  0  0  0  0  0  0  0  0  0
    9.0206   38.5639  -14.7042 C   0  0  0  0  0  0  0  0  0  0  0  0
    9.3576   39.7255  -15.4866 N   0  0  0  0  0  0  0  0  0  0  0  0
    7.7910   39.4471  -12.6828 N   0  0  0  0  0  0  0  0  0  0  0  0
    7.2480   38.8156  -11.6029 C   0  0  0  0  0  0  0  0  0  0  0  0
    7.4686   37.4939  -11.7532 N   0  0  0  0  0  0  0  0  0  0  0  0
  1  3  1  1  0  0  0
  1  5  2  0  0  0  0
  1  9  1  0  0  0  0
  1 18  1  0  0  0  0
  2  4  1  6  0  0  0
  2  6  2  0  0  0  0
  2 10  1  0  0  0  0
  2 17  1  0  0  0  0
  7  9  1  0  0  0  0
  8 10  1  0  0  0  0
 11  7  1  1  0  0  0
 11 13  1  0  0  0  0
 11 15  1  0  0  0  0
 12  8  1  6  0  0  0
 12 14  1  0  0  0  0
 12 16  1  0  0  0  0
 13 23  1  0  0  0  0
 14 24  1  0  0  0  0
 15 17  1  6  0  0  0
 15 19  1  0  0  0  0
 16 18  1  1  0  0  0
 16 20  1  0  0  0  0
 19 21  1  6  0  0  0
 19 23  1  0  0  0  0
 20 22  1  1  0  0  0
 20 24  1  0  0  0  0
 23 34  1  1  0  0  0
 24 44  1  6  0  0  0
 25 26  2  0  0  0  0
 25 30  1  0  0  0  0
 26 27  1  0  0  0  0
 27 28  2  0  0  0  0
 28 29  1  0  0  0  0
 28 34  1  0  0  0  0
 29 30  2  0  0  0  0
 29 32  1  0  0  0  0
 30 31  1  0  0  0  0
 32 33  2  0  0  0  0
 33 34  1  0  0  0  0
 35 36  2  0  0  0  0
 35 40  1  0  0  0  0
 36 37  1  0  0  0  0
 37 38  2  0  0  0  0
 38 39  1  0  0  0  0
 38 44  1  0  0  0  0
 39 40  2  0  0  0  0
 39 42  1  0  0  0  0
 40 41  1  0  0  0  0
 42 43  2  0  0  0  0
 43 44  1  0  0  0  0
M  CHG  2   3  -1   4  -1
M  END
>  <CHROM.1>
60.78678508,-22.33426758,3.73868031,36.30310061,-13.09852420,3.00203107,-0.00263848
-1.57134014

>  <Name>
ligand

>  <RI>
0

>  <Rbt.Current_Directory>
/home/itssahil/PROJECTS/Mol_Feturizer/New_Systems/rnas/4QLM

>  <Rbt.Executable>
rbdock ($Id: //depot/dev/client3/rdock/2013.1/src/exe/rbdock.cxx#4 $)

>  <Rbt.Library>
libRbt.so (2013.1, Build901 2013/11/27)

>  <Rbt.Parameter_File>
/export/apps/rDock/src/rDock_2013.1_src/data/scripts/dock_solv.prm

>  <Rbt.Receptor>
prm/blind_docking_80.prm

>  <SCORE>
28.6281

>  <SCORE.INTER>
20.3212

>  <SCORE.INTER.CONST>
1

>  <SCORE.INTER.POLAR>
0

>  <SCORE.INTER.ROT>
2

>  <SCORE.INTER.SOLV>
39.6352

>  <SCORE.INTER.VDW>
-4.59755

>  <SCORE.INTER.norm>
0.461847

>  <SCORE.INTRA>
-0.329384

>  <SCORE.INTRA.DIHEDRAL>
0.0666883

>  <SCORE.INTRA.DIHEDRAL.0>
2.32994

>  <SCORE.INTRA.POLAR>
0

>  <SCORE.INTRA.POLAR.0>
0

>  <SCORE.INTRA.REPUL>
0

>  <SCORE.INTRA.REPUL.0>
0

>  <SCORE.INTRA.SOLV>
0.168884

>  <SCORE.INTRA.SOLV.lig_0>
-117.703

>  <SCORE.INTRA.VDW>
-0.44717

>  <SCORE.INTRA.VDW.0>
-1.59997

>  <SCORE.INTRA.norm>
-0.007486

>  <SCORE.RESTR>
8.63624

>  <SCORE.RESTR.CAVITY>
8.63624

>  <SCORE.RESTR.norm>
0.196278

>  <SCORE.SYSTEM>
0

>  <SCORE.SYSTEM.CONST>
0

>  <SCORE.SYSTEM.DIHEDRAL>
0

>  <SCORE.SYSTEM.SOLV>
0

>  <SCORE.SYSTEM.norm>
0

>  <SCORE.heavy>
44

>  <SCORE.norm>
0.650639

>  <RMSD>
12.551

$$$$
ligand
 OpenBabel11021811513D
libRbt.so/2013.1/901 2013/11/27
 44 50  0  0  0  0  0  0  0  0999 V2000
    2.6034   35.6918  -10.2086 P   0  0  2  0  0  0  0  0  0  0  0  0
    4.7283   34.3345  -14.9886 P   0  0  1  0  0  0  0  0  0  0  0  0
    1.6534   34.8395   -9.3710 O   0  5  0  0  0  0  0  0  0  0  0  0
    4.6253   35.5849  -15.8276 O   0  5  0  0  0  0  0  0  0  0  0  0
    2.3255   37.1262   -9.8282 O   0  0  0  0  0  0  0  0  0  0  0  0
    5.6675   33.3570  -15.7311 O   0  0  0  0  0  0  0  0  0  0  0  0
    1.7530   34.0254  -11.9235 C   0  0  0  0  0  0  0  0  0  0  0  0
    5.2215   33.8015  -12.5105 C   0  0  0  0  0  0  0  0  0  0  0  0
    2.2526   35.3496  -11.6926 O   0  0  0  0  0  0  0  0  0  0  0  0
    5.1777   34.8686  -13.4994 O   0  0  0  0  0  0  0  0  0  0  0  0
    1.4083   33.8436  -13.3978 C   0  0  1  0  0  0  0  0  0  0  0  0
    5.7969   34.4458  -11.1931 C   0  0  1  0  0  0  0  0  0  0  0  0
    0.2084   34.2964  -13.5912 O   0  0  0  0  0  0  0  0  0  0  0  0
    6.8629   35.0378  -11.5497 O   0  0  0  0  0  0  0  0  0  0  0  0
    2.3183   34.6188  -14.3227 C   0  0  1  0  0  0  0  0  0  0  0  0
    4.9086   35.6119  -10.7156 C   0  0  1  0  0  0  0  0  0  0  0  0
    3.2306   33.7327  -14.8032 O   0  0  0  0  0  0  0  0  0  0  0  0
    4.1175   35.2395   -9.7020 O   0  0  0  0  0  0  0  0  0  0  0  0
    1.3602   35.0910  -15.4714 C   0  0  1  0  0  0  0  0  0  0  0  0
    5.8574   36.7566  -10.2928 C   0  0  1  0  0  0  0  0  0  0  0  0
    1.5308   34.2236  -16.6680 O   0  0  0  0  0  0  0  0  0  0  0  0
    5.9746   36.8166   -8.8002 O   0  0  0  0  0  0  0  0  0  0  0  0
    0.1550   35.0099  -15.0060 C   0  0  2  0  0  0  0  0  0  0  0  0
    6.9995   36.4471  -10.8035 C   0  0  2  0  0  0  0  0  0  0  0  0
   -0.0566   40.0875  -13.2754 N   0  0  0  0  0  0  0  0  0  0  0  0
    0.9474   39.2021  -13.0201 C   0  0  0  0  0  0  0  0  0  0  0  0
    0.9076   37.9221  -13.5116 N   0  0  0  0  0  0  0  0  0  0  0  0
   -0.1636   37.5348  -14.2684 C   0  0  0  0  0  0  0  0  0  0  0  0
   -1.1621   38.3922  -14.5220 C   0  0  0  0  0  0  0  0  0  0  0  0
   -1.1094   39.6939  -14.0266 C   0  0  0  0  0  0  0  0  0  0  0  0
   -2.0888   40.6880  -14.2204 N   0  0  0  0  0  0  0  0  0  0  0  0
   -2.0728   37.7523  -15.2860 N   0  0  0  0  0  0  0  0  0  0  0  0
   -1.6251   36.4815  -15.4954 C   0  0  0  0  0  0  0  0  0  0  0  0
   -0.4406   36.3506  -14.8838 N   0  0  0  0  0  0  0  0  0  0  0  0
    9.4642   37.4433  -15.2816 N   0  0  0  0  0  0  0  0  0  0  0  0
    9.2530   36.2231  -14.7223 C   0  0  0  0  0  0  0  0  0  0  0  0
    8.5904   36.1325  -13.5306 N   0  0  0  0  0  0  0  0  0  0  0  0
    8.1397   37.2561  -12.9102 C   0  0  0  0  0  0  0  0  0  0  0  0
    8.3416   38.4699  -13.4616 C   0  0  0  0  0  0  0  0  0  0  0  0
    9.0209   38.5533  -14.6736 C   0  0  0  0  0  0  0  0  0  0  0  0
    9.3616   39.7334  -15.4261 N   0  0  0  0  0  0  0  0  0  0  0  0
    7.7936   39.3886  -12.6304 N   0  0  0  0  0  0  0  0  0  0  0  0
    7.2484   38.7315  -11.5671 C   0  0  0  0  0  0  0  0  0  0  0  0
    7.4650   37.4134  -11.7509 N   0  0  0  0  0  0  0  0  0  0  0  0
  1  3  1  1  0  0  0
  1  5  2  0  0  0  0
  1  9  1  0  0  0  0
  1 18  1  0  0  0  0
  2  4  1  6  0  0  0
  2  6  2  0  0  0  0
  2 10  1  0  0  0  0
  2 17  1  0  0  0  0
  7  9  1  0  0  0  0
  8 10  1  0  0  0  0
 11  7  1  1  0  0  0
 11 13  1  0  0  0  0
 11 15  1  0  0  0  0
 12  8  1  6  0  0  0
 12 14  1  0  0  0  0
 12 16  1  0  0  0  0
 13 23  1  0  0  0  0
 14 24  1  0  0  0  0
 15 17  1  6  0  0  0
 15 19  1  0  0  0  0
 16 18  1  1  0  0  0
 16 20  1  0  0  0  0
 19 21  1  6  0  0  0
 19 23  1  0  0  0  0
 20 22  1  1  0  0  0
 20 24  1  0  0  0  0
 23 34  1  1  0  0  0
 24 44  1  6  0  0  0
 25 26  2  0  0  0  0
 25 30  1  0  0  0  0
 26 27  1  0  0  0  0
 27 28  2  0  0  0  0
 28 29  1  0  0  0  0
 28 34  1  0  0  0  0
 29 30  2  0  0  0  0
 29 32  1  0  0  0  0
 30 31  1  0  0  0  0
 32 33  2  0  0  0  0
 33 34  1  0  0  0  0
 35 36  2  0  0  0  0
 35 40  1  0  0  0  0
 36 37  1  0  0  0  0
 37 38  2  0  0  0  0
 38 39  1  0  0  0  0
 38 44  1  0  0  0  0
 39 40  2  0  0  0  0
 39 42  1  0  0  0  0
 40 41  1  0  0  0  0
 42 43  2  0  0  0  0
 43 44  1  0  0  0  0
M  CHG  2   3  -1   4  -1
M  END
>  <CHROM.1>
63.35844462,-22.57776934,3.72914609,36.28329599,-13.12239356,3.00219657,-0.00328263
-1.50170191

>  <Name>
ligand

>  <RI>
0

>  <Rbt.Current_Directory>
/home/itssahil/PROJECTS/Mol_Feturizer/New_Systems/rnas/4QLM

>  <Rbt.Executable>
rbdock ($Id: //depot/dev/client3/rdock/2013.1/src/exe/rbdock.cxx#4 $)

>  <Rbt.Library>
libRbt.so (2013.1, Build901 2013/11/27)

>  <Rbt.Parameter_File>
/export/apps/rDock/src/rDock_2013.1_src/data/scripts/dock_solv.prm

>  <Rbt.Receptor>
prm/blind_docking_80.prm

>  <SCORE>
27.9892

>  <SCORE.INTER>
19.5354

>  <SCORE.INTER.CONST>
1

>  <SCORE.INTER.POLAR>
0

>  <SCORE.INTER.ROT>
2

>  <SCORE.INTER.SOLV>
39.6513

>  <SCORE.INTER.VDW>
-5.12683

>  <SCORE.INTER.norm>
0.443986

>  <SCORE.INTRA>
-0.293551

>  <SCORE.INTRA.DIHEDRAL>
0.052929

>  <SCORE.INTRA.DIHEDRAL.0>
2.32994

>  <SCORE.INTRA.POLAR>
0

>  <SCORE.INTRA.POLAR.0>
0

>  <SCORE.INTRA.REPUL>
0

>  <SCORE.INTRA.REPUL.0>
0

>  <SCORE.INTRA.SOLV>
0.122651

>  <SCORE.INTRA.SOLV.lig_0>
-117.703

>  <SCORE.INTRA.VDW>
-0.381341

>  <SCORE.INTRA.VDW.0>
-1.59997

>  <SCORE.INTRA.norm>
-0.00667161

>  <SCORE.RESTR>
8.74734

>  <SCORE.RESTR.CAVITY>
8.74734

>  <SCORE.RESTR.norm>
0.198803

>  <SCORE.SYSTEM>
0

>  <SCORE.SYSTEM.CONST>
0

>  <SCORE.SYSTEM.DIHEDRAL>
0

>  <SCORE.SYSTEM.SOLV>
0

>  <SCORE.SYSTEM.norm>
0

>  <SCORE.heavy>
44

>  <SCORE.norm>
0.636118

>  <RMSD>
12.554

$$$$
ligand
 OpenBabel11021811513D
libRbt.so/2013.1/901 2013/11/27
 44 50  0  0  0  0  0  0  0  0999 V2000
    2.6305   35.7313  -10.1891 P   0  0  2  0  0  0  0  0  0  0  0  0
    4.7528   34.3239  -14.9557 P   0  0  1  0  0  0  0  0  0  0  0  0
    1.6866   34.8848   -9.3388 O   0  5  0  0  0  0  0  0  0  0  0  0
    4.6416   35.5629  -15.8105 O   0  5  0  0  0  0  0  0  0  0  0  0
    2.3459   37.1690   -9.8265 O   0  0  0  0  0  0  0  0  0  0  0  0
    5.6956   33.3419  -15.6877 O   0  0  0  0  0  0  0  0  0  0  0  0
    1.7853   34.0386  -11.8808 C   0  0  0  0  0  0  0  0  0  0  0  0
    5.2538   33.8252  -12.4721 C   0  0  0  0  0  0  0  0  0  0  0  0
    2.2785   35.3682  -11.6679 O   0  0  0  0  0  0  0  0  0  0  0  0
    5.2024   34.8794  -13.4745 O   0  0  0  0  0  0  0  0  0  0  0  0
    1.4387   33.8362  -13.3520 C   0  0  1  0  0  0  0  0  0  0  0  0
    5.8284   34.4893  -11.1643 C   0  0  1  0  0  0  0  0  0  0  0  0
    0.2360   34.2803  -13.5487 O   0  0  0  0  0  0  0  0  0  0  0  0
    6.8907   35.0821  -11.5306 O   0  0  0  0  0  0  0  0  0  0  0  0
    2.3427   34.6042  -14.2886 C   0  0  1  0  0  0  0  0  0  0  0  0
    4.9350   35.6568  -10.6999 C   0  0  1  0  0  0  0  0  0  0  0  0
    3.2586   33.7168  -14.7597 O   0  0  0  0  0  0  0  0  0  0  0  0
    4.1480   35.2933   -9.6799 O   0  0  0  0  0  0  0  0  0  0  0  0
    1.3799   35.0567  -15.4412 C   0  0  1  0  0  0  0  0  0  0  0  0
    5.8787   36.8117  -10.2937 C   0  0  1  0  0  0  0  0  0  0  0  0
    1.5526   34.1749  -16.6270 O   0  0  0  0  0  0  0  0  0  0  0  0
    5.9986   36.8914   -8.8022 O   0  0  0  0  0  0  0  0  0  0  0  0
    0.1761   34.9754  -14.9724 C   0  0  2  0  0  0  0  0  0  0  0  0
    7.0214   36.5016  -10.8027 C   0  0  2  0  0  0  0  0  0  0  0  0
   -0.0886   40.0562  -13.2586 N   0  0  0  0  0  0  0  0  0  0  0  0
    0.9125   39.1746  -12.9798 C   0  0  0  0  0  0  0  0  0  0  0  0
    0.8873   37.8934  -13.4691 N   0  0  0  0  0  0  0  0  0  0  0  0
   -0.1663   37.5009  -14.2477 C   0  0  0  0  0  0  0  0  0  0  0  0
   -1.1619   38.3545  -14.5246 C   0  0  0  0  0  0  0  0  0  0  0  0
   -1.1238   39.6575  -14.0312 C   0  0  0  0  0  0  0  0  0  0  0  0
   -2.1020   40.6479  -14.2482 N   0  0  0  0  0  0  0  0  0  0  0  0
   -2.0539   37.7100  -15.3063 N   0  0  0  0  0  0  0  0  0  0  0  0
   -1.5978   36.4401  -15.5031 C   0  0  0  0  0  0  0  0  0  0  0  0
   -0.4263   36.3144  -14.8661 N   0  0  0  0  0  0  0  0  0  0  0  0
    9.4697   37.4530  -15.2995 N   0  0  0  0  0  0  0  0  0  0  0  0
    9.2656   36.2389  -14.7244 C   0  0  0  0  0  0  0  0  0  0  0  0
    8.6065   36.1603  -13.5300 N   0  0  0  0  0  0  0  0  0  0  0  0
    8.1523   37.2894  -12.9224 C   0  0  0  0  0  0  0  0  0  0  0  0
    8.3472   38.4972  -13.4895 C   0  0  0  0  0  0  0  0  0  0  0  0
    9.0229   38.5685  -14.7042 C   0  0  0  0  0  0  0  0  0  0  0  0
    9.3562   39.7406  -15.4724 N   0  0  0  0  0  0  0  0  0  0  0  0
    7.7972   39.4236  -12.6684 N   0  0  0  0  0  0  0  0  0  0  0  0
    7.2578   38.7774  -11.5954 C   0  0  0  0  0  0  0  0  0  0  0  0
    7.4799   37.4581  -11.7634 N   0  0  0  0  0  0  0  0  0  0  0  0
  1  3  1  1  0  0  0
  1  5  2  0  0  0  0
  1  9  1  0  0  0  0
  1 18  1  0  0  0  0
  2  4  1  6  0  0  0
  2  6  2  0  0  0  0
  2 10  1  0  0  0  0
  2 17  1  0  0  0  0
  7  9  1  0  0  0  0
  8 10  1  0  0  0  0
 11  7  1  1  0  0  0
 11 13  1  0  0  0  0
 11 15  1  0  0  0  0
 12  8  1  6  0  0  0
 12 14  1  0  0  0  0
 12 16  1  0  0  0  0
 13 23  1  0  0  0  0
 14 24  1  0  0  0  0
 15 17  1  6  0  0  0
 15 19  1  0  0  0  0
 16 18  1  1  0  0  0
 16 20  1  0  0  0  0
 19 21  1  6  0  0  0
 19 23  1  0  0  0  0
 20 22  1  1  0  0  0
 20 24  1  0  0  0  0
 23 34  1  1  0  0  0
 24 44  1  6  0  0  0
 25 26  2  0  0  0  0
 25 30  1  0  0  0  0
 26 27  1  0  0  0  0
 27 28  2  0  0  0  0
 28 29  1  0  0  0  0
 28 34  1  0  0  0  0
 29 30  2  0  0  0  0
 29 32  1  0  0  0  0
 30 31  1  0  0  0  0
 32 33  2  0  0  0  0
 33 34  1  0  0  0  0
 35 36  2  0  0  0  0
 35 40  1  0  0  0  0
 36 37  1  0  0  0  0
 37 38  2  0  0  0  0
 38 39  1  0  0  0  0
 38 44  1  0  0  0  0
 39 40  2  0  0  0  0
 39 42  1  0  0  0  0
 40 41  1  0  0  0  0
 42 43  2  0  0  0  0
 43 44  1  0  0  0  0
M  CHG  2   3  -1   4  -1
M  END
>  <CHROM.1>
61.88433376,-22.52601402,3.74500060,36.29000441,-13.10952383,3.00580127,-0.00452493
-1.53977419

>  <Name>
ligand

>  <RI>
0

>  <Rbt.Current_Directory>
/home/itssahil/PROJECTS/Mol_Feturizer/New_Systems/rnas/4QLM

>  <Rbt.Executable>
rbdock ($Id: //depot/dev/client3/rdock/2013.1/src/exe/rbdock.cxx#4 $)

>  <Rbt.Library>
libRbt.so (2013.1, Build901 2013/11/27)

>  <Rbt.Parameter_File>
/export/apps/rDock/src/rDock_2013.1_src/data/scripts/dock_solv.prm

>  <Rbt.Receptor>
prm/blind_docking_80.prm

>  <SCORE>
28.2998

>  <SCORE.INTER>
19.944

>  <SCORE.INTER.CONST>
1

>  <SCORE.INTER.POLAR>
0

>  <SCORE.INTER.ROT>
2

>  <SCORE.INTER.SOLV>
39.6072

>  <SCORE.INTER.VDW>
-4.83974

>  <SCORE.INTER.norm>
0.453273

>  <SCORE.INTRA>
-0.299607

>  <SCORE.INTRA.DIHEDRAL>
0.0607906

>  <SCORE.INTRA.DIHEDRAL.0>
2.32994

>  <SCORE.INTRA.POLAR>
0

>  <SCORE.INTRA.POLAR.0>
0

>  <SCORE.INTRA.REPUL>
0

>  <SCORE.INTRA.REPUL.0>
0

>  <SCORE.INTRA.SOLV>
0.149704

>  <SCORE.INTRA.SOLV.lig_0>
-117.703

>  <SCORE.INTRA.VDW>
-0.404854

>  <SCORE.INTRA.VDW.0>
-1.59997

>  <SCORE.INTRA.norm>
-0.00680924

>  <SCORE.RESTR>
8.65545

>  <SCORE.RESTR.CAVITY>
8.65545

>  <SCORE.RESTR.norm>
0.196715

>  <SCORE.SYSTEM>
0

>  <SCORE.SYSTEM.CONST>
0

>  <SCORE.SYSTEM.DIHEDRAL>
0

>  <SCORE.SYSTEM.SOLV>
0

>  <SCORE.SYSTEM.norm>
0

>  <SCORE.heavy>
44

>  <SCORE.norm>
0.643178

>  <RMSD>
12.558

$$$$
ligand
 OpenBabel11021811513D
libRbt.so/2013.1/901 2013/11/27
 44 50  0  0  0  0  0  0  0  0999 V2000
    2.6273   35.7383  -10.1929 P   0  0  2  0  0  0  0  0  0  0  0  0
    4.7466   34.3273  -14.9598 P   0  0  1  0  0  0  0  0  0  0  0  0
    1.6818   34.8936   -9.3426 O   0  5  0  0  0  0  0  0  0  0  0  0
    4.6377   35.5666  -15.8144 O   0  5  0  0  0  0  0  0  0  0  0  0
    2.3453   37.1765   -9.8302 O   0  0  0  0  0  0  0  0  0  0  0  0
    5.6875   33.3436  -15.6918 O   0  0  0  0  0  0  0  0  0  0  0  0
    1.7788   34.0474  -11.8847 C   0  0  0  0  0  0  0  0  0  0  0  0
    5.2468   33.8275  -12.4762 C   0  0  0  0  0  0  0  0  0  0  0  0
    2.2744   35.3761  -11.6717 O   0  0  0  0  0  0  0  0  0  0  0  0
    5.1974   34.8818  -13.4785 O   0  0  0  0  0  0  0  0  0  0  0  0
    1.4316   33.8458  -13.3559 C   0  0  1  0  0  0  0  0  0  0  0  0
    5.8228   34.4904  -11.1684 C   0  0  1  0  0  0  0  0  0  0  0  0
    0.2298   34.2921  -13.5525 O   0  0  0  0  0  0  0  0  0  0  0  0
    6.8861   35.0813  -11.5347 O   0  0  0  0  0  0  0  0  0  0  0  0
    2.3370   34.6121  -14.2925 C   0  0  1  0  0  0  0  0  0  0  0  0
    4.9316   35.6596  -10.7038 C   0  0  1  0  0  0  0  0  0  0  0  0
    3.2513   33.7230  -14.7636 O   0  0  0  0  0  0  0  0  0  0  0  0
    4.1439   35.2975   -9.6839 O   0  0  0  0  0  0  0  0  0  0  0  0
    1.3751   35.0665  -15.4450 C   0  0  1  0  0  0  0  0  0  0  0  0
    5.8775   36.8126  -10.2976 C   0  0  1  0  0  0  0  0  0  0  0  0
    1.5460   34.1845  -16.6308 O   0  0  0  0  0  0  0  0  0  0  0  0
    5.9976   36.8920   -8.8062 O   0  0  0  0  0  0  0  0  0  0  0  0
    0.1711   34.9874  -14.9761 C   0  0  2  0  0  0  0  0  0  0  0  0
    7.0196   36.5004  -10.8068 C   0  0  2  0  0  0  0  0  0  0  0  0
   -0.0812   40.0701  -13.2661 N   0  0  0  0  0  0  0  0  0  0  0  0
    0.9189   39.1870  -12.9887 C   0  0  0  0  0  0  0  0  0  0  0  0
    0.8905   37.9054  -13.4768 N   0  0  0  0  0  0  0  0  0  0  0  0
   -0.1654   37.5142  -14.2528 C   0  0  0  0  0  0  0  0  0  0  0  0
   -1.1601   38.3691  -14.5284 C   0  0  0  0  0  0  0  0  0  0  0  0
   -1.1187   39.6725  -14.0362 C   0  0  0  0  0  0  0  0  0  0  0  0
   -2.0957   40.6645  -14.2520 N   0  0  0  0  0  0  0  0  0  0  0  0
   -2.0549   37.7255  -15.3077 N   0  0  0  0  0  0  0  0  0  0  0  0
   -1.6014   36.4547  -15.5043 C   0  0  0  0  0  0  0  0  0  0  0  0
   -0.4287   36.3276  -14.8697 N   0  0  0  0  0  0  0  0  0  0  0  0
    9.4848   37.4489  -15.2949 N   0  0  0  0  0  0  0  0  0  0  0  0
    9.2813   36.2354  -14.7182 C   0  0  0  0  0  0  0  0  0  0  0  0
    8.6173   36.1576  -13.5265 N   0  0  0  0  0  0  0  0  0  0  0  0
    8.1576   37.2868  -12.9232 C   0  0  0  0  0  0  0  0  0  0  0  0
    8.3519   38.4939  -13.4918 C   0  0  0  0  0  0  0  0  0  0  0  0
    9.0327   38.5644  -14.7038 C   0  0  0  0  0  0  0  0  0  0  0  0
    9.3664   39.7358  -15.4729 N   0  0  0  0  0  0  0  0  0  0  0  0
    7.7960   39.4206  -12.6750 N   0  0  0  0  0  0  0  0  0  0  0  0
    7.2536   38.7752  -11.6031 C   0  0  0  0  0  0  0  0  0  0  0  0
    7.4798   37.4561  -11.7674 N   0  0  0  0  0  0  0  0  0  0  0  0
  1  3  1  1  0  0  0
  1  5  2  0  0  0  0
  1  9  1  0  0  0  0
  1 18  1  0  0  0  0
  2  4  1  6  0  0  0
  2  6  2  0  0  0  0
  2 10  1  0  0  0  0
  2 17  1  0  0  0  0
  7  9  1  0  0  0  0
  8 10  1  0  0  0  0
 11  7  1  1  0  0  0
 11 13  1  0  0  0  0
 11 15  1  0  0  0  0
 12  8  1  6  0  0  0
 12 14  1  0  0  0  0
 12 16  1  0  0  0  0
 13 23  1  0  0  0  0
 14 24  1  0  0  0  0
 15 17  1  6  0  0  0
 15 19  1  0  0  0  0
 16 18  1  1  0  0  0
 16 20  1  0  0  0  0
 19 21  1  6  0  0  0
 19 23  1  0  0  0  0
 20 22  1  1  0  0  0
 20 24  1  0  0  0  0
 23 34  1  1  0  0  0
 24 44  1  6  0  0  0
 25 26  2  0  0  0  0
 25 30  1  0  0  0  0
 26 27  1  0  0  0  0
 27 28  2  0  0  0  0
 28 29  1  0  0  0  0
 28 34  1  0  0  0  0
 29 30  2  0  0  0  0
 29 32  1  0  0  0  0
 30 31  1  0  0  0  0
 32 33  2  0  0  0  0
 33 34  1  0  0  0  0
 35 36  2  0  0  0  0
 35 40  1  0  0  0  0
 36 37  1  0  0  0  0
 37 38  2  0  0  0  0
 38 39  1  0  0  0  0
 38 44  1  0  0  0  0
 39 40  2  0  0  0  0
 39 42  1  0  0  0  0
 40 41  1  0  0  0  0
 42 43  2  0  0  0  0
 43 44  1  0  0  0  0
M  CHG  2   3  -1   4  -1
M  END
>  <CHROM.1>
62.01356379,-22.90060215,3.74398197,36.29538340,-13.11297002,3.00577626,-0.00315061
-1.53745585

>  <Name>
ligand

>  <RI>
0

>  <Rbt.Current_Directory>
/home/itssahil/PROJECTS/Mol_Feturizer/New_Systems/rnas/4QLM

>  <Rbt.Executable>
rbdock ($Id: //depot/dev/client3/rdock/2013.1/src/exe/rbdock.cxx#4 $)

>  <Rbt.Library>
libRbt.so (2013.1, Build901 2013/11/27)

>  <Rbt.Parameter_File>
/export/apps/rDock/src/rDock_2013.1_src/data/scripts/dock_solv.prm

>  <Rbt.Receptor>
prm/blind_docking_80.prm

>  <SCORE>
28.0131

>  <SCORE.INTER>
19.5614

>  <SCORE.INTER.CONST>
1

>  <SCORE.INTER.POLAR>
0

>  <SCORE.INTER.ROT>
2

>  <SCORE.INTER.SOLV>
39.6298

>  <SCORE.INTER.VDW>
-5.1023

>  <SCORE.INTER.norm>
0.444578

>  <SCORE.INTRA>
-0.262478

>  <SCORE.INTRA.DIHEDRAL>
0.0601727

>  <SCORE.INTRA.DIHEDRAL.0>
2.32994

>  <SCORE.INTRA.POLAR>
0

>  <SCORE.INTRA.POLAR.0>
0

>  <SCORE.INTRA.REPUL>
0

>  <SCORE.INTRA.REPUL.0>
0

>  <SCORE.INTRA.SOLV>
0.147663

>  <SCORE.INTRA.SOLV.lig_0>
-117.703

>  <SCORE.INTRA.VDW>
-0.366395

>  <SCORE.INTRA.VDW.0>
-1.59997

>  <SCORE.INTRA.norm>
-0.00596541

>  <SCORE.RESTR>
8.71419

>  <SCORE.RESTR.CAVITY>
8.71419

>  <SCORE.RESTR.norm>
0.19805

>  <SCORE.SYSTEM>
0

>  <SCORE.SYSTEM.CONST>
0

>  <SCORE.SYSTEM.DIHEDRAL>
0

>  <SCORE.SYSTEM.SOLV>
0

>  <SCORE.SYSTEM.norm>
0

>  <SCORE.heavy>
44

>  <SCORE.norm>
0.636662

>  <RMSD>
12.560

$$$$
ligand
 OpenBabel11021811513D
libRbt.so/2013.1/901 2013/11/27
 44 50  0  0  0  0  0  0  0  0999 V2000
    4.2778   34.1804  -15.3975 P   0  0  2  0  0  0  0  0  0  0  0  0
    2.1446   35.1594  -10.5295 P   0  0  1  0  0  0  0  0  0  0  0  0
    5.1528   32.9873  -15.7735 O   0  5  0  0  0  0  0  0  0  0  0  0
    2.3474   36.6385  -10.3079 O   0  5  0  0  0  0  0  0  0  0  0  0
    4.6474   35.2891  -16.3533 O   0  0  0  0  0  0  0  0  0  0  0  0
    1.1528   34.6635   -9.4528 O   0  0  0  0  0  0  0  0  0  0  0  0
    5.0400   33.3579  -13.1207 C   0  0  0  0  0  0  0  0  0  0  0  0
    1.5746   33.6490  -12.5450 C   0  0  0  0  0  0  0  0  0  0  0  0
    4.6290   34.4855  -13.9054 O   0  0  0  0  0  0  0  0  0  0  0  0
    1.7082   35.0316  -12.1101 O   0  0  0  0  0  0  0  0  0  0  0  0
    5.3959   33.8039  -11.7065 C   0  0  1  0  0  0  0  0  0  0  0  0
    1.0230   33.7029  -14.0196 C   0  0  1  0  0  0  0  0  0  0  0  0
    6.6272   34.2115  -11.7090 O   0  0  0  0  0  0  0  0  0  0  0  0
    0.0063   34.4630  -13.9675 O   0  0  0  0  0  0  0  0  0  0  0  0
    4.5570   34.9622  -11.2178 C   0  0  1  0  0  0  0  0  0  0  0  0
    1.9814   34.4861  -14.9389 C   0  0  1  0  0  0  0  0  0  0  0  0
    3.5940   34.4342  -10.4165 O   0  0  0  0  0  0  0  0  0  0  0  0
    2.7279   33.6605  -15.6825 O   0  0  0  0  0  0  0  0  0  0  0  0
    5.5643   35.8145  -10.3697 C   0  0  1  0  0  0  0  0  0  0  0  0
    1.1067   35.4007  -15.8263 C   0  0  1  0  0  0  0  0  0  0  0  0
    5.3544   35.5595   -8.9191 O   0  0  0  0  0  0  0  0  0  0  0  0
    0.9690   34.8216  -17.2014 O   0  0  0  0  0  0  0  0  0  0  0  0
    6.7532   35.4580  -10.7375 C   0  0  2  0  0  0  0  0  0  0  0  0
   -0.0454   35.4206  -15.2489 C   0  0  2  0  0  0  0  0  0  0  0  0
    8.5953   38.1460  -15.0040 N   0  0  0  0  0  0  0  0  0  0  0  0
    7.8921   36.9792  -15.0427 C   0  0  0  0  0  0  0  0  0  0  0  0
    7.4634   36.3698  -13.8910 N   0  0  0  0  0  0  0  0  0  0  0  0
    7.7534   36.9487  -12.6864 C   0  0  0  0  0  0  0  0  0  0  0  0
    8.4503   38.0923  -12.6320 C   0  0  0  0  0  0  0  0  0  0  0  0
    8.8740   38.7100  -13.8074 C   0  0  0  0  0  0  0  0  0  0  0  0
    9.6101   39.9086  -13.8875 N   0  0  0  0  0  0  0  0  0  0  0  0
    8.5846   38.4335  -11.3329 N   0  0  0  0  0  0  0  0  0  0  0  0
    7.9653   37.4781  -10.5826 C   0  0  0  0  0  0  0  0  0  0  0  0
    7.4375   36.5713  -11.4153 N   0  0  0  0  0  0  0  0  0  0  0  0
    1.1873   39.7843  -12.6879 N   0  0  0  0  0  0  0  0  0  0  0  0
    1.9643   38.6794  -12.8350 C   0  0  0  0  0  0  0  0  0  0  0  0
    1.4873   37.6074  -13.5354 N   0  0  0  0  0  0  0  0  0  0  0  0
    0.2445   37.6475  -14.0871 C   0  0  0  0  0  0  0  0  0  0  0  0
   -0.5304   38.7424  -13.9490 C   0  0  0  0  0  0  0  0  0  0  0  0
   -0.0381   39.8282  -13.2307 C   0  0  0  0  0  0  0  0  0  0  0  0
   -0.6926   41.0791  -12.9442 N   0  0  0  0  0  0  0  0  0  0  0  0
   -1.6973   38.4964  -14.5915 N   0  0  0  0  0  0  0  0  0  0  0  0
   -1.6329   37.2453  -15.1304 C   0  0  0  0  0  0  0  0  0  0  0  0
   -0.4273   36.7300  -14.8155 N   0  0  0  0  0  0  0  0  0  0  0  0
  1  3  1  6  0  0  0
  1  5  2  0  0  0  0
  1  9  1  0  0  0  0
  1 18  1  0  0  0  0
  2  4  1  1  0  0  0
  2  6  2  0  0  0  0
  2 10  1  0  0  0  0
  2 17  1  0  0  0  0
  7  9  1  0  0  0  0
  8 10  1  0  0  0  0
 11  7  1  6  0  0  0
 11 13  1  0  0  0  0
 11 15  1  0  0  0  0
 12  8  1  1  0  0  0
 12 14  1  0  0  0  0
 12 16  1  0  0  0  0
 13 23  1  0  0  0  0
 14 24  1  0  0  0  0
 15 17  1  1  0  0  0
 15 19  1  0  0  0  0
 16 18  1  6  0  0  0
 16 20  1  0  0  0  0
 19 21  1  1  0  0  0
 19 23  1  0  0  0  0
 20 22  1  6  0  0  0
 20 24  1  0  0  0  0
 23 34  1  6  0  0  0
 24 44  1  1  0  0  0
 25 26  2  0  0  0  0
 25 30  1  0  0  0  0
 26 27  1  0  0  0  0
 27 28  2  0  0  0  0
 28 29  1  0  0  0  0
 28 34  1  0  0  0  0
 29 30  2  0  0  0  0
 29 32  1  0  0  0  0
 30 31  1  0  0  0  0
 32 33  2  0  0  0  0
 33 34  1  0  0  0  0
 35 36  2  0  0  0  0
 35 40  1  0  0  0  0
 36 37  1  0  0  0  0
 37 38  2  0  0  0  0
 38 39  1  0  0  0  0
 38 44  1  0  0  0  0
 39 40  2  0  0  0  0
 39 42  1  0  0  0  0
 40 41  1  0  0  0  0
 42 43  2  0  0  0  0
 43 44  1  0  0  0  0
M  CHG  2   3  -1   4  -1
M  END
>  <CHROM.1>
17.02810064,70.02289683,3.60644575,36.07323009,-13.14857033,-0.13629220,0.15963161
-2.53763268

>  <Name>
ligand

>  <RI>
0

>  <Rbt.Current_Directory>
/home/itssahil/PROJECTS/Mol_Feturizer/New_Systems/rnas/4QLM

>  <Rbt.Executable>
rbdock ($Id: //depot/dev/client3/rdock/2013.1/src/exe/rbdock.cxx#4 $)

>  <Rbt.Library>
libRbt.so (2013.1, Build901 2013/11/27)

>  <Rbt.Parameter_File>
/export/apps/rDock/src/rDock_2013.1_src/data/scripts/dock_solv.prm

>  <Rbt.Receptor>
prm/blind_docking_80.prm

>  <SCORE>
62.4299

>  <SCORE.INTER>
56.0635

>  <SCORE.INTER.CONST>
1

>  <SCORE.INTER.POLAR>
0

>  <SCORE.INTER.ROT>
2

>  <SCORE.INTER.SOLV>
40.9369

>  <SCORE.INTER.VDW>
18.7967

>  <SCORE.INTER.norm>
1.27417

>  <SCORE.INTRA>
-1.49591

>  <SCORE.INTRA.DIHEDRAL>
0.162266

>  <SCORE.INTRA.DIHEDRAL.0>
2.32994

>  <SCORE.INTRA.POLAR>
0

>  <SCORE.INTRA.POLAR.0>
0

>  <SCORE.INTRA.REPUL>
0

>  <SCORE.INTRA.REPUL.0>
0

>  <SCORE.INTRA.SOLV>
0.712348

>  <SCORE.INTRA.SOLV.lig_0>
-117.703

>  <SCORE.INTRA.VDW>
-1.93322

>  <SCORE.INTRA.VDW.0>
-1.59997

>  <SCORE.INTRA.norm>
-0.033998

>  <SCORE.RESTR>
7.86231

>  <SCORE.RESTR.CAVITY>
7.86231

>  <SCORE.RESTR.norm>
0.178689

>  <SCORE.SYSTEM>
0

>  <SCORE.SYSTEM.CONST>
0

>  <SCORE.SYSTEM.DIHEDRAL>
0

>  <SCORE.SYSTEM.SOLV>
0

>  <SCORE.SYSTEM.norm>
0

>  <SCORE.heavy>
44

>  <SCORE.norm>
1.41886

>  <RMSD>
12.573

$$$$
ligand
 OpenBabel11021811513D
libRbt.so/2013.1/901 2013/11/27
 44 50  0  0  0  0  0  0  0  0999 V2000
    4.2914   34.1812  -15.3945 P   0  0  2  0  0  0  0  0  0  0  0  0
    2.1386   35.1643  -10.5361 P   0  0  1  0  0  0  0  0  0  0  0  0
    5.1697   32.9889  -15.7655 O   0  5  0  0  0  0  0  0  0  0  0  0
    2.3382   36.6441  -10.3160 O   0  5  0  0  0  0  0  0  0  0  0  0
    4.6629   35.2890  -16.3507 O   0  0  0  0  0  0  0  0  0  0  0  0
    1.1436   34.6685   -9.4622 O   0  0  0  0  0  0  0  0  0  0  0  0
    5.0465   33.3634  -13.1136 C   0  0  0  0  0  0  0  0  0  0  0  0
    1.5785   33.6498  -12.5513 C   0  0  0  0  0  0  0  0  0  0  0  0
    4.6366   34.4892  -13.9017 O   0  0  0  0  0  0  0  0  0  0  0  0
    1.7083   35.0334  -12.1180 O   0  0  0  0  0  0  0  0  0  0  0  0
    5.3964   33.8121  -11.6988 C   0  0  1  0  0  0  0  0  0  0  0  0
    1.0323   33.7006  -14.0280 C   0  0  1  0  0  0  0  0  0  0  0  0
    6.6271   34.2217  -11.6973 O   0  0  0  0  0  0  0  0  0  0  0  0
    0.0143   34.4592  -13.9809 O   0  0  0  0  0  0  0  0  0  0  0  0
    4.5539   34.9699  -11.2150 C   0  0  1  0  0  0  0  0  0  0  0  0
    1.9929   34.4839  -14.9449 C   0  0  1  0  0  0  0  0  0  0  0  0
    3.5888   34.4416  -10.4165 O   0  0  0  0  0  0  0  0  0  0  0  0
    2.7435   33.6583  -15.6845 O   0  0  0  0  0  0  0  0  0  0  0  0
    5.5567   35.8251  -10.3646 C   0  0  1  0  0  0  0  0  0  0  0  0
    1.1200   35.3958  -15.8370 C   0  0  1  0  0  0  0  0  0  0  0  0
    5.3418   35.5720   -8.9143 O   0  0  0  0  0  0  0  0  0  0  0  0
    0.9884   34.8143  -17.2117 O   0  0  0  0  0  0  0  0  0  0  0  0
    6.7474   35.4700  -10.7274 C   0  0  2  0  0  0  0  0  0  0  0  0
   -0.0342   35.4148  -15.2639 C   0  0  2  0  0  0  0  0  0  0  0  0
    8.8340   38.0300  -14.9599 N   0  0  0  0  0  0  0  0  0  0  0  0
    8.1993   36.8245  -14.9939 C   0  0  0  0  0  0  0  0  0  0  0  0
    7.6982   36.2532  -13.8520 N   0  0  0  0  0  0  0  0  0  0  0  0
    7.8447   36.9105  -12.6617 C   0  0  0  0  0  0  0  0  0  0  0  0
    8.4729   38.0934  -12.6113 C   0  0  0  0  0  0  0  0  0  0  0  0
    8.9707   38.6714  -13.7778 C   0  0  0  0  0  0  0  0  0  0  0  0
    9.6474   39.9044  -13.8607 N   0  0  0  0  0  0  0  0  0  0  0  0
    8.4681   38.5099  -11.3273 N   0  0  0  0  0  0  0  0  0  0  0  0
    7.8328   37.5615  -10.5816 C   0  0  0  0  0  0  0  0  0  0  0  0
    7.4326   36.5833  -11.4044 N   0  0  0  0  0  0  0  0  0  0  0  0
    1.1485   39.7511  -12.6337 N   0  0  0  0  0  0  0  0  0  0  0  0
    1.9213   38.6409  -12.7633 C   0  0  0  0  0  0  0  0  0  0  0  0
    1.4589   37.5776  -13.4864 N   0  0  0  0  0  0  0  0  0  0  0  0
    0.2351   37.6313  -14.0778 C   0  0  0  0  0  0  0  0  0  0  0  0
   -0.5353   38.7314  -13.9572 C   0  0  0  0  0  0  0  0  0  0  0  0
   -0.0583   39.8084  -13.2157 C   0  0  0  0  0  0  0  0  0  0  0  0
   -0.7120   41.0625  -12.9418 N   0  0  0  0  0  0  0  0  0  0  0  0
   -1.6826   38.4991  -14.6390 N   0  0  0  0  0  0  0  0  0  0  0  0
   -1.6105   37.2512  -15.1843 C   0  0  0  0  0  0  0  0  0  0  0  0
   -0.4199   36.7242  -14.8340 N   0  0  0  0  0  0  0  0  0  0  0  0
  1  3  1  6  0  0  0
  1  5  2  0  0  0  0
  1  9  1  0  0  0  0
  1 18  1  0  0  0  0
  2  4  1  1  0  0  0
  2  6  2  0  0  0  0
  2 10  1  0  0  0  0
  2 17  1  0  0  0  0
  7  9  1  0  0  0  0
  8 10  1  0  0  0  0
 11  7  1  6  0  0  0
 11 13  1  0  0  0  0
 11 15  1  0  0  0  0
 12  8  1  1  0  0  0
 12 14  1  0  0  0  0
 12 16  1  0  0  0  0
 13 23  1  0  0  0  0
 14 24  1  0  0  0  0
 15 17  1  1  0  0  0
 15 19  1  0  0  0  0
 16 18  1  6  0  0  0
 16 20  1  0  0  0  0
 19 21  1  1  0  0  0
 19 23  1  0  0  0  0
 20 22  1  6  0  0  0
 20 24  1  0  0  0  0
 23 34  1  6  0  0  0
 24 44  1  1  0  0  0
 25 26  2  0  0  0  0
 25 30  1  0  0  0  0
 26 27  1  0  0  0  0
 27 28  2  0  0  0  0
 28 29  1  0  0  0  0
 28 34  1  0  0  0  0
 29 30  2  0  0  0  0
 29 32  1  0  0  0  0
 30 31  1  0  0  0  0
 32 33  2  0  0  0  0
 33 34  1  0  0  0  0
 35 36  2  0  0  0  0
 35 40  1  0  0  0  0
 36 37  1  0  0  0  0
 37 38  2  0  0  0  0
 38 39  1  0  0  0  0
 38 44  1  0  0  0  0
 39 40  2  0  0  0  0
 39 42  1  0  0  0  0
 40 41  1  0  0  0  0
 42 43  2  0  0  0  0
 43 44  1  0  0  0  0
M  CHG  2   3  -1   4  -1
M  END
>  <CHROM.1>
10.38853868,68.22189565,3.62196615,36.06573796,-13.14297228,-0.14738237,0.13989713
-2.42980420

>  <Name>
ligand

>  <RI>
0

>  <Rbt.Current_Directory>
/home/itssahil/PROJECTS/Mol_Feturizer/New_Systems/rnas/4QLM

>  <Rbt.Executable>
rbdock ($Id: //depot/dev/client3/rdock/2013.1/src/exe/rbdock.cxx#4 $)

>  <Rbt.Library>
libRbt.so (2013.1, Build901 2013/11/27)

>  <Rbt.Parameter_File>
/export/apps/rDock/src/rDock_2013.1_src/data/scripts/dock_solv.prm

>  <Rbt.Receptor>
prm/blind_docking_80.prm

>  <SCORE>
62.224

>  <SCORE.INTER>
55.5848

>  <SCORE.INTER.CONST>
1

>  <SCORE.INTER.POLAR>
0

>  <SCORE.INTER.ROT>
2

>  <SCORE.INTER.SOLV>
40.6743

>  <SCORE.INTER.VDW>
18.5651

>  <SCORE.INTER.norm>
1.26329

>  <SCORE.INTRA>
-1.3182

>  <SCORE.INTRA.DIHEDRAL>
0.136265

>  <SCORE.INTRA.DIHEDRAL.0>
2.32994

>  <SCORE.INTRA.POLAR>
0

>  <SCORE.INTRA.POLAR.0>
0

>  <SCORE.INTRA.REPUL>
0

>  <SCORE.INTRA.REPUL.0>
0

>  <SCORE.INTRA.SOLV>
0.680617

>  <SCORE.INTRA.SOLV.lig_0>
-117.703

>  <SCORE.INTRA.VDW>
-1.72665

>  <SCORE.INTRA.VDW.0>
-1.59997

>  <SCORE.INTRA.norm>
-0.0299592

>  <SCORE.RESTR>
7.95735

>  <SCORE.RESTR.CAVITY>
7.95735

>  <SCORE.RESTR.norm>
0.180849

>  <SCORE.SYSTEM>
0

>  <SCORE.SYSTEM.CONST>
0

>  <SCORE.SYSTEM.DIHEDRAL>
0

>  <SCORE.SYSTEM.SOLV>
0

>  <SCORE.SYSTEM.norm>
0

>  <SCORE.heavy>
44

>  <SCORE.norm>
1.41418

>  <RMSD>
12.585

$$$$
ligand
 OpenBabel11021811513D
libRbt.so/2013.1/901 2013/11/27
 44 50  0  0  0  0  0  0  0  0999 V2000
    4.3028   34.1949  -15.4023 P   0  0  2  0  0  0  0  0  0  0  0  0
    2.1851   35.1373  -10.5203 P   0  0  1  0  0  0  0  0  0  0  0  0
    5.1777   33.0054  -15.7897 O   0  5  0  0  0  0  0  0  0  0  0  0
    2.3872   36.6150  -10.2889 O   0  5  0  0  0  0  0  0  0  0  0  0
    4.6681   35.3108  -16.3514 O   0  0  0  0  0  0  0  0  0  0  0  0
    1.1975   34.6328   -9.4438 O   0  0  0  0  0  0  0  0  0  0  0  0
    5.0735   33.3571  -13.1339 C   0  0  0  0  0  0  0  0  0  0  0  0
    1.6098   33.6406  -12.5445 C   0  0  0  0  0  0  0  0  0  0  0  0
    4.6587   34.4899  -13.9093 O   0  0  0  0  0  0  0  0  0  0  0  0
    1.7435   35.0202  -12.1003 O   0  0  0  0  0  0  0  0  0  0  0  0
    5.4337   33.7934  -11.7178 C   0  0  1  0  0  0  0  0  0  0  0  0
    1.0532   33.7044  -14.0168 C   0  0  1  0  0  0  0  0  0  0  0  0
    6.6647   34.2022  -11.7215 O   0  0  0  0  0  0  0  0  0  0  0  0
    0.0359   34.4631  -13.9560 O   0  0  0  0  0  0  0  0  0  0  0  0
    4.5954   34.9474  -11.2181 C   0  0  1  0  0  0  0  0  0  0  0  0
    2.0077   34.4951  -14.9338 C   0  0  1  0  0  0  0  0  0  0  0  0
    3.6356   34.4127  -10.4173 O   0  0  0  0  0  0  0  0  0  0  0  0
    2.7525   33.6755  -15.6857 O   0  0  0  0  0  0  0  0  0  0  0  0
    5.6047   35.7947  -10.3674 C   0  0  1  0  0  0  0  0  0  0  0  0
    1.1291   35.4151  -15.8117 C   0  0  1  0  0  0  0  0  0  0  0  0
    5.4000   35.5291   -8.9179 O   0  0  0  0  0  0  0  0  0  0  0  0
    0.9873   34.8455  -17.1904 O   0  0  0  0  0  0  0  0  0  0  0  0
    6.7927   35.4420  -10.7417 C   0  0  2  0  0  0  0  0  0  0  0  0
   -0.0210   35.4297  -15.2303 C   0  0  2  0  0  0  0  0  0  0  0  0
    8.6405   38.1491  -14.9936 N   0  0  0  0  0  0  0  0  0  0  0  0
    7.9449   36.9781  -15.0381 C   0  0  0  0  0  0  0  0  0  0  0  0
    7.5139   36.3639  -13.8898 N   0  0  0  0  0  0  0  0  0  0  0  0
    7.7939   36.9424  -12.6826 C   0  0  0  0  0  0  0  0  0  0  0  0
    8.4834   38.0902  -12.6225 C   0  0  0  0  0  0  0  0  0  0  0  0
    8.9094   38.7126  -13.7946 C   0  0  0  0  0  0  0  0  0  0  0  0
    9.6384   39.9160  -13.8686 N   0  0  0  0  0  0  0  0  0  0  0  0
    8.6086   38.4299  -11.3221 N   0  0  0  0  0  0  0  0  0  0  0  0
    7.9914   37.4693  -10.5768 C   0  0  0  0  0  0  0  0  0  0  0  0
    7.4737   36.5607  -11.4139 N   0  0  0  0  0  0  0  0  0  0  0  0
    1.2272   39.7884  -12.6682 N   0  0  0  0  0  0  0  0  0  0  0  0
    2.0070   38.6875  -12.8304 C   0  0  0  0  0  0  0  0  0  0  0  0
    1.5252   37.6163  -13.5287 N   0  0  0  0  0  0  0  0  0  0  0  0
    0.2748   37.6531  -14.0633 C   0  0  0  0  0  0  0  0  0  0  0  0
   -0.5029   38.7439  -13.9102 C   0  0  0  0  0  0  0  0  0  0  0  0
   -0.0057   39.8290  -13.1941 C   0  0  0  0  0  0  0  0  0  0  0  0
   -0.6617   41.0758  -12.8936 N   0  0  0  0  0  0  0  0  0  0  0  0
   -1.6773   38.4954  -14.5379 N   0  0  0  0  0  0  0  0  0  0  0  0
   -1.6148   37.2468  -15.0828 C   0  0  0  0  0  0  0  0  0  0  0  0
   -0.4028   36.7356  -14.7864 N   0  0  0  0  0  0  0  0  0  0  0  0
  1  3  1  6  0  0  0
  1  5  2  0  0  0  0
  1  9  1  0  0  0  0
  1 18  1  0  0  0  0
  2  4  1  1  0  0  0
  2  6  2  0  0  0  0
  2 10  1  0  0  0  0
  2 17  1  0  0  0  0
  7  9  1  0  0  0  0
  8 10  1  0  0  0  0
 11  7  1  6  0  0  0
 11 13  1  0  0  0  0
 11 15  1  0  0  0  0
 12  8  1  1  0  0  0
 12 14  1  0  0  0  0
 12 16  1  0  0  0  0
 13 23  1  0  0  0  0
 14 24  1  0  0  0  0
 15 17  1  1  0  0  0
 15 19  1  0  0  0  0
 16 18  1  6  0  0  0
 16 20  1  0  0  0  0
 19 21  1  1  0  0  0
 19 23  1  0  0  0  0
 20 22  1  6  0  0  0
 20 24  1  0  0  0  0
 23 34  1  6  0  0  0
 24 44  1  1  0  0  0
 25 26  2  0  0  0  0
 25 30  1  0  0  0  0
 26 27  1  0  0  0  0
 27 28  2  0  0  0  0
 28 29  1  0  0  0  0
 28 34  1  0  0  0  0
 29 30  2  0  0  0  0
 29 32  1  0  0  0  0
 30 31  1  0  0  0  0
 32 33  2  0  0  0  0
 33 34  1  0  0  0  0
 35 36  2  0  0  0  0
 35 40  1  0  0  0  0
 36 37  1  0  0  0  0
 37 38  2  0  0  0  0
 38 39  1  0  0  0  0
 38 44  1  0  0  0  0
 39 40  2  0  0  0  0
 39 42  1  0  0  0  0
 40 41  1  0  0  0  0
 42 43  2  0  0  0  0
 43 44  1  0  0  0  0
M  CHG  2   3  -1   4  -1
M  END
>  <CHROM.1>
16.37268709,70.66206052,3.63962197,36.07117284,-13.13953460,-0.13262373,0.15823689
-2.54469524

>  <Name>
ligand

>  <RI>
0

>  <Rbt.Current_Directory>
/home/itssahil/PROJECTS/Mol_Feturizer/New_Systems/rnas/4QLM

>  <Rbt.Executable>
rbdock ($Id: //depot/dev/client3/rdock/2013.1/src/exe/rbdock.cxx#4 $)

>  <Rbt.Library>
libRbt.so (2013.1, Build901 2013/11/27)

>  <Rbt.Parameter_File>
/export/apps/rDock/src/rDock_2013.1_src/data/scripts/dock_solv.prm

>  <Rbt.Receptor>
prm/blind_docking_80.prm

>  <SCORE>
62.54

>  <SCORE.INTER>
56.1767

>  <SCORE.INTER.CONST>
1

>  <SCORE.INTER.POLAR>
0

>  <SCORE.INTER.ROT>
2

>  <SCORE.INTER.SOLV>
40.9755

>  <SCORE.INTER.VDW>
18.8593

>  <SCORE.INTER.norm>
1.27674

>  <SCORE.INTRA>
-1.46971

>  <SCORE.INTRA.DIHEDRAL>
0.160525

>  <SCORE.INTRA.DIHEDRAL.0>
2.32994

>  <SCORE.INTRA.POLAR>
0

>  <SCORE.INTRA.POLAR.0>
0

>  <SCORE.INTRA.REPUL>
0

>  <SCORE.INTRA.REPUL.0>
0

>  <SCORE.INTRA.SOLV>
0.679412

>  <SCORE.INTRA.SOLV.lig_0>
-117.703

>  <SCORE.INTRA.VDW>
-1.88968

>  <SCORE.INTRA.VDW.0>
-1.59997

>  <SCORE.INTRA.norm>
-0.0334025

>  <SCORE.RESTR>
7.83302

>  <SCORE.RESTR.CAVITY>
7.83302

>  <SCORE.RESTR.norm>
0.178023

>  <SCORE.SYSTEM>
0

>  <SCORE.SYSTEM.CONST>
0

>  <SCORE.SYSTEM.DIHEDRAL>
0

>  <SCORE.SYSTEM.SOLV>
0

>  <SCORE.SYSTEM.norm>
0

>  <SCORE.heavy>
44

>  <SCORE.norm>
1.42136

>  <RMSD>
12.605

$$$$
ligand
 OpenBabel11021811513D
libRbt.so/2013.1/901 2013/11/27
 44 50  0  0  0  0  0  0  0  0999 V2000
    4.2918   34.1990  -15.3917 P   0  0  2  0  0  0  0  0  0  0  0  0
    2.1286   35.1652  -10.5345 P   0  0  1  0  0  0  0  0  0  0  0  0
    5.1741   33.0101  -15.7639 O   0  5  0  0  0  0  0  0  0  0  0  0
    2.3236   36.6451  -10.3109 O   0  5  0  0  0  0  0  0  0  0  0  0
    4.6616   35.3100  -16.3449 O   0  0  0  0  0  0  0  0  0  0  0  0
    1.1334   34.6642   -9.4633 O   0  0  0  0  0  0  0  0  0  0  0  0
    5.0456   33.3784  -13.1115 C   0  0  0  0  0  0  0  0  0  0  0  0
    1.5760   33.6536  -12.5539 C   0  0  0  0  0  0  0  0  0  0  0  0
    4.6338   34.5047  -13.8977 O   0  0  0  0  0  0  0  0  0  0  0  0
    1.7012   35.0365  -12.1174 O   0  0  0  0  0  0  0  0  0  0  0  0
    5.3921   33.8250  -11.6951 C   0  0  1  0  0  0  0  0  0  0  0  0
    1.0320   33.7061  -14.0314 C   0  0  1  0  0  0  0  0  0  0  0  0
    6.6216   34.2380  -11.6908 O   0  0  0  0  0  0  0  0  0  0  0  0
    0.0117   34.4616  -13.9842 O   0  0  0  0  0  0  0  0  0  0  0  0
    4.5455   34.9793  -11.2101 C   0  0  1  0  0  0  0  0  0  0  0  0
    1.9917   34.4941  -14.9451 C   0  0  1  0  0  0  0  0  0  0  0  0
    3.5806   34.4464  -10.4142 O   0  0  0  0  0  0  0  0  0  0  0  0
    2.7458   33.6723  -15.6853 O   0  0  0  0  0  0  0  0  0  0  0  0
    5.5444   35.8355  -10.3562 C   0  0  1  0  0  0  0  0  0  0  0  0
    1.1176   35.4055  -15.8365 C   0  0  1  0  0  0  0  0  0  0  0  0
    5.3281   35.5785   -8.9069 O   0  0  0  0  0  0  0  0  0  0  0  0
    0.9898   34.8266  -17.2127 O   0  0  0  0  0  0  0  0  0  0  0  0
    6.7368   35.4845  -10.7179 C   0  0  2  0  0  0  0  0  0  0  0  0
   -0.0375   35.4198  -15.2652 C   0  0  2  0  0  0  0  0  0  0  0  0
    9.1660   37.9064  -14.8477 N   0  0  0  0  0  0  0  0  0  0  0  0
    8.6338   36.6519  -14.8633 C   0  0  0  0  0  0  0  0  0  0  0  0
    8.0305   36.1224  -13.7510 N   0  0  0  0  0  0  0  0  0  0  0  0
    7.9687   36.8725  -12.6092 C   0  0  0  0  0  0  0  0  0  0  0  0
    8.4940   38.1051  -12.5763 C   0  0  0  0  0  0  0  0  0  0  0  0
    9.0968   38.6393  -13.7138 C   0  0  0  0  0  0  0  0  0  0  0  0
    9.6840   39.9163  -13.8107 N   0  0  0  0  0  0  0  0  0  0  0  0
    8.2884   38.6096  -11.3412 N   0  0  0  0  0  0  0  0  0  0  0  0
    7.6333   37.6658  -10.6069 C   0  0  0  0  0  0  0  0  0  0  0  0
    7.4198   36.6013  -11.3914 N   0  0  0  0  0  0  0  0  0  0  0  0
    1.1326   39.7577  -12.6319 N   0  0  0  0  0  0  0  0  0  0  0  0
    1.9096   38.6508  -12.7643 C   0  0  0  0  0  0  0  0  0  0  0  0
    1.4502   37.5865  -13.4877 N   0  0  0  0  0  0  0  0  0  0  0  0
    0.2250   37.6361  -14.0769 C   0  0  0  0  0  0  0  0  0  0  0  0
   -0.5495   38.7329  -13.9536 C   0  0  0  0  0  0  0  0  0  0  0  0
   -0.0754   39.8109  -13.2117 C   0  0  0  0  0  0  0  0  0  0  0  0
   -0.7336   41.0620  -12.9351 N   0  0  0  0  0  0  0  0  0  0  0  0
   -1.6971   38.4969  -14.6336 N   0  0  0  0  0  0  0  0  0  0  0  0
   -1.6210   37.2499  -15.1805 C   0  0  0  0  0  0  0  0  0  0  0  0
   -0.4276   36.7272  -14.8330 N   0  0  0  0  0  0  0  0  0  0  0  0
  1  3  1  6  0  0  0
  1  5  2  0  0  0  0
  1  9  1  0  0  0  0
  1 18  1  0  0  0  0
  2  4  1  1  0  0  0
  2  6  2  0  0  0  0
  2 10  1  0  0  0  0
  2 17  1  0  0  0  0
  7  9  1  0  0  0  0
  8 10  1  0  0  0  0
 11  7  1  6  0  0  0
 11 13  1  0  0  0  0
 11 15  1  0  0  0  0
 12  8  1  1  0  0  0
 12 14  1  0  0  0  0
 12 16  1  0  0  0  0
 13 23  1  0  0  0  0
 14 24  1  0  0  0  0
 15 17  1  1  0  0  0
 15 19  1  0  0  0  0
 16 18  1  6  0  0  0
 16 20  1  0  0  0  0
 19 21  1  1  0  0  0
 19 23  1  0  0  0  0
 20 22  1  6  0  0  0
 20 24  1  0  0  0  0
 23 34  1  6  0  0  0
 24 44  1  1  0  0  0
 25 26  2  0  0  0  0
 25 30  1  0  0  0  0
 26 27  1  0  0  0  0
 27 28  2  0  0  0  0
 28 29  1  0  0  0  0
 28 34  1  0  0  0  0
 29 30  2  0  0  0  0
 29 32  1  0  0  0  0
 30 31  1  0  0  0  0
 32 33  2  0  0  0  0
 33 34  1  0  0  0  0
 35 36  2  0  0  0  0
 35 40  1  0  0  0  0
 36 37  1  0  0  0  0
 37 38  2  0  0  0  0
 38 39  1  0  0  0  0
 38 44  1  0  0  0  0
 39 40  2  0  0  0  0
 39 42  1  0  0  0  0
 40 41  1  0  0  0  0
 42 43  2  0  0  0  0
 43 44  1  0  0  0  0
M  CHG  2   3  -1   4  -1
M  END
>  <CHROM.1>
0.69775327,68.43309062,3.63689420,36.06702695,-13.13069563,-0.14316210,0.13259682
-2.41141235

>  <Name>
ligand

>  <RI>
0

>  <Rbt.Current_Directory>
/home/itssahil/PROJECTS/Mol_Feturizer/New_Systems/rnas/4QLM

>  <Rbt.Executable>
rbdock ($Id: //depot/dev/client3/rdock/2013.1/src/exe/rbdock.cxx#4 $)

>  <Rbt.Library>
libRbt.so (2013.1, Build901 2013/11/27)

>  <Rbt.Parameter_File>
/export/apps/rDock/src/rDock_2013.1_src/data/scripts/dock_solv.prm

>  <Rbt.Receptor>
prm/blind_docking_80.prm

>  <SCORE>
61.4432

>  <SCORE.INTER>
54.2227

>  <SCORE.INTER.CONST>
1

>  <SCORE.INTER.POLAR>
0

>  <SCORE.INTER.ROT>
2

>  <SCORE.INTER.SOLV>
40.4432

>  <SCORE.INTER.VDW>
17.7341

>  <SCORE.INTER.norm>
1.23233

>  <SCORE.INTRA>
-0.834913

>  <SCORE.INTRA.DIHEDRAL>
0.0875422

>  <SCORE.INTRA.DIHEDRAL.0>
2.32994

>  <SCORE.INTRA.POLAR>
0

>  <SCORE.INTRA.POLAR.0>
0

>  <SCORE.INTRA.REPUL>
0

>  <SCORE.INTRA.REPUL.0>
0

>  <SCORE.INTRA.SOLV>
0.659516

>  <SCORE.INTRA.SOLV.lig_0>
-117.703

>  <SCORE.INTRA.VDW>
-1.20844

>  <SCORE.INTRA.VDW.0>
-1.59997

>  <SCORE.INTRA.norm>
-0.0189753

>  <SCORE.RESTR>
8.05537

>  <SCORE.RESTR.CAVITY>
8.05537

>  <SCORE.RESTR.norm>
0.183077

>  <SCORE.SYSTEM>
0

>  <SCORE.SYSTEM.CONST>
0

>  <SCORE.SYSTEM.DIHEDRAL>
0

>  <SCORE.SYSTEM.SOLV>
0

>  <SCORE.SYSTEM.norm>
0

>  <SCORE.heavy>
44

>  <SCORE.norm>
1.39644

>  <RMSD>
12.605

$$$$
ligand
 OpenBabel11021811513D
libRbt.so/2013.1/901 2013/11/27
 44 50  0  0  0  0  0  0  0  0999 V2000
    4.2921   34.2021  -15.3995 P   0  0  2  0  0  0  0  0  0  0  0  0
    2.1398   35.1538  -10.5346 P   0  0  1  0  0  0  0  0  0  0  0  0
    5.1744   33.0149  -15.7770 O   0  5  0  0  0  0  0  0  0  0  0  0
    2.3343   36.6332  -10.3074 O   0  5  0  0  0  0  0  0  0  0  0  0
    4.6589   35.3160  -16.3505 O   0  0  0  0  0  0  0  0  0  0  0  0
    1.1474   34.6492   -9.4624 O   0  0  0  0  0  0  0  0  0  0  0  0
    5.0519   33.3759  -13.1232 C   0  0  0  0  0  0  0  0  0  0  0  0
    1.5834   33.6473  -12.5568 C   0  0  0  0  0  0  0  0  0  0  0  0
    4.6374   34.5041  -13.9054 O   0  0  0  0  0  0  0  0  0  0  0  0
    1.7087   35.0291  -12.1168 O   0  0  0  0  0  0  0  0  0  0  0  0
    5.4014   33.8189  -11.7065 C   0  0  1  0  0  0  0  0  0  0  0  0
    1.0359   33.7034  -14.0328 C   0  0  1  0  0  0  0  0  0  0  0  0
    6.6306   34.2328  -11.7040 O   0  0  0  0  0  0  0  0  0  0  0  0
    0.0151   34.4580  -13.9812 O   0  0  0  0  0  0  0  0  0  0  0  0
    4.5552   34.9713  -11.2164 C   0  0  1  0  0  0  0  0  0  0  0  0
    1.9929   34.4945  -14.9466 C   0  0  1  0  0  0  0  0  0  0  0  0
    3.5925   34.4357  -10.4197 O   0  0  0  0  0  0  0  0  0  0  0  0
    2.7458   33.6753  -15.6908 O   0  0  0  0  0  0  0  0  0  0  0  0
    5.5556   35.8259  -10.3625 C   0  0  1  0  0  0  0  0  0  0  0  0
    1.1161   35.4077  -15.8336 C   0  0  1  0  0  0  0  0  0  0  0  0
    5.3428   35.5649   -8.9134 O   0  0  0  0  0  0  0  0  0  0  0  0
    0.9854   34.8325  -17.2110 O   0  0  0  0  0  0  0  0  0  0  0  0
    6.7473   35.4767  -10.7280 C   0  0  2  0  0  0  0  0  0  0  0  0
   -0.0377   35.4197  -15.2594 C   0  0  2  0  0  0  0  0  0  0  0  0
    9.1684   37.9101  -14.8558 N   0  0  0  0  0  0  0  0  0  0  0  0
    8.6379   36.6549  -14.8733 C   0  0  0  0  0  0  0  0  0  0  0  0
    8.0367   36.1224  -13.7613 N   0  0  0  0  0  0  0  0  0  0  0  0
    7.9751   36.8701  -12.6179 C   0  0  0  0  0  0  0  0  0  0  0  0
    8.4987   38.1034  -12.5832 C   0  0  0  0  0  0  0  0  0  0  0  0
    9.0995   38.6407  -13.7204 C   0  0  0  0  0  0  0  0  0  0  0  0
    9.6847   39.9187  -13.8155 N   0  0  0  0  0  0  0  0  0  0  0  0
    8.2938   38.6052  -11.3469 N   0  0  0  0  0  0  0  0  0  0  0  0
    7.6408   37.6591  -10.6137 C   0  0  0  0  0  0  0  0  0  0  0  0
    7.4279   36.5958  -11.4000 N   0  0  0  0  0  0  0  0  0  0  0  0
    1.1473   39.7628  -12.6414 N   0  0  0  0  0  0  0  0  0  0  0  0
    1.9269   38.6589  -12.7830 C   0  0  0  0  0  0  0  0  0  0  0  0
    1.4629   37.5926  -13.5006 N   0  0  0  0  0  0  0  0  0  0  0  0
    0.2305   37.6373  -14.0748 C   0  0  0  0  0  0  0  0  0  0  0  0
   -0.5467   38.7311  -13.9424 C   0  0  0  0  0  0  0  0  0  0  0  0
   -0.0679   39.8111  -13.2065 C   0  0  0  0  0  0  0  0  0  0  0  0
   -0.7276   41.0597  -12.9221 N   0  0  0  0  0  0  0  0  0  0  0  0
   -1.7016   38.4904  -14.6083 N   0  0  0  0  0  0  0  0  0  0  0  0
   -1.6272   37.2436  -15.1559 C   0  0  0  0  0  0  0  0  0  0  0  0
   -0.4277   36.7256  -14.8228 N   0  0  0  0  0  0  0  0  0  0  0  0
  1  3  1  6  0  0  0
  1  5  2  0  0  0  0
  1  9  1  0  0  0  0
  1 18  1  0  0  0  0
  2  4  1  1  0  0  0
  2  6  2  0  0  0  0
  2 10  1  0  0  0  0
  2 17  1  0  0  0  0
  7  9  1  0  0  0  0
  8 10  1  0  0  0  0
 11  7  1  6  0  0  0
 11 13  1  0  0  0  0
 11 15  1  0  0  0  0
 12  8  1  1  0  0  0
 12 14  1  0  0  0  0
 12 16  1  0  0  0  0
 13 23  1  0  0  0  0
 14 24  1  0  0  0  0
 15 17  1  1  0  0  0
 15 19  1  0  0  0  0
 16 18  1  6  0  0  0
 16 20  1  0  0  0  0
 19 21  1  1  0  0  0
 19 23  1  0  0  0  0
 20 22  1  6  0  0  0
 20 24  1  0  0  0  0
 23 34  1  6  0  0  0
 24 44  1  1  0  0  0
 25 26  2  0  0  0  0
 25 30  1  0  0  0  0
 26 27  1  0  0  0  0
 27 28  2  0  0  0  0
 28 29  1  0  0  0  0
 28 34  1  0  0  0  0
 29 30  2  0  0  0  0
 29 32  1  0  0  0  0
 30 31  1  0  0  0  0
 32 33  2  0  0  0  0
 33 34  1  0  0  0  0
 35 36  2  0  0  0  0
 35 40  1  0  0  0  0
 36 37  1  0  0  0  0
 37 38  2  0  0  0  0
 38 39  1  0  0  0  0
 38 44  1  0  0  0  0
 39 40  2  0  0  0  0
 39 42  1  0  0  0  0
 40 41  1  0  0  0  0
 42 43  2  0  0  0  0
 43 44  1  0  0  0  0
M  CHG  2   3  -1   4  -1
M  END
>  <CHROM.1>
0.60480454,69.04679733,3.64239989,36.06445697,-13.13364738,-0.14089826,0.13255823
-2.42075050

>  <Name>
ligand

>  <RI>
0

>  <Rbt.Current_Directory>
/home/itssahil/PROJECTS/Mol_Feturizer/New_Systems/rnas/4QLM

>  <Rbt.Executable>
rbdock ($Id: //depot/dev/client3/rdock/2013.1/src/exe/rbdock.cxx#4 $)

>  <Rbt.Library>
libRbt.so (2013.1, Build901 2013/11/27)

>  <Rbt.Parameter_File>
/export/apps/rDock/src/rDock_2013.1_src/data/scripts/dock_solv.prm

>  <Rbt.Receptor>
prm/blind_docking_80.prm

>  <SCORE>
61.5003

>  <SCORE.INTER>
54.2962

>  <SCORE.INTER.CONST>
1

>  <SCORE.INTER.POLAR>
0

>  <SCORE.INTER.ROT>
2

>  <SCORE.INTER.SOLV>
40.5036

>  <SCORE.INTER.VDW>
17.7629

>  <SCORE.INTER.norm>
1.23401

>  <SCORE.INTRA>
-0.828155

>  <SCORE.INTRA.DIHEDRAL>
0.0873513

>  <SCORE.INTRA.DIHEDRAL.0>
2.32994

>  <SCORE.INTRA.POLAR>
0

>  <SCORE.INTRA.POLAR.0>
0

>  <SCORE.INTRA.REPUL>
0

>  <SCORE.INTRA.REPUL.0>
0

>  <SCORE.INTRA.SOLV>
0.627121

>  <SCORE.INTRA.SOLV.lig_0>
-117.703

>  <SCORE.INTRA.VDW>
-1.18539

>  <SCORE.INTRA.VDW.0>
-1.59997

>  <SCORE.INTRA.norm>
-0.0188217

>  <SCORE.RESTR>
8.03223

>  <SCORE.RESTR.CAVITY>
8.03223

>  <SCORE.RESTR.norm>
0.182551

>  <SCORE.SYSTEM>
0

>  <SCORE.SYSTEM.CONST>
0

>  <SCORE.SYSTEM.DIHEDRAL>
0

>  <SCORE.SYSTEM.SOLV>
0

>  <SCORE.SYSTEM.norm>
0

>  <SCORE.heavy>
44

>  <SCORE.norm>
1.39773

>  <RMSD>
12.609

$$$$
ligand
 OpenBabel11021811513D
libRbt.so/2013.1/901 2013/11/27
 44 50  0  0  0  0  0  0  0  0999 V2000
    2.8702   36.4427  -15.5831 P   0  0  2  0  0  0  0  0  0  0  0  0
    4.3412   32.2383  -12.5229 P   0  0  1  0  0  0  0  0  0  0  0  0
    2.8340   36.4766  -17.1089 O   0  5  0  0  0  0  0  0  0  0  0  0
    5.2021   32.8331  -11.4351 O   0  5  0  0  0  0  0  0  0  0  0  0
    3.0646   37.8718  -15.1366 O   0  0  0  0  0  0  0  0  0  0  0  0
    3.9987   30.7915  -12.1005 O   0  0  0  0  0  0  0  0  0  0  0  0
    4.3444   34.4653  -16.1811 C   0  0  0  0  0  0  0  0  0  0  0  0
    2.2194   32.9570  -13.8074 C   0  0  0  0  0  0  0  0  0  0  0  0
    4.0640   35.4989  -15.2275 O   0  0  0  0  0  0  0  0  0  0  0  0
    3.1071   33.3094  -12.7090 O   0  0  0  0  0  0  0  0  0  0  0  0
    5.5556   33.6532  -15.7348 C   0  0  1  0  0  0  0  0  0  0  0  0
    1.0307   33.9897  -13.7612 C   0  0  1  0  0  0  0  0  0  0  0  0
    6.6248   34.2691  -16.1346 O   0  0  0  0  0  0  0  0  0  0  0  0
    0.6130   33.9636  -12.5616 O   0  0  0  0  0  0  0  0  0  0  0  0
    5.6660   33.5238  -14.2330 C   0  0  1  0  0  0  0  0  0  0  0  0
    1.5491   35.4346  -13.9052 C   0  0  1  0  0  0  0  0  0  0  0  0
    5.1818   32.2947  -13.9120 O   0  0  0  0  0  0  0  0  0  0  0  0
    1.3646   35.8977  -15.1475 O   0  0  0  0  0  0  0  0  0  0  0  0
    7.2111   33.5862  -13.9705 C   0  0  1  0  0  0  0  0  0  0  0  0
    0.7858   36.2918  -12.8699 C   0  0  1  0  0  0  0  0  0  0  0  0
    7.7451   32.2177  -13.7352 O   0  0  0  0  0  0  0  0  0  0  0  0
   -0.2963   37.0829  -13.5394 O   0  0  0  0  0  0  0  0  0  0  0  0
    7.7448   34.1192  -15.0225 C   0  0  2  0  0  0  0  0  0  0  0  0
    0.2591   35.4409  -12.0577 C   0  0  2  0  0  0  0  0  0  0  0  0
    7.7709   38.9845  -12.7533 N   0  0  0  0  0  0  0  0  0  0  0  0
    6.7731   38.0626  -12.6453 C   0  0  0  0  0  0  0  0  0  0  0  0
    6.8635   36.8424  -13.2653 N   0  0  0  0  0  0  0  0  0  0  0  0
    7.9770   36.5548  -14.0052 C   0  0  0  0  0  0  0  0  0  0  0  0
    8.9634   37.4541  -14.1266 C   0  0  0  0  0  0  0  0  0  0  0  0
    8.8679   38.6880  -13.4856 C   0  0  0  0  0  0  0  0  0  0  0  0
    9.8303   39.7159  -13.5326 N   0  0  0  0  0  0  0  0  0  0  0  0
    9.9274   36.9091  -14.8986 N   0  0  0  0  0  0  0  0  0  0  0  0
    9.5183   35.6595  -15.2597 C   0  0  0  0  0  0  0  0  0  0  0  0
    8.3246   35.4324  -14.6961 N   0  0  0  0  0  0  0  0  0  0  0  0
    4.3068   35.7458   -8.7953 N   0  0  0  0  0  0  0  0  0  0  0  0
    4.3578   35.5808  -10.1431 C   0  0  0  0  0  0  0  0  0  0  0  0
    3.1959   35.5125  -10.8590 N   0  0  0  0  0  0  0  0  0  0  0  0
    1.9952   35.6148  -10.2279 C   0  0  0  0  0  0  0  0  0  0  0  0
    1.9370   35.7833   -8.8913 C   0  0  0  0  0  0  0  0  0  0  0  0
    3.1252   35.8478   -8.1694 C   0  0  0  0  0  0  0  0  0  0  0  0
    3.2982   36.0030   -6.7477 N   0  0  0  0  0  0  0  0  0  0  0  0
    0.6282   35.8489   -8.5480 N   0  0  0  0  0  0  0  0  0  0  0  0
   -0.1180   35.7252   -9.6827 C   0  0  0  0  0  0  0  0  0  0  0  0
    0.7364   35.5840  -10.7162 N   0  0  0  0  0  0  0  0  0  0  0  0
  1  3  1  6  0  0  0
  1  5  2  0  0  0  0
  1  9  1  0  0  0  0
  1 18  1  0  0  0  0
  2  4  1  1  0  0  0
  2  6  2  0  0  0  0
  2 10  1  0  0  0  0
  2 17  1  0  0  0  0
  7  9  1  0  0  0  0
  8 10  1  0  0  0  0
 11  7  1  1  0  0  0
 11 13  1  0  0  0  0
 11 15  1  0  0  0  0
 12  8  1  1  0  0  0
 12 14  1  0  0  0  0
 12 16  1  0  0  0  0
 13 23  1  0  0  0  0
 14 24  1  0  0  0  0
 15 17  1  6  0  0  0
 15 19  1  0  0  0  0
 16 18  1  6  0  0  0
 16 20  1  0  0  0  0
 19 21  1  6  0  0  0
 19 23  1  0  0  0  0
 20 22  1  6  0  0  0
 20 24  1  0  0  0  0
 23 34  1  1  0  0  0
 24 44  1  1  0  0  0
 25 26  2  0  0  0  0
 25 30  1  0  0  0  0
 26 27  1  0  0  0  0
 27 28  2  0  0  0  0
 28 29  1  0  0  0  0
 28 34  1  0  0  0  0
 29 30  2  0  0  0  0
 29 32  1  0  0  0  0
 30 31  1  0  0  0  0
 32 33  2  0  0  0  0
 33 34  1  0  0  0  0
 35 36  2  0  0  0  0
 35 40  1  0  0  0  0
 36 37  1  0  0  0  0
 37 38  2  0  0  0  0
 38 39  1  0  0  0  0
 38 44  1  0  0  0  0
 39 40  2  0  0  0  0
 39 42  1  0  0  0  0
 40 41  1  0  0  0  0
 42 43  2  0  0  0  0
 43 44  1  0  0  0  0
M  CHG  2   3  -1   4  -1
M  END
>  <CHROM.1>
74.81718893,67.47289202,4.34693444,35.25307342,-13.07775641,0.40984447,-0.30036404
-1.89708545

>  <Name>
ligand

>  <RI>
0

>  <Rbt.Current_Directory>
/home/itssahil/PROJECTS/Mol_Feturizer/New_Systems/rnas/4QLM

>  <Rbt.Executable>
rbdock ($Id: //depot/dev/client3/rdock/2013.1/src/exe/rbdock.cxx#4 $)

>  <Rbt.Library>
libRbt.so (2013.1, Build901 2013/11/27)

>  <Rbt.Parameter_File>
/export/apps/rDock/src/rDock_2013.1_src/data/scripts/dock_solv.prm

>  <Rbt.Receptor>
prm/blind_docking_100.prm

>  <SCORE>
320.53

>  <SCORE.INTER>
311.358

>  <SCORE.INTER.CONST>
1

>  <SCORE.INTER.POLAR>
0

>  <SCORE.INTER.ROT>
2

>  <SCORE.INTER.SOLV>
62.383

>  <SCORE.INTER.VDW>
181.845

>  <SCORE.INTER.norm>
7.07633

>  <SCORE.INTRA>
-1.82037

>  <SCORE.INTRA.DIHEDRAL>
-0.00540955

>  <SCORE.INTRA.DIHEDRAL.0>
2.32994

>  <SCORE.INTRA.POLAR>
0

>  <SCORE.INTRA.POLAR.0>
0

>  <SCORE.INTRA.REPUL>
0

>  <SCORE.INTRA.REPUL.0>
0

>  <SCORE.INTRA.SOLV>
0.64684

>  <SCORE.INTRA.SOLV.lig_0>
-117.703

>  <SCORE.INTRA.VDW>
-2.14108

>  <SCORE.INTRA.VDW.0>
-1.59997

>  <SCORE.INTRA.norm>
-0.041372

>  <SCORE.RESTR>
10.9923

>  <SCORE.RESTR.CAVITY>
10.9923

>  <SCORE.RESTR.norm>
0.249824

>  <SCORE.SYSTEM>
0

>  <SCORE.SYSTEM.CONST>
0

>  <SCORE.SYSTEM.DIHEDRAL>
0

>  <SCORE.SYSTEM.SOLV>
0

>  <SCORE.SYSTEM.norm>
0

>  <SCORE.heavy>
44

>  <SCORE.norm>
7.28478

>  <RMSD>
12.994

$$$$
ligand
 OpenBabel11021811513D
libRbt.so/2013.1/901 2013/11/27
 44 50  0  0  0  0  0  0  0  0999 V2000
    4.3253   34.1885  -15.3905 P   0  0  2  0  0  0  0  0  0  0  0  0
    2.2560   35.2149  -10.5048 P   0  0  1  0  0  0  0  0  0  0  0  0
    5.1573   32.9685  -15.7776 O   0  5  0  0  0  0  0  0  0  0  0  0
    2.5097   36.6852  -10.2775 O   0  5  0  0  0  0  0  0  0  0  0  0
    4.7262   35.2888  -16.3434 O   0  0  0  0  0  0  0  0  0  0  0  0
    1.2546   34.7473   -9.4241 O   0  0  0  0  0  0  0  0  0  0  0  0
    5.0732   33.3298  -13.1224 C   0  0  0  0  0  0  0  0  0  0  0  0
    1.6232   33.7343  -12.5236 C   0  0  0  0  0  0  0  0  0  0  0  0
    4.6956   34.4744  -13.8993 O   0  0  0  0  0  0  0  0  0  0  0  0
    1.8059   35.1095  -12.0831 O   0  0  0  0  0  0  0  0  0  0  0  0
    5.4525   33.7565  -11.7083 C   0  0  1  0  0  0  0  0  0  0  0  0
    1.0647   33.8140  -13.9945 C   0  0  1  0  0  0  0  0  0  0  0  0
    6.6969   34.1225  -11.7166 O   0  0  0  0  0  0  0  0  0  0  0  0
    0.0745   34.6075  -13.9325 O   0  0  0  0  0  0  0  0  0  0  0  0
    4.6561   34.9401  -11.2090 C   0  0  1  0  0  0  0  0  0  0  0  0
    2.0433   34.5690  -14.9161 C   0  0  1  0  0  0  0  0  0  0  0  0
    3.6808   34.4408  -10.4042 O   0  0  0  0  0  0  0  0  0  0  0  0
    2.7571   33.7224  -15.6682 O   0  0  0  0  0  0  0  0  0  0  0  0
    5.6967   35.7539  -10.3633 C   0  0  1  0  0  0  0  0  0  0  0  0
    1.1944   35.5169  -15.7937 C   0  0  1  0  0  0  0  0  0  0  0  0
    5.4872   35.4989   -8.9126 O   0  0  0  0  0  0  0  0  0  0  0  0
    1.0290   34.9494  -17.1706 O   0  0  0  0  0  0  0  0  0  0  0  0
    6.8706   35.3594  -10.7401 C   0  0  2  0  0  0  0  0  0  0  0  0
    0.0473   35.5727  -15.2090 C   0  0  2  0  0  0  0  0  0  0  0  0
   10.2515   39.5220  -10.9918 N   0  0  0  0  0  0  0  0  0  0  0  0
    9.9896   38.7770   -9.8812 C   0  0  0  0  0  0  0  0  0  0  0  0
    9.1063   37.7283   -9.9215 N   0  0  0  0  0  0  0  0  0  0  0  0
    8.4796   37.4335  -11.1007 C   0  0  0  0  0  0  0  0  0  0  0  0
    8.7214   38.1618  -12.1996 C   0  0  0  0  0  0  0  0  0  0  0  0
    9.6276   39.2198  -12.1523 C   0  0  0  0  0  0  0  0  0  0  0  0
    9.9692   40.0589  -13.2313 N   0  0  0  0  0  0  0  0  0  0  0  0
    7.9797   37.6516  -13.2055 N   0  0  0  0  0  0  0  0  0  0  0  0
    7.2684   36.5994  -12.7094 C   0  0  0  0  0  0  0  0  0  0  0  0
    7.5879   36.4523  -11.4170 N   0  0  0  0  0  0  0  0  0  0  0  0
    1.4164   39.8554  -12.5815 N   0  0  0  0  0  0  0  0  0  0  0  0
    2.1499   38.7212  -12.7289 C   0  0  0  0  0  0  0  0  0  0  0  0
    1.6407   37.6769  -13.4483 N   0  0  0  0  0  0  0  0  0  0  0  0
    0.4094   37.7736  -14.0185 C   0  0  0  0  0  0  0  0  0  0  0  0
   -0.3223   38.8978  -13.8802 C   0  0  0  0  0  0  0  0  0  0  0  0
    0.2024   39.9550  -13.1425 C   0  0  0  0  0  0  0  0  0  0  0  0
   -0.4049   41.2286  -12.8522 N   0  0  0  0  0  0  0  0  0  0  0  0
   -1.4880   38.7064  -14.5432 N   0  0  0  0  0  0  0  0  0  0  0  0
   -1.4662   37.4594  -15.0948 C   0  0  0  0  0  0  0  0  0  0  0  0
   -0.2878   36.8920  -14.7672 N   0  0  0  0  0  0  0  0  0  0  0  0
  1  3  1  6  0  0  0
  1  5  2  0  0  0  0
  1  9  1  0  0  0  0
  1 18  1  0  0  0  0
  2  4  1  1  0  0  0
  2  6  2  0  0  0  0
  2 10  1  0  0  0  0
  2 17  1  0  0  0  0
  7  9  1  0  0  0  0
  8 10  1  0  0  0  0
 11  7  1  6  0  0  0
 11 13  1  0  0  0  0
 11 15  1  0  0  0  0
 12  8  1  1  0  0  0
 12 14  1  0  0  0  0
 12 16  1  0  0  0  0
 13 23  1  0  0  0  0
 14 24  1  0  0  0  0
 15 17  1  1  0  0  0
 15 19  1  0  0  0  0
 16 18  1  6  0  0  0
 16 20  1  0  0  0  0
 19 21  1  1  0  0  0
 19 23  1  0  0  0  0
 20 22  1  6  0  0  0
 20 24  1  0  0  0  0
 23 34  1  6  0  0  0
 24 44  1  1  0  0  0
 25 26  2  0  0  0  0
 25 30  1  0  0  0  0
 26 27  1  0  0  0  0
 27 28  2  0  0  0  0
 28 29  1  0  0  0  0
 28 34  1  0  0  0  0
 29 30  2  0  0  0  0
 29 32  1  0  0  0  0
 30 31  1  0  0  0  0
 32 33  2  0  0  0  0
 33 34  1  0  0  0  0
 35 36  2  0  0  0  0
 35 40  1  0  0  0  0
 36 37  1  0  0  0  0
 37 38  2  0  0  0  0
 38 39  1  0  0  0  0
 38 44  1  0  0  0  0
 39 40  2  0  0  0  0
 39 42  1  0  0  0  0
 40 41  1  0  0  0  0
 42 43  2  0  0  0  0
 43 44  1  0  0  0  0
M  CHG  2   3  -1   4  -1
M  END
>  <CHROM.1>
-145.75899942,68.66898243,3.82147821,36.19790735,-12.85295523,-2.90546359
-0.29145824,0.37233283

>  <Name>
ligand

>  <RI>
0

>  <Rbt.Current_Directory>
/home/itssahil/PROJECTS/Mol_Feturizer/New_Systems/rnas/4QLM

>  <Rbt.Executable>
rbdock ($Id: //depot/dev/client3/rdock/2013.1/src/exe/rbdock.cxx#4 $)

>  <Rbt.Library>
libRbt.so (2013.1, Build901 2013/11/27)

>  <Rbt.Parameter_File>
/export/apps/rDock/src/rDock_2013.1_src/data/scripts/dock_solv.prm

>  <Rbt.Receptor>
prm/blind_docking_80.prm

>  <SCORE>
71.4355

>  <SCORE.INTER>
62.6908

>  <SCORE.INTER.CONST>
1

>  <SCORE.INTER.POLAR>
0

>  <SCORE.INTER.ROT>
2

>  <SCORE.INTER.SOLV>
41.6145

>  <SCORE.INTER.VDW>
22.989

>  <SCORE.INTER.norm>
1.42479

>  <SCORE.INTRA>
-0.927557

>  <SCORE.INTRA.DIHEDRAL>
-0.0249454

>  <SCORE.INTRA.DIHEDRAL.0>
2.32994

>  <SCORE.INTRA.POLAR>
0

>  <SCORE.INTRA.POLAR.0>
0

>  <SCORE.INTRA.REPUL>
0

>  <SCORE.INTRA.REPUL.0>
0

>  <SCORE.INTRA.SOLV>
0.589505

>  <SCORE.INTRA.SOLV.lig_0>
-117.703

>  <SCORE.INTRA.VDW>
-1.20984

>  <SCORE.INTRA.VDW.0>
-1.59997

>  <SCORE.INTRA.norm>
-0.0210808

>  <SCORE.RESTR>
9.6723

>  <SCORE.RESTR.CAVITY>
9.6723

>  <SCORE.RESTR.norm>
0.219825

>  <SCORE.SYSTEM>
0

>  <SCORE.SYSTEM.CONST>
0

>  <SCORE.SYSTEM.DIHEDRAL>
0

>  <SCORE.SYSTEM.SOLV>
0

>  <SCORE.SYSTEM.norm>
0

>  <SCORE.heavy>
44

>  <SCORE.norm>
1.62353

>  <RMSD>
12.998

$$$$
ligand
 OpenBabel11021811513D
libRbt.so/2013.1/901 2013/11/27
 44 50  0  0  0  0  0  0  0  0999 V2000
    4.3467   34.1818  -15.3957 P   0  0  2  0  0  0  0  0  0  0  0  0
    2.2687   35.2081  -10.5137 P   0  0  1  0  0  0  0  0  0  0  0  0
    5.1826   32.9636  -15.7804 O   0  5  0  0  0  0  0  0  0  0  0  0
    2.5182   36.6794  -10.2878 O   0  5  0  0  0  0  0  0  0  0  0  0
    4.7458   35.2821  -16.3494 O   0  0  0  0  0  0  0  0  0  0  0  0
    1.2673   34.7390   -9.4337 O   0  0  0  0  0  0  0  0  0  0  0  0
    5.0943   33.3277  -13.1257 C   0  0  0  0  0  0  0  0  0  0  0  0
    1.6424   33.7235  -12.5317 C   0  0  0  0  0  0  0  0  0  0  0  0
    4.7145   34.4704  -13.9044 O   0  0  0  0  0  0  0  0  0  0  0  0
    1.8208   35.0997  -12.0925 O   0  0  0  0  0  0  0  0  0  0  0  0
    5.4707   33.7571  -11.7117 C   0  0  1  0  0  0  0  0  0  0  0  0
    1.0855   33.8000  -14.0032 C   0  0  1  0  0  0  0  0  0  0  0  0
    6.7140   34.1265  -11.7189 O   0  0  0  0  0  0  0  0  0  0  0  0
    0.0931   34.5909  -13.9434 O   0  0  0  0  0  0  0  0  0  0  0  0
    4.6705   34.9390  -11.2147 C   0  0  1  0  0  0  0  0  0  0  0  0
    2.0631   34.5566  -14.9246 C   0  0  1  0  0  0  0  0  0  0  0  0
    3.6955   34.4380  -10.4105 O   0  0  0  0  0  0  0  0  0  0  0  0
    2.7801   33.7111  -15.6748 O   0  0  0  0  0  0  0  0  0  0  0  0
    5.7077   35.7566  -10.3687 C   0  0  1  0  0  0  0  0  0  0  0  0
    1.2128   35.5011  -15.8043 C   0  0  1  0  0  0  0  0  0  0  0  0
    5.4972   35.5027   -8.9179 O   0  0  0  0  0  0  0  0  0  0  0  0
    1.0505   34.9316  -17.1807 O   0  0  0  0  0  0  0  0  0  0  0  0
    6.8832   35.3649  -10.7437 C   0  0  2  0  0  0  0  0  0  0  0  0
    0.0647   35.5545  -15.2210 C   0  0  2  0  0  0  0  0  0  0  0  0
   10.2615   39.5295  -10.9984 N   0  0  0  0  0  0  0  0  0  0  0  0
   10.0026   38.7830   -9.8880 C   0  0  0  0  0  0  0  0  0  0  0  0
    9.1197   37.7339   -9.9275 N   0  0  0  0  0  0  0  0  0  0  0  0
    8.4903   37.4403  -11.1055 C   0  0  0  0  0  0  0  0  0  0  0  0
    8.7291   38.1699  -12.2041 C   0  0  0  0  0  0  0  0  0  0  0  0
    9.6349   39.2283  -12.1578 C   0  0  0  0  0  0  0  0  0  0  0  0
    9.9735   40.0689  -13.2365 N   0  0  0  0  0  0  0  0  0  0  0  0
    7.9853   37.6606  -13.2089 N   0  0  0  0  0  0  0  0  0  0  0  0
    7.2757   36.6075  -12.7124 C   0  0  0  0  0  0  0  0  0  0  0  0
    7.5984   36.4590  -11.4209 N   0  0  0  0  0  0  0  0  0  0  0  0
    1.4150   39.8401  -12.5885 N   0  0  0  0  0  0  0  0  0  0  0  0
    2.1510   38.7070  -12.7323 C   0  0  0  0  0  0  0  0  0  0  0  0
    1.6467   37.6618  -13.4537 N   0  0  0  0  0  0  0  0  0  0  0  0
    0.4179   37.7563  -14.0295 C   0  0  0  0  0  0  0  0  0  0  0  0
   -0.3162   38.8793  -13.8949 C   0  0  0  0  0  0  0  0  0  0  0  0
    0.2034   39.9376  -13.1551 C   0  0  0  0  0  0  0  0  0  0  0  0
   -0.4073   41.2103  -12.8680 N   0  0  0  0  0  0  0  0  0  0  0  0
   -1.4786   38.6860  -14.5631 N   0  0  0  0  0  0  0  0  0  0  0  0
   -1.4523   37.4388  -15.1142 C   0  0  0  0  0  0  0  0  0  0  0  0
   -0.2744   36.8734  -14.7811 N   0  0  0  0  0  0  0  0  0  0  0  0
  1  3  1  6  0  0  0
  1  5  2  0  0  0  0
  1  9  1  0  0  0  0
  1 18  1  0  0  0  0
  2  4  1  1  0  0  0
  2  6  2  0  0  0  0
  2 10  1  0  0  0  0
  2 17  1  0  0  0  0
  7  9  1  0  0  0  0
  8 10  1  0  0  0  0
 11  7  1  6  0  0  0
 11 13  1  0  0  0  0
 11 15  1  0  0  0  0
 12  8  1  1  0  0  0
 12 14  1  0  0  0  0
 12 16  1  0  0  0  0
 13 23  1  0  0  0  0
 14 24  1  0  0  0  0
 15 17  1  1  0  0  0
 15 19  1  0  0  0  0
 16 18  1  6  0  0  0
 16 20  1  0  0  0  0
 19 21  1  1  0  0  0
 19 23  1  0  0  0  0
 20 22  1  6  0  0  0
 20 24  1  0  0  0  0
 23 34  1  6  0  0  0
 24 44  1  1  0  0  0
 25 26  2  0  0  0  0
 25 30  1  0  0  0  0
 26 27  1  0  0  0  0
 27 28  2  0  0  0  0
 28 29  1  0  0  0  0
 28 34  1  0  0  0  0
 29 30  2  0  0  0  0
 29 32  1  0  0  0  0
 30 31  1  0  0  0  0
 32 33  2  0  0  0  0
 33 34  1  0  0  0  0
 35 36  2  0  0  0  0
 35 40  1  0  0  0  0
 36 37  1  0  0  0  0
 37 38  2  0  0  0  0
 38 39  1  0  0  0  0
 38 44  1  0  0  0  0
 39 40  2  0  0  0  0
 39 42  1  0  0  0  0
 40 41  1  0  0  0  0
 42 43  2  0  0  0  0
 43 44  1  0  0  0  0
M  CHG  2   3  -1   4  -1
M  END
>  <CHROM.1>
-145.48135759,68.46048808,3.83463771,36.19193508,-12.86063124,-2.90235316
-0.29089771,0.37390049

>  <Name>
ligand

>  <RI>
0

>  <Rbt.Current_Directory>
/home/itssahil/PROJECTS/Mol_Feturizer/New_Systems/rnas/4QLM

>  <Rbt.Executable>
rbdock ($Id: //depot/dev/client3/rdock/2013.1/src/exe/rbdock.cxx#4 $)

>  <Rbt.Library>
libRbt.so (2013.1, Build901 2013/11/27)

>  <Rbt.Parameter_File>
/export/apps/rDock/src/rDock_2013.1_src/data/scripts/dock_solv.prm

>  <Rbt.Receptor>
prm/blind_docking_80.prm

>  <SCORE>
71.7347

>  <SCORE.INTER>
63.0768

>  <SCORE.INTER.CONST>
1

>  <SCORE.INTER.POLAR>
0

>  <SCORE.INTER.ROT>
2

>  <SCORE.INTER.SOLV>
41.7107

>  <SCORE.INTER.VDW>
23.2143

>  <SCORE.INTER.norm>
1.43356

>  <SCORE.INTRA>
-0.926824

>  <SCORE.INTRA.DIHEDRAL>
-0.024579

>  <SCORE.INTRA.DIHEDRAL.0>
2.32994

>  <SCORE.INTRA.POLAR>
0

>  <SCORE.INTRA.POLAR.0>
0

>  <SCORE.INTRA.REPUL>
0

>  <SCORE.INTRA.REPUL.0>
0

>  <SCORE.INTRA.SOLV>
0.600441

>  <SCORE.INTRA.SOLV.lig_0>
-117.703

>  <SCORE.INTRA.VDW>
-1.21476

>  <SCORE.INTRA.VDW.0>
-1.59997

>  <SCORE.INTRA.norm>
-0.0210642

>  <SCORE.RESTR>
9.58471

>  <SCORE.RESTR.CAVITY>
9.58471

>  <SCORE.RESTR.norm>
0.217834

>  <SCORE.SYSTEM>
0

>  <SCORE.SYSTEM.CONST>
0

>  <SCORE.SYSTEM.DIHEDRAL>
0

>  <SCORE.SYSTEM.SOLV>
0

>  <SCORE.SYSTEM.norm>
0

>  <SCORE.heavy>
44

>  <SCORE.norm>
1.63033

>  <RMSD>
13.004

$$$$
ligand
 OpenBabel11021811513D
libRbt.so/2013.1/901 2013/11/27
 44 50  0  0  0  0  0  0  0  0999 V2000
    3.4626   36.3928   -9.5069 P   0  0  2  0  0  0  0  0  0  0  0  0
    5.5068   34.2503  -14.0276 P   0  0  1  0  0  0  0  0  0  0  0  0
    2.4973   35.7080   -8.5427 O   0  5  0  0  0  0  0  0  0  0  0  0
    5.4303   35.3577  -15.0503 O   0  5  0  0  0  0  0  0  0  0  0  0
    3.2272   37.8761   -9.3528 O   0  0  0  0  0  0  0  0  0  0  0  0
    6.4124   33.1432  -14.6136 O   0  0  0  0  0  0  0  0  0  0  0  0
    2.5518   34.5050  -10.9380 C   0  0  0  0  0  0  0  0  0  0  0  0
    6.0075   34.0947  -11.4991 C   0  0  0  0  0  0  0  0  0  0  0  0
    3.0892   35.8343  -10.9181 O   0  0  0  0  0  0  0  0  0  0  0  0
    5.9839   34.9962  -12.6417 O   0  0  0  0  0  0  0  0  0  0  0  0
    2.1891   34.1063  -12.3646 C   0  0  1  0  0  0  0  0  0  0  0  0
    6.6120   34.9192  -10.3006 C   0  0  1  0  0  0  0  0  0  0  0  0
    1.0002   34.5574  -12.6204 O   0  0  0  0  0  0  0  0  0  0  0  0
    7.6905   35.4183  -10.7498 O   0  0  0  0  0  0  0  0  0  0  0  0
    3.1115   34.7025  -13.4029 C   0  0  1  0  0  0  0  0  0  0  0  0
    5.7601   36.1700  -10.0061 C   0  0  1  0  0  0  0  0  0  0  0  0
    3.9950   33.7272  -13.7441 O   0  0  0  0  0  0  0  0  0  0  0  0
    4.9683   35.9820   -8.9432 O   0  0  0  0  0  0  0  0  0  0  0  0
    2.1564   35.0176  -14.6066 C   0  0  1  0  0  0  0  0  0  0  0  0
    6.7435   37.3391   -9.7707 C   0  0  1  0  0  0  0  0  0  0  0  0
    2.2925   33.9704  -15.6546 O   0  0  0  0  0  0  0  0  0  0  0  0
    6.8756   37.6268   -8.3061 O   0  0  0  0  0  0  0  0  0  0  0  0
    0.9536   35.0438  -14.1287 C   0  0  2  0  0  0  0  0  0  0  0  0
    7.8721   36.9219  -10.2324 C   0  0  2  0  0  0  0  0  0  0  0  0
    0.7833   40.2971  -13.0352 N   0  0  0  0  0  0  0  0  0  0  0  0
    1.7351   39.4249  -12.5986 C   0  0  0  0  0  0  0  0  0  0  0  0
    1.6894   38.0962  -12.9363 N   0  0  0  0  0  0  0  0  0  0  0  0
    0.6655   37.6464  -13.7234 C   0  0  0  0  0  0  0  0  0  0  0  0
   -0.2819   38.4908  -14.1544 C   0  0  0  0  0  0  0  0  0  0  0  0
   -0.2228   39.8412  -13.8145 C   0  0  0  0  0  0  0  0  0  0  0  0
   -1.1511   40.8280  -14.2011 N   0  0  0  0  0  0  0  0  0  0  0  0
   -1.1537   37.7855  -14.9060 N   0  0  0  0  0  0  0  0  0  0  0  0
   -0.7345   36.4882  -14.9273 C   0  0  0  0  0  0  0  0  0  0  0  0
    0.3958   36.4035  -14.2136 N   0  0  0  0  0  0  0  0  0  0  0  0
    7.8217   37.9587  -15.3356 N   0  0  0  0  0  0  0  0  0  0  0  0
    7.1204   36.9870  -14.6951 C   0  0  0  0  0  0  0  0  0  0  0  0
    7.2512   36.8403  -13.3428 N   0  0  0  0  0  0  0  0  0  0  0  0
    8.0740   37.6652  -12.6406 C   0  0  0  0  0  0  0  0  0  0  0  0
    8.7695   38.6346  -13.2688 C   0  0  0  0  0  0  0  0  0  0  0  0
    8.6333   38.7744  -14.6469 C   0  0  0  0  0  0  0  0  0  0  0  0
    9.2874   39.7179  -15.5170 N   0  0  0  0  0  0  0  0  0  0  0  0
    9.4952   39.2864  -12.3289 N   0  0  0  0  0  0  0  0  0  0  0  0
    9.2373   38.7152  -11.1177 C   0  0  0  0  0  0  0  0  0  0  0  0
    8.3552   37.7159  -11.3206 N   0  0  0  0  0  0  0  0  0  0  0  0
  1  3  1  1  0  0  0
  1  5  2  0  0  0  0
  1  9  1  0  0  0  0
  1 18  1  0  0  0  0
  2  4  1  6  0  0  0
  2  6  2  0  0  0  0
  2 10  1  0  0  0  0
  2 17  1  0  0  0  0
  7  9  1  0  0  0  0
  8 10  1  0  0  0  0
 11  7  1  1  0  0  0
 11 13  1  0  0  0  0
 11 15  1  0  0  0  0
 12  8  1  6  0  0  0
 12 14  1  0  0  0  0
 12 16  1  0  0  0  0
 13 23  1  0  0  0  0
 14 24  1  0  0  0  0
 15 17  1  6  0  0  0
 15 19  1  0  0  0  0
 16 18  1  1  0  0  0
 16 20  1  0  0  0  0
 19 21  1  6  0  0  0
 19 23  1  0  0  0  0
 20 22  1  1  0  0  0
 20 24  1  0  0  0  0
 23 34  1  1  0  0  0
 24 44  1  6  0  0  0
 25 26  2  0  0  0  0
 25 30  1  0  0  0  0
 26 27  1  0  0  0  0
 27 28  2  0  0  0  0
 28 29  1  0  0  0  0
 28 34  1  0  0  0  0
 29 30  2  0  0  0  0
 29 32  1  0  0  0  0
 30 31  1  0  0  0  0
 32 33  2  0  0  0  0
 33 34  1  0  0  0  0
 35 36  2  0  0  0  0
 35 40  1  0  0  0  0
 36 37  1  0  0  0  0
 37 38  2  0  0  0  0
 38 39  1  0  0  0  0
 38 44  1  0  0  0  0
 39 40  2  0  0  0  0
 39 42  1  0  0  0  0
 40 41  1  0  0  0  0
 42 43  2  0  0  0  0
 43 44  1  0  0  0  0
M  CHG  2   3  -1   4  -1
M  END
>  <CHROM.1>
58.14655703,36.39700822,4.37806466,36.55339635,-12.51004195,2.93352257,-0.05324028
-1.34654145

>  <Name>
ligand

>  <RI>
0

>  <Rbt.Current_Directory>
/home/itssahil/PROJECTS/Mol_Feturizer/New_Systems/rnas/4QLM

>  <Rbt.Executable>
rbdock ($Id: //depot/dev/client3/rdock/2013.1/src/exe/rbdock.cxx#4 $)

>  <Rbt.Library>
libRbt.so (2013.1, Build901 2013/11/27)

>  <Rbt.Parameter_File>
/export/apps/rDock/src/rDock_2013.1_src/data/scripts/dock_solv.prm

>  <Rbt.Receptor>
prm/blind_docking_80.prm

>  <SCORE>
53.4124

>  <SCORE.INTER>
40.0191

>  <SCORE.INTER.CONST>
1

>  <SCORE.INTER.POLAR>
0

>  <SCORE.INTER.ROT>
2

>  <SCORE.INTER.SOLV>
35.434

>  <SCORE.INTER.VDW>
9.93471

>  <SCORE.INTER.norm>
0.909524

>  <SCORE.INTRA>
2.85212

>  <SCORE.INTRA.DIHEDRAL>
0.0607832

>  <SCORE.INTRA.DIHEDRAL.0>
2.32994

>  <SCORE.INTRA.POLAR>
0

>  <SCORE.INTRA.POLAR.0>
0

>  <SCORE.INTRA.REPUL>
0

>  <SCORE.INTRA.REPUL.0>
0

>  <SCORE.INTRA.SOLV>
1.75781

>  <SCORE.INTRA.SOLV.lig_0>
-117.703

>  <SCORE.INTRA.VDW>
1.94282

>  <SCORE.INTRA.VDW.0>
-1.59997

>  <SCORE.INTRA.norm>
0.0648209

>  <SCORE.RESTR>
10.5412

>  <SCORE.RESTR.CAVITY>
10.5412

>  <SCORE.RESTR.norm>
0.239572

>  <SCORE.SYSTEM>
0

>  <SCORE.SYSTEM.CONST>
0

>  <SCORE.SYSTEM.DIHEDRAL>
0

>  <SCORE.SYSTEM.SOLV>
0

>  <SCORE.SYSTEM.norm>
0

>  <SCORE.heavy>
44

>  <SCORE.norm>
1.21392

>  <RMSD>
13.210

$$$$
ligand
 OpenBabel11021811513D
libRbt.so/2013.1/901 2013/11/27
 44 50  0  0  0  0  0  0  0  0999 V2000
    4.0183   35.8602   -9.5769 P   0  0  2  0  0  0  0  0  0  0  0  0
    5.9513   33.9128  -14.2327 P   0  0  1  0  0  0  0  0  0  0  0  0
    3.1221   35.1138   -8.5918 O   0  5  0  0  0  0  0  0  0  0  0  0
    5.7885   35.0409  -15.2220 O   0  5  0  0  0  0  0  0  0  0  0  0
    3.7319   37.3287   -9.3744 O   0  0  0  0  0  0  0  0  0  0  0  0
    6.8738   32.8576  -14.8843 O   0  0  0  0  0  0  0  0  0  0  0  0
    3.1221   33.9731  -11.0180 C   0  0  0  0  0  0  0  0  0  0  0  0
    6.5643   33.7155  -11.7320 C   0  0  0  0  0  0  0  0  0  0  0  0
    3.6076   35.3220  -10.9855 O   0  0  0  0  0  0  0  0  0  0  0  0
    6.4572   34.6430  -12.8486 O   0  0  0  0  0  0  0  0  0  0  0  0
    2.7152   33.5953  -12.4383 C   0  0  1  0  0  0  0  0  0  0  0  0
    7.1864   34.5339  -10.5383 C   0  0  1  0  0  0  0  0  0  0  0  0
    1.4998   34.0044  -12.6329 O   0  0  0  0  0  0  0  0  0  0  0  0
    8.2246   35.0866  -11.0185 O   0  0  0  0  0  0  0  0  0  0  0  0
    3.5688   34.2532  -13.4979 C   0  0  1  0  0  0  0  0  0  0  0  0
    6.2995   35.7419  -10.1762 C   0  0  1  0  0  0  0  0  0  0  0  0
    4.4745   33.3227  -13.9007 O   0  0  0  0  0  0  0  0  0  0  0  0
    5.5614   35.4964   -9.0868 O   0  0  0  0  0  0  0  0  0  0  0  0
    2.5521   34.5591  -14.6524 C   0  0  1  0  0  0  0  0  0  0  0  0
    7.2456   36.9434   -9.9512 C   0  0  1  0  0  0  0  0  0  0  0  0
    2.6845   33.5443  -15.7322 O   0  0  0  0  0  0  0  0  0  0  0  0
    7.4283   37.2002   -8.4863 O   0  0  0  0  0  0  0  0  0  0  0  0
    1.3705   34.5254  -14.1247 C   0  0  2  0  0  0  0  0  0  0  0  0
    8.3691   36.5832  -10.4698 C   0  0  2  0  0  0  0  0  0  0  0  0
    1.0598   39.7470  -12.9162 N   0  0  0  0  0  0  0  0  0  0  0  0
    2.0673   38.9052  -12.5507 C   0  0  0  0  0  0  0  0  0  0  0  0
    2.0539   37.5822  -12.9125 N   0  0  0  0  0  0  0  0  0  0  0  0
    1.0057   37.1068  -13.6509 C   0  0  0  0  0  0  0  0  0  0  0  0
    0.0039   37.9208  -14.0118 C   0  0  0  0  0  0  0  0  0  0  0  0
    0.0300   39.2660  -13.6481 C   0  0  0  0  0  0  0  0  0  0  0  0
   -0.9557   40.2223  -13.9626 N   0  0  0  0  0  0  0  0  0  0  0  0
   -0.8808   37.1955  -14.7284 N   0  0  0  0  0  0  0  0  0  0  0  0
   -0.4139   35.9164  -14.7993 C   0  0  0  0  0  0  0  0  0  0  0  0
    0.7569   35.8634  -14.1509 N   0  0  0  0  0  0  0  0  0  0  0  0
    7.6674   38.1138  -15.3978 N   0  0  0  0  0  0  0  0  0  0  0  0
    6.9578   37.1665  -14.7304 C   0  0  0  0  0  0  0  0  0  0  0  0
    7.2747   36.8747  -13.4336 N   0  0  0  0  0  0  0  0  0  0  0  0
    8.2906   37.5321  -12.8121 C   0  0  0  0  0  0  0  0  0  0  0  0
    8.9962   38.4765  -13.4666 C   0  0  0  0  0  0  0  0  0  0  0  0
    8.6691   38.7646  -14.7885 C   0  0  0  0  0  0  0  0  0  0  0  0
    9.2939   39.7116  -15.6762 N   0  0  0  0  0  0  0  0  0  0  0  0
    9.9318   38.9501  -12.6092 N   0  0  0  0  0  0  0  0  0  0  0  0
    9.7936   38.2947  -11.4212 C   0  0  0  0  0  0  0  0  0  0  0  0
    8.7744   37.4223  -11.5560 N   0  0  0  0  0  0  0  0  0  0  0  0
  1  3  1  1  0  0  0
  1  5  2  0  0  0  0
  1  9  1  0  0  0  0
  1 18  1  0  0  0  0
  2  4  1  6  0  0  0
  2  6  2  0  0  0  0
  2 10  1  0  0  0  0
  2 17  1  0  0  0  0
  7  9  1  0  0  0  0
  8 10  1  0  0  0  0
 11  7  1  1  0  0  0
 11 13  1  0  0  0  0
 11 15  1  0  0  0  0
 12  8  1  6  0  0  0
 12 14  1  0  0  0  0
 12 16  1  0  0  0  0
 13 23  1  0  0  0  0
 14 24  1  0  0  0  0
 15 17  1  6  0  0  0
 15 19  1  0  0  0  0
 16 18  1  1  0  0  0
 16 20  1  0  0  0  0
 19 21  1  6  0  0  0
 19 23  1  0  0  0  0
 20 22  1  1  0  0  0
 20 24  1  0  0  0  0
 23 34  1  1  0  0  0
 24 44  1  6  0  0  0
 25 26  2  0  0  0  0
 25 30  1  0  0  0  0
 26 27  1  0  0  0  0
 27 28  2  0  0  0  0
 28 29  1  0  0  0  0
 28 34  1  0  0  0  0
 29 30  2  0  0  0  0
 29 32  1  0  0  0  0
 30 31  1  0  0  0  0
 32 33  2  0  0  0  0
 33 34  1  0  0  0  0
 35 36  2  0  0  0  0
 35 40  1  0  0  0  0
 36 37  1  0  0  0  0
 37 38  2  0  0  0  0
 38 39  1  0  0  0  0
 38 44  1  0  0  0  0
 39 40  2  0  0  0  0
 39 42  1  0  0  0  0
 40 41  1  0  0  0  0
 42 43  2  0  0  0  0
 43 44  1  0  0  0  0
M  CHG  2   3  -1   4  -1
M  END
>  <CHROM.1>
59.00332193,48.20383092,4.76992863,36.16006296,-12.60105791,2.99370703,-0.13547105
-1.06217140

>  <Name>
ligand

>  <RI>
0

>  <Rbt.Current_Directory>
/home/itssahil/PROJECTS/Mol_Feturizer/New_Systems/rnas/4QLM

>  <Rbt.Executable>
rbdock ($Id: //depot/dev/client3/rdock/2013.1/src/exe/rbdock.cxx#4 $)

>  <Rbt.Library>
libRbt.so (2013.1, Build901 2013/11/27)

>  <Rbt.Parameter_File>
/export/apps/rDock/src/rDock_2013.1_src/data/scripts/dock_solv.prm

>  <Rbt.Receptor>
prm/blind_docking_80.prm

>  <SCORE>
64.6137

>  <SCORE.INTER>
54.8229

>  <SCORE.INTER.CONST>
1

>  <SCORE.INTER.POLAR>
0

>  <SCORE.INTER.ROT>
2

>  <SCORE.INTER.SOLV>
39.7928

>  <SCORE.INTER.VDW>
18.351

>  <SCORE.INTER.norm>
1.24597

>  <SCORE.INTRA>
0.423692

>  <SCORE.INTRA.DIHEDRAL>
0.0600109

>  <SCORE.INTRA.DIHEDRAL.0>
2.32994

>  <SCORE.INTRA.POLAR>
0

>  <SCORE.INTRA.POLAR.0>
0

>  <SCORE.INTRA.REPUL>
0

>  <SCORE.INTRA.REPUL.0>
0

>  <SCORE.INTRA.SOLV>
1.49046

>  <SCORE.INTRA.SOLV.lig_0>
-117.703

>  <SCORE.INTRA.VDW>
-0.351544

>  <SCORE.INTRA.VDW.0>
-1.59997

>  <SCORE.INTRA.norm>
0.00962937

>  <SCORE.RESTR>
9.3671

>  <SCORE.RESTR.CAVITY>
9.3671

>  <SCORE.RESTR.norm>
0.212889

>  <SCORE.SYSTEM>
0

>  <SCORE.SYSTEM.CONST>
0

>  <SCORE.SYSTEM.DIHEDRAL>
0

>  <SCORE.SYSTEM.SOLV>
0

>  <SCORE.SYSTEM.norm>
0

>  <SCORE.heavy>
44

>  <SCORE.norm>
1.46849

>  <RMSD>
13.425

$$$$
ligand
 OpenBabel11021811513D
libRbt.so/2013.1/901 2013/11/27
 44 50  0  0  0  0  0  0  0  0999 V2000
    8.8230   21.1718    1.8363 P   0  0  2  0  0  0  0  0  0  0  0  0
   11.8483   24.4343   -1.2312 P   0  0  1  0  0  0  0  0  0  0  0  0
    9.0696   19.6859    2.0853 O   0  5  0  0  0  0  0  0  0  0  0  0
   10.8565   25.2634   -2.0102 O   0  5  0  0  0  0  0  0  0  0  0  0
    7.3406   21.3878    2.0241 O   0  0  0  0  0  0  0  0  0  0  0  0
   13.2355   25.0945   -1.4012 O   0  0  0  0  0  0  0  0  0  0  0  0
   10.3879   20.5787   -0.0718 C   0  0  0  0  0  0  0  0  0  0  0  0
   11.9831   23.4703    1.1607 C   0  0  0  0  0  0  0  0  0  0  0  0
    9.3213   21.4257    0.3769 O   0  0  0  0  0  0  0  0  0  0  0  0
   11.2110   24.3364    0.2818 O   0  0  0  0  0  0  0  0  0  0  0  0
   10.7410   20.9010   -1.5199 C   0  0  1  0  0  0  0  0  0  0  0  0
   11.3287   23.5958    2.5881 C   0  0  1  0  0  0  0  0  0  0  0  0
    9.9335   20.2394   -2.2897 O   0  0  0  0  0  0  0  0  0  0  0  0
   11.2579   24.8441    2.8136 O   0  0  0  0  0  0  0  0  0  0  0  0
   10.5682   22.3624   -1.8645 C   0  0  1  0  0  0  0  0  0  0  0  0
    9.8457   23.1757    2.5541 C   0  0  1  0  0  0  0  0  0  0  0  0
   11.8068   22.9212   -1.8214 O   0  0  0  0  0  0  0  0  0  0  0  0
    9.6780   21.9377    3.0346 O   0  0  0  0  0  0  0  0  0  0  0  0
   10.0352   22.3325   -3.3394 C   0  0  1  0  0  0  0  0  0  0  0  0
    9.0651   24.2120    3.3943 C   0  0  1  0  0  0  0  0  0  0  0  0
   11.1386   22.6427   -4.2879 O   0  0  0  0  0  0  0  0  0  0  0  0
    8.7353   23.6515    4.7443 O   0  0  0  0  0  0  0  0  0  0  0  0
    9.5691   21.1419   -3.5413 C   0  0  2  0  0  0  0  0  0  0  0  0
    9.8717   25.2085    3.5259 C   0  0  2  0  0  0  0  0  0  0  0  0
    5.0488   20.9124   -6.4285 N   0  0  0  0  0  0  0  0  0  0  0  0
    6.3104   20.7338   -6.9118 C   0  0  0  0  0  0  0  0  0  0  0  0
    7.4043   20.8115   -6.0878 N   0  0  0  0  0  0  0  0  0  0  0  0
    7.2168   21.0760   -4.7592 C   0  0  0  0  0  0  0  0  0  0  0  0
    5.9826   21.2611   -4.2706 C   0  0  0  0  0  0  0  0  0  0  0  0
    4.8758   21.1711   -5.1129 C   0  0  0  0  0  0  0  0  0  0  0  0
    3.5320   21.3437   -4.7266 N   0  0  0  0  0  0  0  0  0  0  0  0
    6.0932   21.4977   -2.9462 N   0  0  0  0  0  0  0  0  0  0  0  0
    7.4177   21.4633   -2.6237 C   0  0  0  0  0  0  0  0  0  0  0  0
    8.1106   21.1864   -3.7361 N   0  0  0  0  0  0  0  0  0  0  0  0
    6.3353   29.0310    3.5776 N   0  0  0  0  0  0  0  0  0  0  0  0
    6.4084   27.9776    4.4328 C   0  0  0  0  0  0  0  0  0  0  0  0
    7.4004   27.0506    4.2784 N   0  0  0  0  0  0  0  0  0  0  0  0
    8.3129   27.1838    3.2784 C   0  0  0  0  0  0  0  0  0  0  0  0
    8.2494   28.2290    2.4288 C   0  0  0  0  0  0  0  0  0  0  0  0
    7.2334   29.1664    2.5910 C   0  0  0  0  0  0  0  0  0  0  0  0
    6.9655   30.3382    1.7972 N   0  0  0  0  0  0  0  0  0  0  0  0
    9.2709   28.0984    1.5488 N   0  0  0  0  0  0  0  0  0  0  0  0
    9.9665   26.9690    1.8661 C   0  0  0  0  0  0  0  0  0  0  0  0
    9.3681   26.4125    2.9386 N   0  0  0  0  0  0  0  0  0  0  0  0
  1  3  1  1  0  0  0
  1  5  2  0  0  0  0
  1  9  1  0  0  0  0
  1 18  1  0  0  0  0
  2  4  1  6  0  0  0
  2  6  2  0  0  0  0
  2 10  1  0  0  0  0
  2 17  1  0  0  0  0
  7  9  1  0  0  0  0
  8 10  1  0  0  0  0
 11  7  1  1  0  0  0
 11 13  1  0  0  0  0
 11 15  1  0  0  0  0
 12  8  1  6  0  0  0
 12 14  1  0  0  0  0
 12 16  1  0  0  0  0
 13 23  1  0  0  0  0
 14 24  1  0  0  0  0
 15 17  1  6  0  0  0
 15 19  1  0  0  0  0
 16 18  1  1  0  0  0
 16 20  1  0  0  0  0
 19 21  1  6  0  0  0
 19 23  1  0  0  0  0
 20 22  1  1  0  0  0
 20 24  1  0  0  0  0
 23 34  1  1  0  0  0
 24 44  1  6  0  0  0
 25 26  2  0  0  0  0
 25 30  1  0  0  0  0
 26 27  1  0  0  0  0
 27 28  2  0  0  0  0
 28 29  1  0  0  0  0
 28 34  1  0  0  0  0
 29 30  2  0  0  0  0
 29 32  1  0  0  0  0
 30 31  1  0  0  0  0
 32 33  2  0  0  0  0
 33 34  1  0  0  0  0
 35 36  2  0  0  0  0
 35 40  1  0  0  0  0
 36 37  1  0  0  0  0
 37 38  2  0  0  0  0
 38 39  1  0  0  0  0
 38 44  1  0  0  0  0
 39 40  2  0  0  0  0
 39 42  1  0  0  0  0
 40 41  1  0  0  0  0
 42 43  2  0  0  0  0
 43 44  1  0  0  0  0
M  CHG  2   3  -1   4  -1
M  END
>  <CHROM.1>
-134.41601790,-172.80927120,9.01183369,23.49818926,-0.20409342,-1.41207587
0.53844444,-2.29416718

>  <Name>
ligand

>  <RI>
0

>  <Rbt.Current_Directory>
/home/itssahil/PROJECTS/Mol_Feturizer/New_Systems/rnas/4QLM

>  <Rbt.Executable>
rbdock ($Id: //depot/dev/client3/rdock/2013.1/src/exe/rbdock.cxx#4 $)

>  <Rbt.Library>
libRbt.so (2013.1, Build901 2013/11/27)

>  <Rbt.Parameter_File>
/export/apps/rDock/src/rDock_2013.1_src/data/scripts/dock_solv.prm

>  <Rbt.Receptor>
prm/blind_docking_60.prm

>  <SCORE>
27.2196

>  <SCORE.INTER>
16.1867

>  <SCORE.INTER.CONST>
1

>  <SCORE.INTER.POLAR>
0

>  <SCORE.INTER.ROT>
2

>  <SCORE.INTER.SOLV>
21.9141

>  <SCORE.INTER.VDW>
-1.44687

>  <SCORE.INTER.norm>
0.36788

>  <SCORE.INTRA>
0.358067

>  <SCORE.INTRA.DIHEDRAL>
0.0091825

>  <SCORE.INTRA.DIHEDRAL.0>
2.32994

>  <SCORE.INTRA.POLAR>
0

>  <SCORE.INTRA.POLAR.0>
0

>  <SCORE.INTRA.REPUL>
0

>  <SCORE.INTRA.REPUL.0>
0

>  <SCORE.INTRA.SOLV>
0.0409344

>  <SCORE.INTRA.SOLV.lig_0>
-117.703

>  <SCORE.INTRA.VDW>
0.333008

>  <SCORE.INTRA.VDW.0>
-1.59997

>  <SCORE.INTRA.norm>
0.00813788

>  <SCORE.RESTR>
10.6747

>  <SCORE.RESTR.CAVITY>
10.6747

>  <SCORE.RESTR.norm>
0.242608

>  <SCORE.SYSTEM>
0

>  <SCORE.SYSTEM.CONST>
0

>  <SCORE.SYSTEM.DIHEDRAL>
0

>  <SCORE.SYSTEM.SOLV>
0

>  <SCORE.SYSTEM.norm>
0

>  <SCORE.heavy>
44

>  <SCORE.norm>
0.618626

>  <RMSD>
25.274

$$$$
ligand
 OpenBabel11021811513D
libRbt.so/2013.1/901 2013/11/27
 44 50  0  0  0  0  0  0  0  0999 V2000
    8.9723   21.7357    1.5192 P   0  0  2  0  0  0  0  0  0  0  0  0
   13.0045   24.2257   -1.0783 P   0  0  1  0  0  0  0  0  0  0  0  0
    8.9301   20.2615    1.9135 O   0  5  0  0  0  0  0  0  0  0  0  0
   12.3236   25.1057   -2.0981 O   0  5  0  0  0  0  0  0  0  0  0  0
    7.5341   22.1749    1.3847 O   0  0  0  0  0  0  0  0  0  0  0  0
   14.4846   24.6649   -1.0052 O   0  0  0  0  0  0  0  0  0  0  0  0
   10.7616   20.7452    0.0163 C   0  0  0  0  0  0  0  0  0  0  0  0
   12.5244   23.4909    1.3502 C   0  0  0  0  0  0  0  0  0  0  0  0
    9.7753   21.7733    0.1788 O   0  0  0  0  0  0  0  0  0  0  0  0
   12.0812   24.3667    0.2754 O   0  0  0  0  0  0  0  0  0  0  0  0
   11.4324   20.8717   -1.3473 C   0  0  1  0  0  0  0  0  0  0  0  0
   11.6360   23.8459    2.6017 C   0  0  1  0  0  0  0  0  0  0  0  0
   10.6942   20.2579   -2.2195 O   0  0  0  0  0  0  0  0  0  0  0  0
   11.7200   25.1078    2.7229 O   0  0  0  0  0  0  0  0  0  0  0  0
   11.5607   22.3021   -1.8183 C   0  0  1  0  0  0  0  0  0  0  0  0
   10.1399   23.6368    2.2936 C   0  0  1  0  0  0  0  0  0  0  0  0
   12.8401   22.6830   -1.5606 O   0  0  0  0  0  0  0  0  0  0  0  0
    9.6908   22.4875    2.8124 O   0  0  0  0  0  0  0  0  0  0  0  0
   11.3229   22.2033   -3.3655 C   0  0  1  0  0  0  0  0  0  0  0  0
    9.3850   24.8494    2.8842 C   0  0  1  0  0  0  0  0  0  0  0  0
   12.6227   22.2613   -4.0869 O   0  0  0  0  0  0  0  0  0  0  0  0
    8.7182   24.4754    4.1729 O   0  0  0  0  0  0  0  0  0  0  0  0
   10.7232   21.0758   -3.5773 C   0  0  2  0  0  0  0  0  0  0  0  0
   10.2976   25.7310    3.1102 C   0  0  2  0  0  0  0  0  0  0  0  0
    5.3663   20.8542   -3.3025 N   0  0  0  0  0  0  0  0  0  0  0  0
    6.2300   20.4175   -2.3430 C   0  0  0  0  0  0  0  0  0  0  0  0
    7.5876   20.5207   -2.5094 N   0  0  0  0  0  0  0  0  0  0  0  0
    8.0749   21.0705   -3.6629 C   0  0  0  0  0  0  0  0  0  0  0  0
    7.2381   21.4979   -4.6186 C   0  0  0  0  0  0  0  0  0  0  0  0
    5.8597   21.3980   -4.4375 C   0  0  0  0  0  0  0  0  0  0  0  0
    4.8771   21.8081   -5.3601 N   0  0  0  0  0  0  0  0  0  0  0  0
    7.9830   21.9922   -5.6301 N   0  0  0  0  0  0  0  0  0  0  0  0
    9.2960   21.8571   -5.2880 C   0  0  0  0  0  0  0  0  0  0  0  0
    9.3547   21.3054   -4.0689 N   0  0  0  0  0  0  0  0  0  0  0  0
    9.7191   27.9962   -1.5432 N   0  0  0  0  0  0  0  0  0  0  0  0
    9.8962   26.6714   -1.2989 C   0  0  0  0  0  0  0  0  0  0  0  0
   10.0405   26.2360   -0.0116 N   0  0  0  0  0  0  0  0  0  0  0  0
   10.0016   27.1221    1.0198 C   0  0  0  0  0  0  0  0  0  0  0  0
    9.8217   28.4377    0.7851 C   0  0  0  0  0  0  0  0  0  0  0  0
    9.6795   28.8729   -0.5293 C   0  0  0  0  0  0  0  0  0  0  0  0
    9.4984   30.2192   -1.0087 N   0  0  0  0  0  0  0  0  0  0  0  0
    9.8290   29.0677    1.9843 N   0  0  0  0  0  0  0  0  0  0  0  0
   10.0091   28.1304    2.9584 C   0  0  0  0  0  0  0  0  0  0  0  0
   10.1116   26.9304    2.3521 N   0  0  0  0  0  0  0  0  0  0  0  0
  1  3  1  1  0  0  0
  1  5  2  0  0  0  0
  1  9  1  0  0  0  0
  1 18  1  0  0  0  0
  2  4  1  6  0  0  0
  2  6  2  0  0  0  0
  2 10  1  0  0  0  0
  2 17  1  0  0  0  0
  7  9  1  0  0  0  0
  8 10  1  0  0  0  0
 11  7  1  1  0  0  0
 11 13  1  0  0  0  0
 11 15  1  0  0  0  0
 12  8  1  6  0  0  0
 12 14  1  0  0  0  0
 12 16  1  0  0  0  0
 13 23  1  0  0  0  0
 14 24  1  0  0  0  0
 15 17  1  6  0  0  0
 15 19  1  0  0  0  0
 16 18  1  1  0  0  0
 16 20  1  0  0  0  0
 19 21  1  6  0  0  0
 19 23  1  0  0  0  0
 20 22  1  1  0  0  0
 20 24  1  0  0  0  0
 23 34  1  1  0  0  0
 24 44  1  6  0  0  0
 25 26  2  0  0  0  0
 25 30  1  0  0  0  0
 26 27  1  0  0  0  0
 27 28  2  0  0  0  0
 28 29  1  0  0  0  0
 28 34  1  0  0  0  0
 29 30  2  0  0  0  0
 29 32  1  0  0  0  0
 30 31  1  0  0  0  0
 32 33  2  0  0  0  0
 33 34  1  0  0  0  0
 35 36  2  0  0  0  0
 35 40  1  0  0  0  0
 36 37  1  0  0  0  0
 37 38  2  0  0  0  0
 38 39  1  0  0  0  0
 38 44  1  0  0  0  0
 39 40  2  0  0  0  0
 39 42  1  0  0  0  0
 40 41  1  0  0  0  0
 42 43  2  0  0  0  0
 43 44  1  0  0  0  0
M  CHG  2   3  -1   4  -1
M  END
>  <CHROM.1>
3.84832793,63.99717568,9.98254882,23.61534525,-0.60934198,2.48501774,-1.19437566
-1.50006235

>  <Name>
ligand

>  <RI>
0

>  <Rbt.Current_Directory>
/home/itssahil/PROJECTS/Mol_Feturizer/New_Systems/rnas/4QLM

>  <Rbt.Executable>
rbdock ($Id: //depot/dev/client3/rdock/2013.1/src/exe/rbdock.cxx#4 $)

>  <Rbt.Library>
libRbt.so (2013.1, Build901 2013/11/27)

>  <Rbt.Parameter_File>
/export/apps/rDock/src/rDock_2013.1_src/data/scripts/dock_solv.prm

>  <Rbt.Receptor>
prm/blind_docking_60.prm

>  <SCORE>
12.6987

>  <SCORE.INTER>
0.794598

>  <SCORE.INTER.CONST>
1

>  <SCORE.INTER.POLAR>
0

>  <SCORE.INTER.ROT>
2

>  <SCORE.INTER.SOLV>
24.7873

>  <SCORE.INTER.VDW>
-12.666

>  <SCORE.INTER.norm>
0.018059

>  <SCORE.INTRA>
-0.981781

>  <SCORE.INTRA.DIHEDRAL>
0.102027

>  <SCORE.INTRA.DIHEDRAL.0>
2.32994

>  <SCORE.INTRA.POLAR>
0

>  <SCORE.INTRA.POLAR.0>
0

>  <SCORE.INTRA.REPUL>
0

>  <SCORE.INTRA.REPUL.0>
0

>  <SCORE.INTRA.SOLV>
0.876959

>  <SCORE.INTRA.SOLV.lig_0>
-117.703

>  <SCORE.INTRA.VDW>
-1.47127

>  <SCORE.INTRA.VDW.0>
-1.59997

>  <SCORE.INTRA.norm>
-0.0223132

>  <SCORE.RESTR>
12.8859

>  <SCORE.RESTR.CAVITY>
12.8859

>  <SCORE.RESTR.norm>
0.29286

>  <SCORE.SYSTEM>
0

>  <SCORE.SYSTEM.CONST>
0

>  <SCORE.SYSTEM.DIHEDRAL>
0

>  <SCORE.SYSTEM.SOLV>
0

>  <SCORE.SYSTEM.norm>
0

>  <SCORE.heavy>
44

>  <SCORE.norm>
0.288606

>  <RMSD>
25.330

$$$$
ligand
 OpenBabel11021811513D
libRbt.so/2013.1/901 2013/11/27
 44 50  0  0  0  0  0  0  0  0999 V2000
   11.1995   25.0796    1.2317 P   0  0  2  0  0  0  0  0  0  0  0  0
   13.3053   22.1015   -2.7561 P   0  0  1  0  0  0  0  0  0  0  0  0
   10.4668   24.5487    2.4612 O   0  5  0  0  0  0  0  0  0  0  0  0
   12.9305   22.8303   -4.0235 O   0  5  0  0  0  0  0  0  0  0  0  0
   10.6779   26.4780    1.0042 O   0  0  0  0  0  0  0  0  0  0  0  0
   14.3731   21.0479   -3.1287 O   0  0  0  0  0  0  0  0  0  0  0  0
   10.5923   22.7270    0.4982 C   0  0  0  0  0  0  0  0  0  0  0  0
   14.0090   22.7820   -0.3665 C   0  0  0  0  0  0  0  0  0  0  0  0
   10.8469   24.0767    0.0860 O   0  0  0  0  0  0  0  0  0  0  0  0
   13.7192   23.2914   -1.6989 O   0  0  0  0  0  0  0  0  0  0  0  0
   10.2163   21.8717   -0.7071 C   0  0  1  0  0  0  0  0  0  0  0  0
   14.5176   24.0133    0.4742 C   0  0  1  0  0  0  0  0  0  0  0  0
    8.9450   22.0129   -0.9222 O   0  0  0  0  0  0  0  0  0  0  0  0
   15.4360   24.5399   -0.2280 O   0  0  0  0  0  0  0  0  0  0  0  0
   10.9198   22.2901   -1.9777 C   0  0  1  0  0  0  0  0  0  0  0  0
   13.4518   25.1263    0.5229 C   0  0  1  0  0  0  0  0  0  0  0  0
   11.9568   21.4280   -2.1499 O   0  0  0  0  0  0  0  0  0  0  0  0
   12.7941   25.1216    1.6888 O   0  0  0  0  0  0  0  0  0  0  0  0
    9.8359   22.0673   -3.0893 C   0  0  1  0  0  0  0  0  0  0  0  0
   14.1900   26.4663    0.3028 C   0  0  1  0  0  0  0  0  0  0  0  0
   10.1068   20.8003   -3.8205 O   0  0  0  0  0  0  0  0  0  0  0  0
   14.3663   27.1880    1.6041 O   0  0  0  0  0  0  0  0  0  0  0  0
    8.6910   22.0212   -2.4871 C   0  0  2  0  0  0  0  0  0  0  0  0
   15.3437   26.1366   -0.1678 C   0  0  2  0  0  0  0  0  0  0  0  0
    4.6023   24.4533   -4.9749 N   0  0  0  0  0  0  0  0  0  0  0  0
    4.8619   23.1156   -4.9943 C   0  0  0  0  0  0  0  0  0  0  0  0
    5.9361   22.5908   -4.3219 N   0  0  0  0  0  0  0  0  0  0  0  0
    6.7578   23.4322   -3.6241 C   0  0  0  0  0  0  0  0  0  0  0  0
    6.5196   24.7510   -3.6017 C   0  0  0  0  0  0  0  0  0  0  0  0
    5.4204   25.2750   -4.2798 C   0  0  0  0  0  0  0  0  0  0  0  0
    5.0603   26.6360   -4.3350 N   0  0  0  0  0  0  0  0  0  0  0  0
    7.4738   25.3309   -2.8431 N   0  0  0  0  0  0  0  0  0  0  0  0
    8.3118   24.3499   -2.4018 C   0  0  0  0  0  0  0  0  0  0  0  0
    7.8626   23.1771   -2.8676 N   0  0  0  0  0  0  0  0  0  0  0  0
   17.5139   25.5078   -4.8598 N   0  0  0  0  0  0  0  0  0  0  0  0
   17.5893   24.6527   -3.8065 C   0  0  0  0  0  0  0  0  0  0  0  0
   16.9650   24.9706   -2.6332 N   0  0  0  0  0  0  0  0  0  0  0  0
   16.2674   26.1330   -2.5214 C   0  0  0  0  0  0  0  0  0  0  0  0
   16.1845   26.9842   -3.5639 C   0  0  0  0  0  0  0  0  0  0  0  0
   16.8267   26.6544   -4.7539 C   0  0  0  0  0  0  0  0  0  0  0  0
   16.8866   27.4148   -5.9759 N   0  0  0  0  0  0  0  0  0  0  0  0
   15.4393   28.0426   -3.1643 N   0  0  0  0  0  0  0  0  0  0  0  0
   15.0598   27.8342   -1.8711 C   0  0  0  0  0  0  0  0  0  0  0  0
   15.5743   26.6495   -1.4838 N   0  0  0  0  0  0  0  0  0  0  0  0
  1  3  1  1  0  0  0
  1  5  2  0  0  0  0
  1  9  1  0  0  0  0
  1 18  1  0  0  0  0
  2  4  1  6  0  0  0
  2  6  2  0  0  0  0
  2 10  1  0  0  0  0
  2 17  1  0  0  0  0
  7  9  1  0  0  0  0
  8 10  1  0  0  0  0
 11  7  1  1  0  0  0
 11 13  1  0  0  0  0
 11 15  1  0  0  0  0
 12  8  1  6  0  0  0
 12 14  1  0  0  0  0
 12 16  1  0  0  0  0
 13 23  1  0  0  0  0
 14 24  1  0  0  0  0
 15 17  1  6  0  0  0
 15 19  1  0  0  0  0
 16 18  1  1  0  0  0
 16 20  1  0  0  0  0
 19 21  1  1  0  0  0
 19 23  1  0  0  0  0
 20 22  1  1  0  0  0
 20 24  1  0  0  0  0
 23 34  1  1  0  0  0
 24 44  1  6  0  0  0
 25 26  2  0  0  0  0
 25 30  1  0  0  0  0
 26 27  1  0  0  0  0
 27 28  2  0  0  0  0
 28 29  1  0  0  0  0
 28 34  1  0  0  0  0
 29 30  2  0  0  0  0
 29 32  1  0  0  0  0
 30 31  1  0  0  0  0
 32 33  2  0  0  0  0
 33 34  1  0  0  0  0
 35 36  2  0  0  0  0
 35 40  1  0  0  0  0
 36 37  1  0  0  0  0
 37 38  2  0  0  0  0
 38 39  1  0  0  0  0
 38 44  1  0  0  0  0
 39 40  2  0  0  0  0
 39 42  1  0  0  0  0
 40 41  1  0  0  0  0
 42 43  2  0  0  0  0
 43 44  1  0  0  0  0
M  CHG  2   3  -1   4  -1
M  END
>  <CHROM.1>
-132.08978920,-26.42637322,11.86545703,24.31663124,-1.90973094,2.98903460
-0.21820716,-1.67313043

>  <Name>
ligand

>  <RI>
0

>  <Rbt.Current_Directory>
/home/itssahil/PROJECTS/Mol_Feturizer/New_Systems/rnas/4QLM

>  <Rbt.Executable>
rbdock ($Id: //depot/dev/client3/rdock/2013.1/src/exe/rbdock.cxx#4 $)

>  <Rbt.Library>
libRbt.so (2013.1, Build901 2013/11/27)

>  <Rbt.Parameter_File>
/export/apps/rDock/src/rDock_2013.1_src/data/scripts/dock_solv.prm

>  <Rbt.Receptor>
prm/blind_docking_60.prm

>  <SCORE>
35.6656

>  <SCORE.INTER>
25.2752

>  <SCORE.INTER.CONST>
1

>  <SCORE.INTER.POLAR>
0

>  <SCORE.INTER.ROT>
2

>  <SCORE.INTER.SOLV>
38.9876

>  <SCORE.INTER.VDW>
-1.07908

>  <SCORE.INTER.norm>
0.574436

>  <SCORE.INTRA>
1.0973

>  <SCORE.INTRA.DIHEDRAL>
0.0264393

>  <SCORE.INTRA.DIHEDRAL.0>
2.32994

>  <SCORE.INTRA.POLAR>
0

>  <SCORE.INTRA.POLAR.0>
0

>  <SCORE.INTRA.REPUL>
0

>  <SCORE.INTRA.REPUL.0>
0

>  <SCORE.INTRA.SOLV>
0.0870997

>  <SCORE.INTRA.SOLV.lig_0>
-117.703

>  <SCORE.INTRA.VDW>
1.04053

>  <SCORE.INTRA.VDW.0>
-1.59997

>  <SCORE.INTRA.norm>
0.0249386

>  <SCORE.RESTR>
9.29306

>  <SCORE.RESTR.CAVITY>
9.29306

>  <SCORE.RESTR.norm>
0.211206

>  <SCORE.SYSTEM>
0

>  <SCORE.SYSTEM.CONST>
0

>  <SCORE.SYSTEM.DIHEDRAL>
0

>  <SCORE.SYSTEM.SOLV>
0

>  <SCORE.SYSTEM.norm>
0

>  <SCORE.heavy>
44

>  <SCORE.norm>
0.810581

>  <RMSD>
25.435

$$$$
ligand
 OpenBabel11021811513D
libRbt.so/2013.1/901 2013/11/27
 44 50  0  0  0  0  0  0  0  0999 V2000
   14.1709   25.6790   -1.5047 P   0  0  2  0  0  0  0  0  0  0  0  0
   10.5313   22.0499    0.1654 P   0  0  1  0  0  0  0  0  0  0  0  0
   15.3329   26.2321   -0.6836 O   0  5  0  0  0  0  0  0  0  0  0  0
    9.2075   22.5662   -0.3435 O   0  5  0  0  0  0  0  0  0  0  0  0
   13.8425   26.7361   -2.5313 O   0  0  0  0  0  0  0  0  0  0  0  0
   10.3098   20.5928    0.6309 O   0  0  0  0  0  0  0  0  0  0  0  0
   13.4566   25.0997    0.8608 C   0  0  0  0  0  0  0  0  0  0  0  0
   12.9578   21.9867   -0.7158 C   0  0  0  0  0  0  0  0  0  0  0  0
   13.0287   25.4239   -0.4689 O   0  0  0  0  0  0  0  0  0  0  0  0
   11.5859   22.3234   -1.0667 O   0  0  0  0  0  0  0  0  0  0  0  0
   12.2477   24.9241    1.7736 C   0  0  1  0  0  0  0  0  0  0  0  0
   13.8059   22.1703   -2.0306 C   0  0  1  0  0  0  0  0  0  0  0  0
   11.8944   26.0947    2.2062 O   0  0  0  0  0  0  0  0  0  0  0  0
   13.1878   21.5080   -2.9212 O   0  0  0  0  0  0  0  0  0  0  0  0
   11.0456   24.3428    1.0656 C   0  0  1  0  0  0  0  0  0  0  0  0
   13.7038   23.6163   -2.5556 C   0  0  1  0  0  0  0  0  0  0  0  0
   11.0134   23.0197    1.3764 O   0  0  0  0  0  0  0  0  0  0  0  0
   14.7929   24.3280   -2.2406 O   0  0  0  0  0  0  0  0  0  0  0  0
    9.8334   25.0872    1.7263 C   0  0  1  0  0  0  0  0  0  0  0  0
   13.5184   23.5267   -4.0876 C   0  0  1  0  0  0  0  0  0  0  0  0
    9.1781   24.2059    2.7299 O   0  0  0  0  0  0  0  0  0  0  0  0
   14.8060   23.8317   -4.7906 O   0  0  0  0  0  0  0  0  0  0  0  0
   10.3120   26.1525    2.2847 C   0  0  2  0  0  0  0  0  0  0  0  0
   13.1841   22.3022   -4.3107 C   0  0  2  0  0  0  0  0  0  0  0  0
    9.8192   29.5616   -1.8331 N   0  0  0  0  0  0  0  0  0  0  0  0
   10.5379   28.4037   -1.8416 C   0  0  0  0  0  0  0  0  0  0  0  0
   10.5997   27.5980   -0.7332 N   0  0  0  0  0  0  0  0  0  0  0  0
    9.9273   27.9720    0.3974 C   0  0  0  0  0  0  0  0  0  0  0  0
    9.2221   29.1115    0.4233 C   0  0  0  0  0  0  0  0  0  0  0  0
    9.1568   29.9197   -0.7104 C   0  0  0  0  0  0  0  0  0  0  0  0
    8.4537   31.1363   -0.8138 N   0  0  0  0  0  0  0  0  0  0  0  0
    8.6656   29.2259    1.6478 N   0  0  0  0  0  0  0  0  0  0  0  0
    9.0439   28.1415    2.3828 C   0  0  0  0  0  0  0  0  0  0  0  0
    9.8071   27.3589    1.6088 N   0  0  0  0  0  0  0  0  0  0  0  0
    8.1411   21.1484   -3.7135 N   0  0  0  0  0  0  0  0  0  0  0  0
    9.1057   21.1027   -2.7575 C   0  0  0  0  0  0  0  0  0  0  0  0
   10.3920   21.4316   -3.0806 N   0  0  0  0  0  0  0  0  0  0  0  0
   10.7048   21.8081   -4.3498 C   0  0  0  0  0  0  0  0  0  0  0  0
    9.7520   21.8601   -5.3025 C   0  0  0  0  0  0  0  0  0  0  0  0
    8.4451   21.5196   -4.9657 C   0  0  0  0  0  0  0  0  0  0  0  0
    7.2840   21.4859   -5.8177 N   0  0  0  0  0  0  0  0  0  0  0  0
   10.3491   22.2589   -6.4512 N   0  0  0  0  0  0  0  0  0  0  0  0
   11.6743   22.4572   -6.1975 C   0  0  0  0  0  0  0  0  0  0  0  0
   11.8835   22.1787   -4.8949 N   0  0  0  0  0  0  0  0  0  0  0  0
  1  3  1  1  0  0  0
  1  5  2  0  0  0  0
  1  9  1  0  0  0  0
  1 18  1  0  0  0  0
  2  4  1  6  0  0  0
  2  6  2  0  0  0  0
  2 10  1  0  0  0  0
  2 17  1  0  0  0  0
  7  9  1  0  0  0  0
  8 10  1  0  0  0  0
 11  7  1  6  0  0  0
 11 13  1  0  0  0  0
 11 15  1  0  0  0  0
 12  8  1  1  0  0  0
 12 14  1  0  0  0  0
 12 16  1  0  0  0  0
 13 23  1  0  0  0  0
 14 24  1  0  0  0  0
 15 17  1  1  0  0  0
 15 19  1  0  0  0  0
 16 18  1  6  0  0  0
 16 20  1  0  0  0  0
 19 21  1  1  0  0  0
 19 23  1  0  0  0  0
 20 22  1  6  0  0  0
 20 24  1  0  0  0  0
 23 34  1  6  0  0  0
 24 44  1  1  0  0  0
 25 26  2  0  0  0  0
 25 30  1  0  0  0  0
 26 27  1  0  0  0  0
 27 28  2  0  0  0  0
 28 29  1  0  0  0  0
 28 34  1  0  0  0  0
 29 30  2  0  0  0  0
 29 32  1  0  0  0  0
 30 31  1  0  0  0  0
 32 33  2  0  0  0  0
 33 34  1  0  0  0  0
 35 36  2  0  0  0  0
 35 40  1  0  0  0  0
 36 37  1  0  0  0  0
 37 38  2  0  0  0  0
 38 39  1  0  0  0  0
 38 44  1  0  0  0  0
 39 40  2  0  0  0  0
 39 42  1  0  0  0  0
 40 41  1  0  0  0  0
 42 43  2  0  0  0  0
 43 44  1  0  0  0  0
M  CHG  2   3  -1   4  -1
M  END
>  <CHROM.1>
52.85539854,16.79366891,11.27272460,24.46003078,-1.33302416,-1.71753210,-0.40915528
-2.52076828

>  <Name>
ligand

>  <RI>
0

>  <Rbt.Current_Directory>
/home/itssahil/PROJECTS/Mol_Feturizer/New_Systems/rnas/4QLM

>  <Rbt.Executable>
rbdock ($Id: //depot/dev/client3/rdock/2013.1/src/exe/rbdock.cxx#4 $)

>  <Rbt.Library>
libRbt.so (2013.1, Build901 2013/11/27)

>  <Rbt.Parameter_File>
/export/apps/rDock/src/rDock_2013.1_src/data/scripts/dock_solv.prm

>  <Rbt.Receptor>
prm/blind_docking_60.prm

>  <SCORE>
38.6774

>  <SCORE.INTER>
28.2702

>  <SCORE.INTER.CONST>
1

>  <SCORE.INTER.POLAR>
0

>  <SCORE.INTER.ROT>
2

>  <SCORE.INTER.SOLV>
31.0188

>  <SCORE.INTER.VDW>
3.57386

>  <SCORE.INTER.norm>
0.642504

>  <SCORE.INTRA>
-0.916319

>  <SCORE.INTRA.DIHEDRAL>
0.0913532

>  <SCORE.INTRA.DIHEDRAL.0>
2.32994

>  <SCORE.INTRA.POLAR>
0

>  <SCORE.INTRA.POLAR.0>
0

>  <SCORE.INTRA.REPUL>
0

>  <SCORE.INTRA.REPUL.0>
0

>  <SCORE.INTRA.SOLV>
1.71604

>  <SCORE.INTRA.SOLV.lig_0>
-117.703

>  <SCORE.INTRA.VDW>
-1.82002

>  <SCORE.INTRA.VDW.0>
-1.59997

>  <SCORE.INTRA.norm>
-0.0208254

>  <SCORE.RESTR>
11.3235

>  <SCORE.RESTR.CAVITY>
11.3235

>  <SCORE.RESTR.norm>
0.257352

>  <SCORE.SYSTEM>
0

>  <SCORE.SYSTEM.CONST>
0

>  <SCORE.SYSTEM.DIHEDRAL>
0

>  <SCORE.SYSTEM.SOLV>
0

>  <SCORE.SYSTEM.norm>
0

>  <SCORE.heavy>
44

>  <SCORE.norm>
0.879031

>  <RMSD>
25.584

$$$$
ligand
 OpenBabel11021811513D
libRbt.so/2013.1/901 2013/11/27
 44 50  0  0  0  0  0  0  0  0999 V2000
   11.7282   27.0838   -1.8647 P   0  0  2  0  0  0  0  0  0  0  0  0
   14.4230   22.6781   -0.2731 P   0  0  1  0  0  0  0  0  0  0  0  0
   10.6646   27.8279   -1.0611 O   0  5  0  0  0  0  0  0  0  0  0  0
   14.4492   21.7805   -1.4862 O   0  5  0  0  0  0  0  0  0  0  0  0
   11.4282   27.3642   -3.3176 O   0  0  0  0  0  0  0  0  0  0  0  0
   15.4327   22.1044    0.7468 O   0  0  0  0  0  0  0  0  0  0  0  0
   11.0757   25.3462   -0.1337 C   0  0  0  0  0  0  0  0  0  0  0  0
   14.5865   25.2194    0.1552 C   0  0  0  0  0  0  0  0  0  0  0  0
   11.5640   25.5829   -1.4611 O   0  0  0  0  0  0  0  0  0  0  0  0
   14.6875   24.1886   -0.8675 O   0  0  0  0  0  0  0  0  0  0  0  0
   10.9192   23.8489    0.1092 C   0  0  1  0  0  0  0  0  0  0  0  0
   14.9997   26.5711   -0.5402 C   0  0  1  0  0  0  0  0  0  0  0  0
    9.7616   23.4840   -0.3482 O   0  0  0  0  0  0  0  0  0  0  0  0
   16.1124   26.3295   -1.1037 O   0  0  0  0  0  0  0  0  0  0  0  0
   11.9528   23.0164   -0.6139 C   0  0  1  0  0  0  0  0  0  0  0  0
   14.0775   26.8807   -1.7363 C   0  0  1  0  0  0  0  0  0  0  0  0
   12.9039   22.6950    0.3028 O   0  0  0  0  0  0  0  0  0  0  0  0
   13.1573   27.7993   -1.4182 O   0  0  0  0  0  0  0  0  0  0  0  0
   11.1575   21.7353   -1.0457 C   0  0  1  0  0  0  0  0  0  0  0  0
   14.9838   27.3729   -2.8877 C   0  0  1  0  0  0  0  0  0  0  0  0
   11.4649   20.6084   -0.1242 O   0  0  0  0  0  0  0  0  0  0  0  0
   14.9103   28.8643   -3.0124 O   0  0  0  0  0  0  0  0  0  0  0  0
    9.9015   22.0451   -0.9989 C   0  0  2  0  0  0  0  0  0  0  0  0
   16.1764   27.0266   -2.5430 C   0  0  2  0  0  0  0  0  0  0  0  0
    5.9124   22.4660   -4.5670 N   0  0  0  0  0  0  0  0  0  0  0  0
    5.7964   22.6427   -3.2207 C   0  0  0  0  0  0  0  0  0  0  0  0
    6.8813   22.5137   -2.3913 N   0  0  0  0  0  0  0  0  0  0  0  0
    8.0970   22.1992   -2.9330 C   0  0  0  0  0  0  0  0  0  0  0  0
    8.2253   22.0153   -4.2544 C   0  0  0  0  0  0  0  0  0  0  0  0
    7.1197   22.1576   -5.0911 C   0  0  0  0  0  0  0  0  0  0  0  0
    7.1205   21.9921   -6.4903 N   0  0  0  0  0  0  0  0  0  0  0  0
    9.5187   21.7238   -4.5078 N   0  0  0  0  0  0  0  0  0  0  0  0
   10.1884   21.7230   -3.3201 C   0  0  0  0  0  0  0  0  0  0  0  0
    9.3179   22.0328   -2.3504 N   0  0  0  0  0  0  0  0  0  0  0  0
   16.2971   22.2370   -4.5839 N   0  0  0  0  0  0  0  0  0  0  0  0
   15.4575   22.6887   -3.6158 C   0  0  0  0  0  0  0  0  0  0  0  0
   15.5607   23.9804   -3.1818 N   0  0  0  0  0  0  0  0  0  0  0  0
   16.4942   24.8112   -3.7192 C   0  0  0  0  0  0  0  0  0  0  0  0
   17.3277   24.3712   -4.6835 C   0  0  0  0  0  0  0  0  0  0  0  0
   17.2183   23.0530   -5.1167 C   0  0  0  0  0  0  0  0  0  0  0  0
   18.0078   22.3720   -6.1107 N   0  0  0  0  0  0  0  0  0  0  0  0
   18.1388   25.4028   -5.0195 N   0  0  0  0  0  0  0  0  0  0  0  0
   17.7951   26.4818   -4.2595 C   0  0  0  0  0  0  0  0  0  0  0  0
   16.7753   26.1066   -3.4611 N   0  0  0  0  0  0  0  0  0  0  0  0
  1  3  1  1  0  0  0
  1  5  2  0  0  0  0
  1  9  1  0  0  0  0
  1 18  1  0  0  0  0
  2  4  1  6  0  0  0
  2  6  2  0  0  0  0
  2 10  1  0  0  0  0
  2 17  1  0  0  0  0
  7  9  1  0  0  0  0
  8 10  1  0  0  0  0
 11  7  1  6  0  0  0
 11 13  1  0  0  0  0
 11 15  1  0  0  0  0
 12  8  1  6  0  0  0
 12 14  1  0  0  0  0
 12 16  1  0  0  0  0
 13 23  1  0  0  0  0
 14 24  1  0  0  0  0
 15 17  1  1  0  0  0
 15 19  1  0  0  0  0
 16 18  1  1  0  0  0
 16 20  1  0  0  0  0
 19 21  1  1  0  0  0
 19 23  1  0  0  0  0
 20 22  1  1  0  0  0
 20 24  1  0  0  0  0
 23 34  1  6  0  0  0
 24 44  1  6  0  0  0
 25 26  2  0  0  0  0
 25 30  1  0  0  0  0
 26 27  1  0  0  0  0
 27 28  2  0  0  0  0
 28 29  1  0  0  0  0
 28 34  1  0  0  0  0
 29 30  2  0  0  0  0
 29 32  1  0  0  0  0
 30 31  1  0  0  0  0
 32 33  2  0  0  0  0
 33 34  1  0  0  0  0
 35 36  2  0  0  0  0
 35 40  1  0  0  0  0
 36 37  1  0  0  0  0
 37 38  2  0  0  0  0
 38 39  1  0  0  0  0
 38 44  1  0  0  0  0
 39 40  2  0  0  0  0
 39 42  1  0  0  0  0
 40 41  1  0  0  0  0
 42 43  2  0  0  0  0
 43 44  1  0  0  0  0
M  CHG  2   3  -1   4  -1
M  END
>  <CHROM.1>
-63.79889839,50.40658427,12.75967966,24.18932357,-2.30601801,2.82586782,-0.12809038
-2.75714002

>  <Name>
ligand

>  <RI>
0

>  <Rbt.Current_Directory>
/home/itssahil/PROJECTS/Mol_Feturizer/New_Systems/rnas/4QLM

>  <Rbt.Executable>
rbdock ($Id: //depot/dev/client3/rdock/2013.1/src/exe/rbdock.cxx#4 $)

>  <Rbt.Library>
libRbt.so (2013.1, Build901 2013/11/27)

>  <Rbt.Parameter_File>
/export/apps/rDock/src/rDock_2013.1_src/data/scripts/dock_solv.prm

>  <Rbt.Receptor>
prm/blind_docking_60.prm

>  <SCORE>
23.61

>  <SCORE.INTER>
10.8514

>  <SCORE.INTER.CONST>
1

>  <SCORE.INTER.POLAR>
0

>  <SCORE.INTER.ROT>
2

>  <SCORE.INTER.SOLV>
41.6205

>  <SCORE.INTER.VDW>
-11.5725

>  <SCORE.INTER.norm>
0.246623

>  <SCORE.INTRA>
5.562

>  <SCORE.INTRA.DIHEDRAL>
0.0763957

>  <SCORE.INTRA.DIHEDRAL.0>
2.32994

>  <SCORE.INTRA.POLAR>
0

>  <SCORE.INTRA.POLAR.0>
0

>  <SCORE.INTRA.REPUL>
0

>  <SCORE.INTRA.REPUL.0>
0

>  <SCORE.INTRA.SOLV>
1.36037

>  <SCORE.INTRA.SOLV.lig_0>
-117.703

>  <SCORE.INTRA.VDW>
4.84362

>  <SCORE.INTRA.VDW.0>
-1.59997

>  <SCORE.INTRA.norm>
0.126409

>  <SCORE.RESTR>
7.19661

>  <SCORE.RESTR.CAVITY>
7.19661

>  <SCORE.RESTR.norm>
0.163559

>  <SCORE.SYSTEM>
0

>  <SCORE.SYSTEM.CONST>
0

>  <SCORE.SYSTEM.DIHEDRAL>
0

>  <SCORE.SYSTEM.SOLV>
0

>  <SCORE.SYSTEM.norm>
0

>  <SCORE.heavy>
44

>  <SCORE.norm>
0.536592

>  <RMSD>
25.753

$$$$
ligand
 OpenBabel11021811513D
libRbt.so/2013.1/901 2013/11/27
 44 50  0  0  0  0  0  0  0  0999 V2000
    9.5705   21.6453    1.5091 P   0  0  2  0  0  0  0  0  0  0  0  0
   12.7915   25.7075   -0.0174 P   0  0  1  0  0  0  0  0  0  0  0  0
   10.0025   20.2059    1.7774 O   0  5  0  0  0  0  0  0  0  0  0  0
   12.0159   26.4358   -1.0879 O   0  5  0  0  0  0  0  0  0  0  0  0
    8.1145   21.5794    1.1151 O   0  0  0  0  0  0  0  0  0  0  0  0
   13.9767   26.6123    0.3895 O   0  0  0  0  0  0  0  0  0  0  0  0
   11.8195   21.5515    0.3366 C   0  0  0  0  0  0  0  0  0  0  0  0
   12.2170   24.5166    2.2008 C   0  0  0  0  0  0  0  0  0  0  0  0
   10.5146   22.1452    0.3682 O   0  0  0  0  0  0  0  0  0  0  0  0
   11.6700   25.3303    1.1249 O   0  0  0  0  0  0  0  0  0  0  0  0
   12.6139   22.0919   -0.8476 C   0  0  1  0  0  0  0  0  0  0  0  0
   11.0665   24.3647    3.2661 C   0  0  1  0  0  0  0  0  0  0  0  0
   12.3044   21.3923   -1.8950 O   0  0  0  0  0  0  0  0  0  0  0  0
   10.6648   25.5483    3.4939 O   0  0  0  0  0  0  0  0  0  0  0  0
   12.2894   23.5310   -1.1763 C   0  0  1  0  0  0  0  0  0  0  0  0
    9.8218   23.7014    2.6433 C   0  0  1  0  0  0  0  0  0  0  0  0
   13.2813   24.2867   -0.6347 O   0  0  0  0  0  0  0  0  0  0  0  0
    9.7421   22.4066    2.9735 O   0  0  0  0  0  0  0  0  0  0  0  0
   12.3631   23.5768   -2.7423 C   0  0  1  0  0  0  0  0  0  0  0  0
    8.5913   24.4853    3.1538 C   0  0  1  0  0  0  0  0  0  0  0  0
   13.6530   24.1783   -3.1758 O   0  0  0  0  0  0  0  0  0  0  0  0
    7.9029   23.7269    4.2475 O   0  0  0  0  0  0  0  0  0  0  0  0
   12.2582   22.3542   -3.1545 C   0  0  2  0  0  0  0  0  0  0  0  0
    9.0702   25.5847    3.6259 C   0  0  2  0  0  0  0  0  0  0  0  0
    6.9304   21.9158   -3.6485 N   0  0  0  0  0  0  0  0  0  0  0  0
    7.6041   22.1513   -2.4876 C   0  0  0  0  0  0  0  0  0  0  0  0
    8.9723   22.2478   -2.4674 N   0  0  0  0  0  0  0  0  0  0  0  0
    9.6652   22.1011   -3.6373 C   0  0  0  0  0  0  0  0  0  0  0  0
    9.0170   21.8620   -4.7858 C   0  0  0  0  0  0  0  0  0  0  0  0
    7.6259   21.7748   -4.7991 C   0  0  0  0  0  0  0  0  0  0  0  0
    6.8280   21.5287   -5.9339 N   0  0  0  0  0  0  0  0  0  0  0  0
    9.9376   21.7676   -5.7686 N   0  0  0  0  0  0  0  0  0  0  0  0
   11.1680   21.9450   -5.2083 C   0  0  0  0  0  0  0  0  0  0  0  0
   11.0013   22.1679   -3.8981 N   0  0  0  0  0  0  0  0  0  0  0  0
    6.1329   29.8847    3.6814 N   0  0  0  0  0  0  0  0  0  0  0  0
    6.2812   28.9867    4.6903 C   0  0  0  0  0  0  0  0  0  0  0  0
    7.0891   27.8991    4.5124 N   0  0  0  0  0  0  0  0  0  0  0  0
    7.7458   27.7187    3.3348 C   0  0  0  0  0  0  0  0  0  0  0  0
    7.6069   28.6080    2.3308 C   0  0  0  0  0  0  0  0  0  0  0  0
    6.7789   29.7108    2.5192 C   0  0  0  0  0  0  0  0  0  0  0  0
    6.4718   30.7655    1.5873 N   0  0  0  0  0  0  0  0  0  0  0  0
    8.3656   28.1728    1.2964 N   0  0  0  0  0  0  0  0  0  0  0  0
    8.9763   27.0129    1.6727 C   0  0  0  0  0  0  0  0  0  0  0  0
    8.5890   26.7423    2.9356 N   0  0  0  0  0  0  0  0  0  0  0  0
  1  3  1  1  0  0  0
  1  5  2  0  0  0  0
  1  9  1  0  0  0  0
  1 18  1  0  0  0  0
  2  4  1  6  0  0  0
  2  6  2  0  0  0  0
  2 10  1  0  0  0  0
  2 17  1  0  0  0  0
  7  9  1  0  0  0  0
  8 10  1  0  0  0  0
 11  7  1  1  0  0  0
 11 13  1  0  0  0  0
 11 15  1  0  0  0  0
 12  8  1  6  0  0  0
 12 14  1  0  0  0  0
 12 16  1  0  0  0  0
 13 23  1  0  0  0  0
 14 24  1  0  0  0  0
 15 17  1  1  0  0  0
 15 19  1  0  0  0  0
 16 18  1  1  0  0  0
 16 20  1  0  0  0  0
 19 21  1  1  0  0  0
 19 23  1  0  0  0  0
 20 22  1  1  0  0  0
 20 24  1  0  0  0  0
 23 34  1  1  0  0  0
 24 44  1  6  0  0  0
 25 26  2  0  0  0  0
 25 30  1  0  0  0  0
 26 27  1  0  0  0  0
 27 28  2  0  0  0  0
 28 29  1  0  0  0  0
 28 34  1  0  0  0  0
 29 30  2  0  0  0  0
 29 32  1  0  0  0  0
 30 31  1  0  0  0  0
 32 33  2  0  0  0  0
 33 34  1  0  0  0  0
 35 36  2  0  0  0  0
 35 40  1  0  0  0  0
 36 37  1  0  0  0  0
 37 38  2  0  0  0  0
 38 39  1  0  0  0  0
 38 44  1  0  0  0  0
 39 40  2  0  0  0  0
 39 42  1  0  0  0  0
 40 41  1  0  0  0  0
 42 43  2  0  0  0  0
 43 44  1  0  0  0  0
M  CHG  2   3  -1   4  -1
M  END
>  <CHROM.1>
48.39338830,-129.55399443,9.95379200,24.28207654,0.15256314,-1.28250501,-0.25790128
0.93977132

>  <Name>
ligand

>  <RI>
0

>  <Rbt.Current_Directory>
/home/itssahil/PROJECTS/Mol_Feturizer/New_Systems/rnas/4QLM

>  <Rbt.Executable>
rbdock ($Id: //depot/dev/client3/rdock/2013.1/src/exe/rbdock.cxx#4 $)

>  <Rbt.Library>
libRbt.so (2013.1, Build901 2013/11/27)

>  <Rbt.Parameter_File>
/export/apps/rDock/src/rDock_2013.1_src/data/scripts/dock_solv.prm

>  <Rbt.Receptor>
prm/blind_docking_60.prm

>  <SCORE>
27.3295

>  <SCORE.INTER>
20.4127

>  <SCORE.INTER.CONST>
1

>  <SCORE.INTER.POLAR>
0

>  <SCORE.INTER.ROT>
2

>  <SCORE.INTER.SOLV>
28.0045

>  <SCORE.INTER.VDW>
-0.659712

>  <SCORE.INTER.norm>
0.463924

>  <SCORE.INTRA>
-0.944365

>  <SCORE.INTRA.DIHEDRAL>
0.127392

>  <SCORE.INTRA.DIHEDRAL.0>
2.32994

>  <SCORE.INTRA.POLAR>
0

>  <SCORE.INTRA.POLAR.0>
0

>  <SCORE.INTRA.REPUL>
0

>  <SCORE.INTRA.REPUL.0>
0

>  <SCORE.INTRA.SOLV>
0.285034

>  <SCORE.INTRA.SOLV.lig_0>
-117.703

>  <SCORE.INTRA.VDW>
-1.15058

>  <SCORE.INTRA.VDW.0>
-1.59997

>  <SCORE.INTRA.norm>
-0.0214628

>  <SCORE.RESTR>
7.86123

>  <SCORE.RESTR.CAVITY>
7.86123

>  <SCORE.RESTR.norm>
0.178664

>  <SCORE.SYSTEM>
0

>  <SCORE.SYSTEM.CONST>
0

>  <SCORE.SYSTEM.DIHEDRAL>
0

>  <SCORE.SYSTEM.SOLV>
0

>  <SCORE.SYSTEM.norm>
0

>  <SCORE.heavy>
44

>  <SCORE.norm>
0.621126

>  <RMSD>
25.771

$$$$
ligand
 OpenBabel11021811513D
libRbt.so/2013.1/901 2013/11/27
 44 50  0  0  0  0  0  0  0  0999 V2000
    9.5714   21.6481    1.4104 P   0  0  2  0  0  0  0  0  0  0  0  0
   13.0764   25.4236   -0.2224 P   0  0  1  0  0  0  0  0  0  0  0  0
    9.8879   20.1770    1.6679 O   0  5  0  0  0  0  0  0  0  0  0  0
   12.3326   26.2160   -1.2697 O   0  5  0  0  0  0  0  0  0  0  0  0
    8.1035   21.7063    1.0618 O   0  0  0  0  0  0  0  0  0  0  0  0
   14.3461   26.2243    0.1460 O   0  0  0  0  0  0  0  0  0  0  0  0
   11.7668   21.3648    0.1691 C   0  0  0  0  0  0  0  0  0  0  0  0
   12.4720   24.2840    2.0147 C   0  0  0  0  0  0  0  0  0  0  0  0
   10.5186   22.0670    0.2400 O   0  0  0  0  0  0  0  0  0  0  0  0
   11.9629   25.1420    0.9548 O   0  0  0  0  0  0  0  0  0  0  0  0
   12.5672   21.8368   -1.0401 C   0  0  1  0  0  0  0  0  0  0  0  0
   11.3463   24.2294    3.1153 C   0  0  1  0  0  0  0  0  0  0  0  0
   12.1671   21.1669   -2.0762 O   0  0  0  0  0  0  0  0  0  0  0  0
   11.0537   25.4425    3.3533 O   0  0  0  0  0  0  0  0  0  0  0  0
   12.3559   23.2985   -1.3612 C   0  0  1  0  0  0  0  0  0  0  0  0
   10.0312   23.6745    2.5326 C   0  0  1  0  0  0  0  0  0  0  0  0
   13.4246   23.9670   -0.8519 O   0  0  0  0  0  0  0  0  0  0  0  0
    9.8522   22.3909    2.8675 O   0  0  0  0  0  0  0  0  0  0  0  0
   12.3846   23.3392   -2.9289 C   0  0  1  0  0  0  0  0  0  0  0  0
    8.8880   24.5595    3.0794 C   0  0  1  0  0  0  0  0  0  0  0  0
   13.7068   23.8294   -3.4032 O   0  0  0  0  0  0  0  0  0  0  0  0
    8.1720   23.8614    4.1954 O   0  0  0  0  0  0  0  0  0  0  0  0
   12.1636   22.1302   -3.3354 C   0  0  2  0  0  0  0  0  0  0  0  0
    9.4728   25.6140    3.5345 C   0  0  2  0  0  0  0  0  0  0  0  0
    6.8081   21.9190   -3.6437 N   0  0  0  0  0  0  0  0  0  0  0  0
    7.5343   22.0305   -2.4959 C   0  0  0  0  0  0  0  0  0  0  0  0
    8.9048   22.0779   -2.5244 N   0  0  0  0  0  0  0  0  0  0  0  0
    9.5463   22.0088   -3.7302 C   0  0  0  0  0  0  0  0  0  0  0  0
    8.8461   21.8917   -4.8669 C   0  0  0  0  0  0  0  0  0  0  0  0
    7.4533   21.8538   -4.8299 C   0  0  0  0  0  0  0  0  0  0  0  0
    6.6037   21.7337   -5.9474 N   0  0  0  0  0  0  0  0  0  0  0  0
    9.7241   21.8507   -5.8914 N   0  0  0  0  0  0  0  0  0  0  0  0
   10.9809   21.9369   -5.3696 C   0  0  0  0  0  0  0  0  0  0  0  0
   10.8731   22.0519   -4.0394 N   0  0  0  0  0  0  0  0  0  0  0  0
    6.4135   29.8264    3.4038 N   0  0  0  0  0  0  0  0  0  0  0  0
    6.4261   28.8584    4.3573 C   0  0  0  0  0  0  0  0  0  0  0  0
    7.2909   27.8069    4.2400 N   0  0  0  0  0  0  0  0  0  0  0  0
    8.1383   27.7319    3.1785 C   0  0  0  0  0  0  0  0  0  0  0  0
    8.1346   28.6911    2.2309 C   0  0  0  0  0  0  0  0  0  0  0  0
    7.2478   29.7565    2.3562 C   0  0  0  0  0  0  0  0  0  0  0  0
    7.0603   30.8711    1.4631 N   0  0  0  0  0  0  0  0  0  0  0  0
    9.0682   28.3536    1.3092 N   0  0  0  0  0  0  0  0  0  0  0  0
    9.6500   27.1834    1.6990 C   0  0  0  0  0  0  0  0  0  0  0  0
    9.0703   26.8088    2.8573 N   0  0  0  0  0  0  0  0  0  0  0  0
  1  3  1  1  0  0  0
  1  5  2  0  0  0  0
  1  9  1  0  0  0  0
  1 18  1  0  0  0  0
  2  4  1  6  0  0  0
  2  6  2  0  0  0  0
  2 10  1  0  0  0  0
  2 17  1  0  0  0  0
  7  9  1  0  0  0  0
  8 10  1  0  0  0  0
 11  7  1  1  0  0  0
 11 13  1  0  0  0  0
 11 15  1  0  0  0  0
 12  8  1  6  0  0  0
 12 14  1  0  0  0  0
 12 16  1  0  0  0  0
 13 23  1  0  0  0  0
 14 24  1  0  0  0  0
 15 17  1  1  0  0  0
 15 19  1  0  0  0  0
 16 18  1  1  0  0  0
 16 20  1  0  0  0  0
 19 21  1  1  0  0  0
 19 23  1  0  0  0  0
 20 22  1  1  0  0  0
 20 24  1  0  0  0  0
 23 34  1  1  0  0  0
 24 44  1  6  0  0  0
 25 26  2  0  0  0  0
 25 30  1  0  0  0  0
 26 27  1  0  0  0  0
 27 28  2  0  0  0  0
 28 29  1  0  0  0  0
 28 34  1  0  0  0  0
 29 30  2  0  0  0  0
 29 32  1  0  0  0  0
 30 31  1  0  0  0  0
 32 33  2  0  0  0  0
 33 34  1  0  0  0  0
 35 36  2  0  0  0  0
 35 40  1  0  0  0  0
 36 37  1  0  0  0  0
 37 38  2  0  0  0  0
 38 39  1  0  0  0  0
 38 44  1  0  0  0  0
 39 40  2  0  0  0  0
 39 42  1  0  0  0  0
 40 41  1  0  0  0  0
 42 43  2  0  0  0  0
 43 44  1  0  0  0  0
M  CHG  2   3  -1   4  -1
M  END
>  <CHROM.1>
42.70652391,-143.31878523,10.09661309,24.20402592,0.01826095,-1.33793673
-0.24803702,0.91470036

>  <Name>
ligand

>  <RI>
0

>  <Rbt.Current_Directory>
/home/itssahil/PROJECTS/Mol_Feturizer/New_Systems/rnas/4QLM

>  <Rbt.Executable>
rbdock ($Id: //depot/dev/client3/rdock/2013.1/src/exe/rbdock.cxx#4 $)

>  <Rbt.Library>
libRbt.so (2013.1, Build901 2013/11/27)

>  <Rbt.Parameter_File>
/export/apps/rDock/src/rDock_2013.1_src/data/scripts/dock_solv.prm

>  <Rbt.Receptor>
prm/blind_docking_60.prm

>  <SCORE>
27.827

>  <SCORE.INTER>
20.849

>  <SCORE.INTER.CONST>
1

>  <SCORE.INTER.POLAR>
0

>  <SCORE.INTER.ROT>
2

>  <SCORE.INTER.SOLV>
26.7847

>  <SCORE.INTER.VDW>
0.0377386

>  <SCORE.INTER.norm>
0.47384

>  <SCORE.INTRA>
-1.01106

>  <SCORE.INTRA.DIHEDRAL>
0.156684

>  <SCORE.INTRA.DIHEDRAL.0>
2.32994

>  <SCORE.INTRA.POLAR>
0

>  <SCORE.INTRA.POLAR.0>
0

>  <SCORE.INTRA.REPUL>
0

>  <SCORE.INTRA.REPUL.0>
0

>  <SCORE.INTRA.SOLV>
0.344542

>  <SCORE.INTRA.SOLV.lig_0>
-117.703

>  <SCORE.INTRA.VDW>
-1.26167

>  <SCORE.INTRA.VDW.0>
-1.59997

>  <SCORE.INTRA.norm>
-0.0229786

>  <SCORE.RESTR>
7.98903

>  <SCORE.RESTR.CAVITY>
7.98903

>  <SCORE.RESTR.norm>
0.181569

>  <SCORE.SYSTEM>
0

>  <SCORE.SYSTEM.CONST>
0

>  <SCORE.SYSTEM.DIHEDRAL>
0

>  <SCORE.SYSTEM.SOLV>
0

>  <SCORE.SYSTEM.norm>
0

>  <SCORE.heavy>
44

>  <SCORE.norm>
0.632431

>  <RMSD>
25.844

$$$$
ligand
 OpenBabel11021811513D
libRbt.so/2013.1/901 2013/11/27
 44 50  0  0  0  0  0  0  0  0999 V2000
   11.7151   27.0863   -1.8635 P   0  0  2  0  0  0  0  0  0  0  0  0
   14.4359   22.6829   -0.3102 P   0  0  1  0  0  0  0  0  0  0  0  0
   10.6496   27.8190   -1.0522 O   0  5  0  0  0  0  0  0  0  0  0  0
   14.4641   21.7944   -1.5299 O   0  5  0  0  0  0  0  0  0  0  0  0
   11.4105   27.3757   -3.3137 O   0  0  0  0  0  0  0  0  0  0  0  0
   15.4509   22.1069    0.7034 O   0  0  0  0  0  0  0  0  0  0  0  0
   11.0754   25.3327   -0.1439 C   0  0  0  0  0  0  0  0  0  0  0  0
   14.5874   25.2218    0.1365 C   0  0  0  0  0  0  0  0  0  0  0  0
   11.5596   25.5816   -1.4706 O   0  0  0  0  0  0  0  0  0  0  0  0
   14.6914   24.1991   -0.8940 O   0  0  0  0  0  0  0  0  0  0  0  0
   10.9271   23.8328    0.0883 C   0  0  1  0  0  0  0  0  0  0  0  0
   14.9922   26.5807   -0.5498 C   0  0  1  0  0  0  0  0  0  0  0  0
    9.7704   23.4654   -0.3692 O   0  0  0  0  0  0  0  0  0  0  0  0
   16.1049   26.3489   -1.1175 O   0  0  0  0  0  0  0  0  0  0  0  0
   11.9634   23.0110   -0.6431 C   0  0  1  0  0  0  0  0  0  0  0  0
   14.0658   26.8943   -1.7417 C   0  0  1  0  0  0  0  0  0  0  0  0
   12.9181   22.6878    0.2692 O   0  0  0  0  0  0  0  0  0  0  0  0
   13.1415   27.8058   -1.4148 O   0  0  0  0  0  0  0  0  0  0  0  0
   11.1737   21.7290   -1.0826 C   0  0  1  0  0  0  0  0  0  0  0  0
   14.9670   27.3995   -2.8914 C   0  0  1  0  0  0  0  0  0  0  0  0
   11.4888   20.5969   -0.1701 O   0  0  0  0  0  0  0  0  0  0  0  0
   14.8856   28.8914   -3.0049 O   0  0  0  0  0  0  0  0  0  0  0  0
    9.9162   22.0320   -1.0308 C   0  0  2  0  0  0  0  0  0  0  0  0
   16.1621   27.0569   -2.5517 C   0  0  2  0  0  0  0  0  0  0  0  0
    5.8819   22.1577   -4.5706 N   0  0  0  0  0  0  0  0  0  0  0  0
    5.7536   22.2379   -3.2162 C   0  0  0  0  0  0  0  0  0  0  0  0
    6.8516   22.1977   -2.3952 N   0  0  0  0  0  0  0  0  0  0  0  0
    8.0936   22.0720   -2.9537 C   0  0  0  0  0  0  0  0  0  0  0  0
    8.2352   21.9847   -4.2836 C   0  0  0  0  0  0  0  0  0  0  0  0
    7.1149   22.0360   -5.1113 C   0  0  0  0  0  0  0  0  0  0  0  0
    7.1271   21.9555   -6.5178 N   0  0  0  0  0  0  0  0  0  0  0  0
    9.5533   21.8745   -4.5530 N   0  0  0  0  0  0  0  0  0  0  0  0
   10.2258   21.8876   -3.3669 C   0  0  0  0  0  0  0  0  0  0  0  0
    9.3297   22.0266   -2.3811 N   0  0  0  0  0  0  0  0  0  0  0  0
   18.1140   22.3205   -3.4883 N   0  0  0  0  0  0  0  0  0  0  0  0
   17.6110   22.7758   -2.3110 C   0  0  0  0  0  0  0  0  0  0  0  0
   17.1409   24.0562   -2.2282 N   0  0  0  0  0  0  0  0  0  0  0  0
   17.1708   24.8690   -3.3186 C   0  0  0  0  0  0  0  0  0  0  0  0
   17.6644   24.4225   -4.4913 C   0  0  0  0  0  0  0  0  0  0  0  0
   18.1446   23.1183   -4.5658 C   0  0  0  0  0  0  0  0  0  0  0  0
   18.7270   22.4452   -5.6984 N   0  0  0  0  0  0  0  0  0  0  0  0
   17.5695   25.4376   -5.3834 N   0  0  0  0  0  0  0  0  0  0  0  0
   17.0093   26.5094   -4.7531 C   0  0  0  0  0  0  0  0  0  0  0  0
   16.7637   26.1468   -3.4779 N   0  0  0  0  0  0  0  0  0  0  0  0
  1  3  1  1  0  0  0
  1  5  2  0  0  0  0
  1  9  1  0  0  0  0
  1 18  1  0  0  0  0
  2  4  1  6  0  0  0
  2  6  2  0  0  0  0
  2 10  1  0  0  0  0
  2 17  1  0  0  0  0
  7  9  1  0  0  0  0
  8 10  1  0  0  0  0
 11  7  1  6  0  0  0
 11 13  1  0  0  0  0
 11 15  1  0  0  0  0
 12  8  1  6  0  0  0
 12 14  1  0  0  0  0
 12 16  1  0  0  0  0
 13 23  1  0  0  0  0
 14 24  1  0  0  0  0
 15 17  1  1  0  0  0
 15 19  1  0  0  0  0
 16 18  1  1  0  0  0
 16 20  1  0  0  0  0
 19 21  1  1  0  0  0
 19 23  1  0  0  0  0
 20 22  1  1  0  0  0
 20 24  1  0  0  0  0
 23 34  1  6  0  0  0
 24 44  1  6  0  0  0
 25 26  2  0  0  0  0
 25 30  1  0  0  0  0
 26 27  1  0  0  0  0
 27 28  2  0  0  0  0
 28 29  1  0  0  0  0
 28 34  1  0  0  0  0
 29 30  2  0  0  0  0
 29 32  1  0  0  0  0
 30 31  1  0  0  0  0
 32 33  2  0  0  0  0
 33 34  1  0  0  0  0
 35 36  2  0  0  0  0
 35 40  1  0  0  0  0
 36 37  1  0  0  0  0
 37 38  2  0  0  0  0
 38 39  1  0  0  0  0
 38 44  1  0  0  0  0
 39 40  2  0  0  0  0
 39 42  1  0  0  0  0
 40 41  1  0  0  0  0
 42 43  2  0  0  0  0
 43 44  1  0  0  0  0
M  CHG  2   3  -1   4  -1
M  END
>  <CHROM.1>
-71.38176306,4.13033496,12.89748473,24.18249027,-2.23966911,2.84215075,-0.02977658
-2.99231510

>  <Name>
ligand

>  <RI>
0

>  <Rbt.Current_Directory>
/home/itssahil/PROJECTS/Mol_Feturizer/New_Systems/rnas/4QLM

>  <Rbt.Executable>
rbdock ($Id: //depot/dev/client3/rdock/2013.1/src/exe/rbdock.cxx#4 $)

>  <Rbt.Library>
libRbt.so (2013.1, Build901 2013/11/27)

>  <Rbt.Parameter_File>
/export/apps/rDock/src/rDock_2013.1_src/data/scripts/dock_solv.prm

>  <Rbt.Receptor>
prm/blind_docking_60.prm

>  <SCORE>
17.6487

>  <SCORE.INTER>
6.09541

>  <SCORE.INTER.CONST>
1

>  <SCORE.INTER.POLAR>
0

>  <SCORE.INTER.ROT>
2

>  <SCORE.INTER.SOLV>
38.1096

>  <SCORE.INTER.VDW>
-13.5729

>  <SCORE.INTER.norm>
0.138532

>  <SCORE.INTRA>
4.2597

>  <SCORE.INTRA.DIHEDRAL>
0.118786

>  <SCORE.INTRA.DIHEDRAL.0>
2.32994

>  <SCORE.INTRA.POLAR>
0

>  <SCORE.INTRA.POLAR.0>
0

>  <SCORE.INTRA.REPUL>
0

>  <SCORE.INTRA.REPUL.0>
0

>  <SCORE.INTRA.SOLV>
0.939907

>  <SCORE.INTRA.SOLV.lig_0>
-117.703

>  <SCORE.INTRA.VDW>
3.73036

>  <SCORE.INTRA.VDW.0>
-1.59997

>  <SCORE.INTRA.norm>
0.0968114

>  <SCORE.RESTR>
7.29362

>  <SCORE.RESTR.CAVITY>
7.29362

>  <SCORE.RESTR.norm>
0.165764

>  <SCORE.SYSTEM>
0

>  <SCORE.SYSTEM.CONST>
0

>  <SCORE.SYSTEM.DIHEDRAL>
0

>  <SCORE.SYSTEM.SOLV>
0

>  <SCORE.SYSTEM.norm>
0

>  <SCORE.heavy>
44

>  <SCORE.norm>
0.401108

>  <RMSD>
25.912

$$$$
ligand
 OpenBabel11021811513D
libRbt.so/2013.1/901 2013/11/27
 44 50  0  0  0  0  0  0  0  0999 V2000
   10.6596   22.3598    1.3569 P   0  0  2  0  0  0  0  0  0  0  0  0
   13.9728   26.1373   -0.6327 P   0  0  1  0  0  0  0  0  0  0  0  0
   11.0531   20.9432    1.7679 O   0  5  0  0  0  0  0  0  0  0  0  0
   13.2005   26.7744   -1.7621 O   0  5  0  0  0  0  0  0  0  0  0  0
    9.1955   22.2993    0.9932 O   0  0  0  0  0  0  0  0  0  0  0  0
   15.1916   27.0416   -0.3399 O   0  0  0  0  0  0  0  0  0  0  0  0
   12.8835   22.0734    0.1680 C   0  0  0  0  0  0  0  0  0  0  0  0
   13.4026   25.2024    1.7059 C   0  0  0  0  0  0  0  0  0  0  0  0
   11.5977   22.7082    0.1564 O   0  0  0  0  0  0  0  0  0  0  0  0
   12.8611   25.9166    0.5590 O   0  0  0  0  0  0  0  0  0  0  0  0
   13.6725   22.4623   -1.0777 C   0  0  1  0  0  0  0  0  0  0  0  0
   12.2672   25.1986    2.7980 C   0  0  1  0  0  0  0  0  0  0  0  0
   13.3236   21.6678   -2.0417 O   0  0  0  0  0  0  0  0  0  0  0  0
   11.9052   26.4115    2.9066 O   0  0  0  0  0  0  0  0  0  0  0  0
   13.3854   23.8690   -1.5503 C   0  0  1  0  0  0  0  0  0  0  0  0
   10.9924   24.5137    2.2662 C   0  0  1  0  0  0  0  0  0  0  0  0
   14.4089   24.6452   -1.1051 O   0  0  0  0  0  0  0  0  0  0  0  0
   10.8799   23.2635    2.7311 O   0  0  0  0  0  0  0  0  0  0  0  0
   13.4325   23.7492   -3.1135 C   0  0  1  0  0  0  0  0  0  0  0  0
    9.7951   25.3849    2.7097 C   0  0  1  0  0  0  0  0  0  0  0  0
   14.7319   24.2613   -3.6262 O   0  0  0  0  0  0  0  0  0  0  0  0
    9.1039   24.7666    3.8867 O   0  0  0  0  0  0  0  0  0  0  0  0
   13.2838   22.4943   -3.3940 C   0  0  2  0  0  0  0  0  0  0  0  0
   10.3150   26.5118    3.0573 C   0  0  2  0  0  0  0  0  0  0  0  0
    7.9773   21.7383   -3.6955 N   0  0  0  0  0  0  0  0  0  0  0  0
    8.6865   21.9466   -2.5506 C   0  0  0  0  0  0  0  0  0  0  0  0
   10.0454   22.1312   -2.5806 N   0  0  0  0  0  0  0  0  0  0  0  0
   10.6927   22.1015   -3.7850 C   0  0  0  0  0  0  0  0  0  0  0  0
   10.0097   21.8905   -4.9187 C   0  0  0  0  0  0  0  0  0  0  0  0
    8.6278   21.7133   -4.8803 C   0  0  0  0  0  0  0  0  0  0  0  0
    7.7966   21.4847   -5.9947 N   0  0  0  0  0  0  0  0  0  0  0  0
   10.8892   21.9165   -5.9424 N   0  0  0  0  0  0  0  0  0  0  0  0
   12.1300   22.1399   -5.4231 C   0  0  0  0  0  0  0  0  0  0  0  0
   12.0089   22.2715   -4.0956 N   0  0  0  0  0  0  0  0  0  0  0  0
    9.9931   28.7515   -1.6332 N   0  0  0  0  0  0  0  0  0  0  0  0
   10.6118   27.5801   -1.3308 C   0  0  0  0  0  0  0  0  0  0  0  0
   10.6121   27.1306   -0.0404 N   0  0  0  0  0  0  0  0  0  0  0  0
    9.9922   27.8479    0.9352 C   0  0  0  0  0  0  0  0  0  0  0  0
    9.3724   29.0089    0.6417 C   0  0  0  0  0  0  0  0  0  0  0  0
    9.3803   29.4613   -0.6745 C   0  0  0  0  0  0  0  0  0  0  0  0
    8.8041   30.6698   -1.2061 N   0  0  0  0  0  0  0  0  0  0  0  0
    8.8549   29.4946    1.7955 N   0  0  0  0  0  0  0  0  0  0  0  0
    9.1557   28.6221    2.7995 C   0  0  0  0  0  0  0  0  0  0  0  0
    9.8564   27.6059    2.2568 N   0  0  0  0  0  0  0  0  0  0  0  0
  1  3  1  1  0  0  0
  1  5  2  0  0  0  0
  1  9  1  0  0  0  0
  1 18  1  0  0  0  0
  2  4  1  6  0  0  0
  2  6  2  0  0  0  0
  2 10  1  0  0  0  0
  2 17  1  0  0  0  0
  7  9  1  0  0  0  0
  8 10  1  0  0  0  0
 11  7  1  1  0  0  0
 11 13  1  0  0  0  0
 11 15  1  0  0  0  0
 12  8  1  6  0  0  0
 12 14  1  0  0  0  0
 12 16  1  0  0  0  0
 13 23  1  0  0  0  0
 14 24  1  0  0  0  0
 15 17  1  1  0  0  0
 15 19  1  0  0  0  0
 16 18  1  1  0  0  0
 16 20  1  0  0  0  0
 19 21  1  1  0  0  0
 19 23  1  0  0  0  0
 20 22  1  1  0  0  0
 20 24  1  0  0  0  0
 23 34  1  1  0  0  0
 24 44  1  6  0  0  0
 25 26  2  0  0  0  0
 25 30  1  0  0  0  0
 26 27  1  0  0  0  0
 27 28  2  0  0  0  0
 28 29  1  0  0  0  0
 28 34  1  0  0  0  0
 29 30  2  0  0  0  0
 29 32  1  0  0  0  0
 30 31  1  0  0  0  0
 32 33  2  0  0  0  0
 33 34  1  0  0  0  0
 35 36  2  0  0  0  0
 35 40  1  0  0  0  0
 36 37  1  0  0  0  0
 37 38  2  0  0  0  0
 38 39  1  0  0  0  0
 38 44  1  0  0  0  0
 39 40  2  0  0  0  0
 39 42  1  0  0  0  0
 40 41  1  0  0  0  0
 42 43  2  0  0  0  0
 43 44  1  0  0  0  0
M  CHG  2   3  -1   4  -1
M  END
>  <CHROM.1>
37.29045080,57.62920160,11.28989756,24.63365109,-0.60293763,-0.44049198,-1.48330149
1.91795616

>  <Name>
ligand

>  <RI>
0

>  <Rbt.Current_Directory>
/home/itssahil/PROJECTS/Mol_Feturizer/New_Systems/rnas/4QLM

>  <Rbt.Executable>
rbdock ($Id: //depot/dev/client3/rdock/2013.1/src/exe/rbdock.cxx#4 $)

>  <Rbt.Library>
libRbt.so (2013.1, Build901 2013/11/27)

>  <Rbt.Parameter_File>
/export/apps/rDock/src/rDock_2013.1_src/data/scripts/dock_solv.prm

>  <Rbt.Receptor>
prm/blind_docking_80.prm

>  <SCORE>
50.9069

>  <SCORE.INTER>
38.3971

>  <SCORE.INTER.CONST>
1

>  <SCORE.INTER.POLAR>
0

>  <SCORE.INTER.ROT>
2

>  <SCORE.INTER.SOLV>
37.4725

>  <SCORE.INTER.VDW>
8.17391

>  <SCORE.INTER.norm>
0.872661

>  <SCORE.INTRA>
-1.53768

>  <SCORE.INTRA.DIHEDRAL>
0.161964

>  <SCORE.INTRA.DIHEDRAL.0>
2.32994

>  <SCORE.INTRA.POLAR>
0

>  <SCORE.INTRA.POLAR.0>
0

>  <SCORE.INTRA.REPUL>
0

>  <SCORE.INTRA.REPUL.0>
0

>  <SCORE.INTRA.SOLV>
1.46033

>  <SCORE.INTRA.SOLV.lig_0>
-117.703

>  <SCORE.INTRA.VDW>
-2.34882

>  <SCORE.INTRA.VDW.0>
-1.59997

>  <SCORE.INTRA.norm>
-0.0349472

>  <SCORE.RESTR>
14.0475

>  <SCORE.RESTR.CAVITY>
14.0475

>  <SCORE.RESTR.norm>
0.319262

>  <SCORE.SYSTEM>
0

>  <SCORE.SYSTEM.CONST>
0

>  <SCORE.SYSTEM.DIHEDRAL>
0

>  <SCORE.SYSTEM.SOLV>
0

>  <SCORE.SYSTEM.norm>
0

>  <SCORE.heavy>
44

>  <SCORE.norm>
1.15698

>  <RMSD>
25.925

$$$$
ligand
 OpenBabel11021811513D
libRbt.so/2013.1/901 2013/11/27
 44 50  0  0  0  0  0  0  0  0999 V2000
   14.3527   23.1193    0.1734 P   0  0  2  0  0  0  0  0  0  0  0  0
   12.5053   26.7312   -3.3969 P   0  0  1  0  0  0  0  0  0  0  0  0
   15.2414   23.4178    1.3783 O   0  5  0  0  0  0  0  0  0  0  0  0
   12.6720   26.0669   -4.7419 O   0  5  0  0  0  0  0  0  0  0  0  0
   14.6225   21.6817   -0.2005 O   0  0  0  0  0  0  0  0  0  0  0  0
   11.6021   27.9685   -3.6026 O   0  0  0  0  0  0  0  0  0  0  0  0
   15.2870   25.4021   -0.4240 C   0  0  0  0  0  0  0  0  0  0  0  0
   11.8580   25.9624   -1.0182 C   0  0  0  0  0  0  0  0  0  0  0  0
   14.7887   24.1510   -0.9166 O   0  0  0  0  0  0  0  0  0  0  0  0
   11.9727   25.5329   -2.4042 O   0  0  0  0  0  0  0  0  0  0  0  0
   15.7179   26.2902   -1.5863 C   0  0  1  0  0  0  0  0  0  0  0  0
   11.2112   24.7574   -0.2364 C   0  0  1  0  0  0  0  0  0  0  0  0
   16.9322   25.9701   -1.9112 O   0  0  0  0  0  0  0  0  0  0  0  0
   10.1750   24.4459   -0.9021 O   0  0  0  0  0  0  0  0  0  0  0  0
   14.8737   26.1014   -2.8257 C   0  0  1  0  0  0  0  0  0  0  0  0
   12.0816   23.4906   -0.3570 C   0  0  1  0  0  0  0  0  0  0  0  0
   13.9826   27.1279   -2.8493 O   0  0  0  0  0  0  0  0  0  0  0  0
   12.8061   23.2889    0.7504 O   0  0  0  0  0  0  0  0  0  0  0  0
   15.9042   26.2476   -3.9991 C   0  0  1  0  0  0  0  0  0  0  0  0
   11.1213   22.3082   -0.6198 C   0  0  1  0  0  0  0  0  0  0  0  0
   15.7968   27.6009   -4.6078 O   0  0  0  0  0  0  0  0  0  0  0  0
   10.9150   21.5115    0.6325 O   0  0  0  0  0  0  0  0  0  0  0  0
   17.0783   26.0596   -3.4873 C   0  0  2  0  0  0  0  0  0  0  0  0
   10.0087   22.8556   -0.9714 C   0  0  2  0  0  0  0  0  0  0  0  0
   16.9688   21.0943   -5.5258 N   0  0  0  0  0  0  0  0  0  0  0  0
   15.8782   21.8478   -5.2096 C   0  0  0  0  0  0  0  0  0  0  0  0
   16.0134   23.1113   -4.6931 N   0  0  0  0  0  0  0  0  0  0  0  0
   17.2687   23.6153   -4.4924 C   0  0  0  0  0  0  0  0  0  0  0  0
   18.3509   22.8835   -4.7917 C   0  0  0  0  0  0  0  0  0  0  0  0
   18.2047   21.6041   -5.3251 C   0  0  0  0  0  0  0  0  0  0  0  0
   19.2560   20.7363   -5.6810 N   0  0  0  0  0  0  0  0  0  0  0  0
   19.4430   23.6217   -4.5006 N   0  0  0  0  0  0  0  0  0  0  0  0
   19.0192   24.8207   -4.0088 C   0  0  0  0  0  0  0  0  0  0  0  0
   17.6798   24.8257   -4.0191 N   0  0  0  0  0  0  0  0  0  0  0  0
    6.1649   22.1069   -4.4042 N   0  0  0  0  0  0  0  0  0  0  0  0
    6.0338   22.4682   -3.1009 C   0  0  0  0  0  0  0  0  0  0  0  0
    7.1497   22.6173   -2.3265 N   0  0  0  0  0  0  0  0  0  0  0  0
    8.3849   22.4109   -2.8578 C   0  0  0  0  0  0  0  0  0  0  0  0
    8.5229   22.0566   -4.1514 C   0  0  0  0  0  0  0  0  0  0  0  0
    7.3807   21.9031   -4.9320 C   0  0  0  0  0  0  0  0  0  0  0  0
    7.2917   21.5161   -6.3166 N   0  0  0  0  0  0  0  0  0  0  0  0
    9.8484   21.9199   -4.3949 N   0  0  0  0  0  0  0  0  0  0  0  0
   10.5252   22.1980   -3.2439 C   0  0  0  0  0  0  0  0  0  0  0  0
    9.6116   22.5033   -2.3004 N   0  0  0  0  0  0  0  0  0  0  0  0
  1  3  1  1  0  0  0
  1  5  2  0  0  0  0
  1  9  1  0  0  0  0
  1 18  1  0  0  0  0
  2  4  1  6  0  0  0
  2  6  2  0  0  0  0
  2 10  1  0  0  0  0
  2 17  1  0  0  0  0
  7  9  1  0  0  0  0
  8 10  1  0  0  0  0
 11  7  1  1  0  0  0
 11 13  1  0  0  0  0
 11 15  1  0  0  0  0
 12  8  1  6  0  0  0
 12 14  1  0  0  0  0
 12 16  1  0  0  0  0
 13 23  1  0  0  0  0
 14 24  1  0  0  0  0
 15 17  1  6  0  0  0
 15 19  1  0  0  0  0
 16 18  1  1  0  0  0
 16 20  1  0  0  0  0
 19 21  1  1  0  0  0
 19 23  1  0  0  0  0
 20 22  1  1  0  0  0
 20 24  1  0  0  0  0
 23 34  1  6  0  0  0
 24 44  1  6  0  0  0
 25 26  2  0  0  0  0
 25 30  1  0  0  0  0
 26 27  1  0  0  0  0
 27 28  2  0  0  0  0
 28 29  1  0  0  0  0
 28 34  1  0  0  0  0
 29 30  2  0  0  0  0
 29 32  1  0  0  0  0
 30 31  1  0  0  0  0
 32 33  2  0  0  0  0
 33 34  1  0  0  0  0
 35 36  2  0  0  0  0
 35 40  1  0  0  0  0
 36 37  1  0  0  0  0
 37 38  2  0  0  0  0
 38 39  1  0  0  0  0
 38 44  1  0  0  0  0
 39 40  2  0  0  0  0
 39 42  1  0  0  0  0
 40 41  1  0  0  0  0
 42 43  2  0  0  0  0
 43 44  1  0  0  0  0
M  CHG  2   3  -1   4  -1
M  END
>  <CHROM.1>
90.59021005,-88.05973645,13.26238748,23.94191910,-2.68874836,-0.00060825
0.19057693,1.03478832

>  <Name>
ligand

>  <RI>
0

>  <Rbt.Current_Directory>
/home/itssahil/PROJECTS/Mol_Feturizer/New_Systems/rnas/4QLM

>  <Rbt.Executable>
rbdock ($Id: //depot/dev/client3/rdock/2013.1/src/exe/rbdock.cxx#4 $)

>  <Rbt.Library>
libRbt.so (2013.1, Build901 2013/11/27)

>  <Rbt.Parameter_File>
/export/apps/rDock/src/rDock_2013.1_src/data/scripts/dock_solv.prm

>  <Rbt.Receptor>
prm/blind_docking_60.prm

>  <SCORE>
36.4479

>  <SCORE.INTER>
31.114

>  <SCORE.INTER.CONST>
1

>  <SCORE.INTER.POLAR>
0

>  <SCORE.INTER.ROT>
2

>  <SCORE.INTER.SOLV>
53.2157

>  <SCORE.INTER.VDW>
-1.92923

>  <SCORE.INTER.norm>
0.707137

>  <SCORE.INTRA>
0.673096

>  <SCORE.INTRA.DIHEDRAL>
-0.0446791

>  <SCORE.INTRA.DIHEDRAL.0>
2.32994

>  <SCORE.INTRA.POLAR>
0

>  <SCORE.INTRA.POLAR.0>
0

>  <SCORE.INTRA.REPUL>
0

>  <SCORE.INTRA.REPUL.0>
0

>  <SCORE.INTRA.SOLV>
0.01475

>  <SCORE.INTRA.SOLV.lig_0>
-117.703

>  <SCORE.INTRA.VDW>
0.68806

>  <SCORE.INTRA.VDW.0>
-1.59997

>  <SCORE.INTRA.norm>
0.0152976

>  <SCORE.RESTR>
4.66079

>  <SCORE.RESTR.CAVITY>
4.66079

>  <SCORE.RESTR.norm>
0.105927

>  <SCORE.SYSTEM>
0

>  <SCORE.SYSTEM.CONST>
0

>  <SCORE.SYSTEM.DIHEDRAL>
0

>  <SCORE.SYSTEM.SOLV>
0

>  <SCORE.SYSTEM.norm>
0

>  <SCORE.heavy>
44

>  <SCORE.norm>
0.828361

>  <RMSD>
26.058

$$$$
ligand
 OpenBabel11021811513D
libRbt.so/2013.1/901 2013/11/27
 44 50  0  0  0  0  0  0  0  0999 V2000
   14.2570   25.1238   -1.2537 P   0  0  2  0  0  0  0  0  0  0  0  0
   10.8396   21.0397   -0.3332 P   0  0  1  0  0  0  0  0  0  0  0  0
   15.4162   25.5475   -0.3553 O   0  5  0  0  0  0  0  0  0  0  0  0
    9.4788   21.5841   -0.6938 O   0  5  0  0  0  0  0  0  0  0  0  0
   13.8499   26.3576   -2.0227 O   0  0  0  0  0  0  0  0  0  0  0  0
   10.6992   19.5073   -0.1875 O   0  0  0  0  0  0  0  0  0  0  0  0
   13.6407   24.0165    0.9453 C   0  0  0  0  0  0  0  0  0  0  0  0
   13.2392   21.2910   -1.2537 C   0  0  0  0  0  0  0  0  0  0  0  0
   13.1589   24.5949   -0.2752 O   0  0  0  0  0  0  0  0  0  0  0  0
   11.8434   21.6239   -1.4977 O   0  0  0  0  0  0  0  0  0  0  0  0
   12.4688   23.5880    1.8220 C   0  0  1  0  0  0  0  0  0  0  0  0
   14.0385   21.7946   -2.5142 C   0  0  1  0  0  0  0  0  0  0  0  0
   12.0749   24.6195    2.5027 O   0  0  0  0  0  0  0  0  0  0  0  0
   13.4253   21.3070   -3.5144 O   0  0  0  0  0  0  0  0  0  0  0  0
   11.2742   23.1106    1.0287 C   0  0  1  0  0  0  0  0  0  0  0  0
   13.8543   23.3122   -2.7142 C   0  0  1  0  0  0  0  0  0  0  0  0
   11.3122   21.7517    1.0485 O   0  0  0  0  0  0  0  0  0  0  0  0
   14.9184   23.9951   -2.2745 O   0  0  0  0  0  0  0  0  0  0  0  0
   10.0492   23.6333    1.8571 C   0  0  1  0  0  0  0  0  0  0  0  0
   13.6278   23.5426   -4.2258 C   0  0  1  0  0  0  0  0  0  0  0  0
    9.4652   22.5254    2.6602 O   0  0  0  0  0  0  0  0  0  0  0  0
   14.8786   24.0565   -4.8714 O   0  0  0  0  0  0  0  0  0  0  0  0
   10.4946   24.5778    2.6221 C   0  0  2  0  0  0  0  0  0  0  0  0
   13.3438   22.3786   -4.7004 C   0  0  2  0  0  0  0  0  0  0  0  0
    7.0810   28.6981    3.0605 N   0  0  0  0  0  0  0  0  0  0  0  0
    7.1400   27.6227    3.8954 C   0  0  0  0  0  0  0  0  0  0  0  0
    8.0537   26.6189    3.6973 N   0  0  0  0  0  0  0  0  0  0  0  0
    8.9155   26.7055    2.6390 C   0  0  0  0  0  0  0  0  0  0  0  0
    8.8648   27.7535    1.8050 C   0  0  0  0  0  0  0  0  0  0  0  0
    7.9396   28.7737    2.0190 C   0  0  0  0  0  0  0  0  0  0  0  0
    7.7842   29.9239    1.2203 N   0  0  0  0  0  0  0  0  0  0  0  0
    9.8203   27.5823    0.8670 N   0  0  0  0  0  0  0  0  0  0  0  0
   10.4591   26.4066    1.1295 C   0  0  0  0  0  0  0  0  0  0  0  0
    9.9148   25.8732    2.2310 N   0  0  0  0  0  0  0  0  0  0  0  0
    8.3097   21.1674   -4.1424 N   0  0  0  0  0  0  0  0  0  0  0  0
    9.2900   21.0228   -3.2126 C   0  0  0  0  0  0  0  0  0  0  0  0
   10.5713   21.3840   -3.5212 N   0  0  0  0  0  0  0  0  0  0  0  0
   10.8635   21.8905   -4.7494 C   0  0  0  0  0  0  0  0  0  0  0  0
    9.8950   22.0411   -5.6754 C   0  0  0  0  0  0  0  0  0  0  0  0
    8.5934   21.6670   -5.3541 C   0  0  0  0  0  0  0  0  0  0  0  0
    7.4183   21.7218   -6.1855 N   0  0  0  0  0  0  0  0  0  0  0  0
   10.4735   22.5574   -6.7862 N   0  0  0  0  0  0  0  0  0  0  0  0
   11.8030   22.7286   -6.5354 C   0  0  0  0  0  0  0  0  0  0  0  0
   12.0335   22.3162   -5.2725 N   0  0  0  0  0  0  0  0  0  0  0  0
  1  3  1  1  0  0  0
  1  5  2  0  0  0  0
  1  9  1  0  0  0  0
  1 18  1  0  0  0  0
  2  4  1  6  0  0  0
  2  6  2  0  0  0  0
  2 10  1  0  0  0  0
  2 17  1  0  0  0  0
  7  9  1  0  0  0  0
  8 10  1  0  0  0  0
 11  7  1  6  0  0  0
 11 13  1  0  0  0  0
 11 15  1  0  0  0  0
 12  8  1  1  0  0  0
 12 14  1  0  0  0  0
 12 16  1  0  0  0  0
 13 23  1  0  0  0  0
 14 24  1  0  0  0  0
 15 17  1  1  0  0  0
 15 19  1  0  0  0  0
 16 18  1  6  0  0  0
 16 20  1  0  0  0  0
 19 21  1  1  0  0  0
 19 23  1  0  0  0  0
 20 22  1  6  0  0  0
 20 24  1  0  0  0  0
 23 34  1  6  0  0  0
 24 44  1  1  0  0  0
 25 26  2  0  0  0  0
 25 30  1  0  0  0  0
 26 27  1  0  0  0  0
 27 28  2  0  0  0  0
 28 29  1  0  0  0  0
 28 34  1  0  0  0  0
 29 30  2  0  0  0  0
 29 32  1  0  0  0  0
 30 31  1  0  0  0  0
 32 33  2  0  0  0  0
 33 34  1  0  0  0  0
 35 36  2  0  0  0  0
 35 40  1  0  0  0  0
 36 37  1  0  0  0  0
 37 38  2  0  0  0  0
 38 39  1  0  0  0  0
 38 44  1  0  0  0  0
 39 40  2  0  0  0  0
 39 42  1  0  0  0  0
 40 41  1  0  0  0  0
 42 43  2  0  0  0  0
 43 44  1  0  0  0  0
M  CHG  2   3  -1   4  -1
M  END
>  <CHROM.1>
-139.84441914,23.82017247,11.23390469,23.76363264,-1.03723500,-1.25206484
0.12432065,0.91977983

>  <Name>
ligand

>  <RI>
0

>  <Rbt.Current_Directory>
/home/itssahil/PROJECTS/Mol_Feturizer/New_Systems/rnas/4QLM

>  <Rbt.Executable>
rbdock ($Id: //depot/dev/client3/rdock/2013.1/src/exe/rbdock.cxx#4 $)

>  <Rbt.Library>
libRbt.so (2013.1, Build901 2013/11/27)

>  <Rbt.Parameter_File>
/export/apps/rDock/src/rDock_2013.1_src/data/scripts/dock_solv.prm

>  <Rbt.Receptor>
prm/blind_docking_60.prm

>  <SCORE>
69.6323

>  <SCORE.INTER>
63.5448

>  <SCORE.INTER.CONST>
1

>  <SCORE.INTER.POLAR>
0

>  <SCORE.INTER.ROT>
2

>  <SCORE.INTER.SOLV>
33.1093

>  <SCORE.INTER.VDW>
26.3934

>  <SCORE.INTER.norm>
1.4442

>  <SCORE.INTRA>
1.23796

>  <SCORE.INTRA.DIHEDRAL>
-0.0254398

>  <SCORE.INTRA.DIHEDRAL.0>
2.32994

>  <SCORE.INTRA.POLAR>
0

>  <SCORE.INTRA.POLAR.0>
0

>  <SCORE.INTRA.REPUL>
0

>  <SCORE.INTRA.REPUL.0>
0

>  <SCORE.INTRA.SOLV>
1.6602

>  <SCORE.INTRA.SOLV.lig_0>
-117.703

>  <SCORE.INTRA.VDW>
0.420576

>  <SCORE.INTRA.VDW.0>
-1.59997

>  <SCORE.INTRA.norm>
0.0281353

>  <SCORE.RESTR>
4.84959

>  <SCORE.RESTR.CAVITY>
4.84959

>  <SCORE.RESTR.norm>
0.110218

>  <SCORE.SYSTEM>
0

>  <SCORE.SYSTEM.CONST>
0

>  <SCORE.SYSTEM.DIHEDRAL>
0

>  <SCORE.SYSTEM.SOLV>
0

>  <SCORE.SYSTEM.norm>
0

>  <SCORE.heavy>
44

>  <SCORE.norm>
1.58255

>  <RMSD>
26.110

$$$$
ligand
 OpenBabel11021811513D
libRbt.so/2013.1/901 2013/11/27
 44 50  0  0  0  0  0  0  0  0999 V2000
   14.2661   25.0994   -1.2402 P   0  0  2  0  0  0  0  0  0  0  0  0
   10.8723   20.9874   -0.3577 P   0  0  1  0  0  0  0  0  0  0  0  0
   15.4259   25.5185   -0.3404 O   0  5  0  0  0  0  0  0  0  0  0  0
    9.5077   21.5291   -0.7078 O   0  5  0  0  0  0  0  0  0  0  0  0
   13.8504   26.3402   -1.9934 O   0  0  0  0  0  0  0  0  0  0  0  0
   10.7402   19.4527   -0.2297 O   0  0  0  0  0  0  0  0  0  0  0  0
   13.6622   23.9632    0.9473 C   0  0  0  0  0  0  0  0  0  0  0  0
   13.2677   21.2617   -1.2824 C   0  0  0  0  0  0  0  0  0  0  0  0
   13.1738   24.5535   -0.2648 O   0  0  0  0  0  0  0  0  0  0  0  0
   11.8695   21.5904   -1.5182 O   0  0  0  0  0  0  0  0  0  0  0  0
   12.4952   23.5184    1.8224 C   0  0  1  0  0  0  0  0  0  0  0  0
   14.0606   21.7843   -2.5393 C   0  0  1  0  0  0  0  0  0  0  0  0
   12.0982   24.5397    2.5165 O   0  0  0  0  0  0  0  0  0  0  0  0
   13.4468   21.3054   -3.5433 O   0  0  0  0  0  0  0  0  0  0  0  0
   11.3006   23.0442    1.0272 C   0  0  1  0  0  0  0  0  0  0  0  0
   13.8682   23.3031   -2.7208 C   0  0  1  0  0  0  0  0  0  0  0  0
   11.3456   21.6855    1.0309 O   0  0  0  0  0  0  0  0  0  0  0  0
   14.9301   23.9862   -2.2763 O   0  0  0  0  0  0  0  0  0  0  0  0
   10.0755   23.5509    1.8654 C   0  0  1  0  0  0  0  0  0  0  0  0
   13.6358   23.5503   -4.2289 C   0  0  1  0  0  0  0  0  0  0  0  0
    9.4997   22.4307    2.6571 O   0  0  0  0  0  0  0  0  0  0  0  0
   14.8819   24.0781   -4.8721 O   0  0  0  0  0  0  0  0  0  0  0  0
   10.5185   24.4886    2.6402 C   0  0  2  0  0  0  0  0  0  0  0  0
   13.3562   22.3904   -4.7164 C   0  0  2  0  0  0  0  0  0  0  0  0
    7.1039   28.5992    3.1545 N   0  0  0  0  0  0  0  0  0  0  0  0
    7.1764   27.5181    3.9811 C   0  0  0  0  0  0  0  0  0  0  0  0
    8.0891   26.5176    3.7634 N   0  0  0  0  0  0  0  0  0  0  0  0
    8.9359   26.6130    2.6938 C   0  0  0  0  0  0  0  0  0  0  0  0
    8.8717   27.6667    1.8679 C   0  0  0  0  0  0  0  0  0  0  0  0
    7.9477   28.6837    2.1018 C   0  0  0  0  0  0  0  0  0  0  0  0
    7.7791   29.8390    1.3133 N   0  0  0  0  0  0  0  0  0  0  0  0
    9.8143   27.5038    0.9154 N   0  0  0  0  0  0  0  0  0  0  0  0
   10.4589   26.3276    1.1609 C   0  0  0  0  0  0  0  0  0  0  0  0
    9.9310   25.7855    2.2661 N   0  0  0  0  0  0  0  0  0  0  0  0
    8.3239   21.1773   -4.1466 N   0  0  0  0  0  0  0  0  0  0  0  0
    9.3066   21.0322   -3.2194 C   0  0  0  0  0  0  0  0  0  0  0  0
   10.5870   21.3940   -3.5309 N   0  0  0  0  0  0  0  0  0  0  0  0
   10.8759   21.9016   -4.7594 C   0  0  0  0  0  0  0  0  0  0  0  0
    9.9051   22.0527   -5.6829 C   0  0  0  0  0  0  0  0  0  0  0  0
    8.6044   21.6779   -5.3586 C   0  0  0  0  0  0  0  0  0  0  0  0
    7.4272   21.7330   -6.1869 N   0  0  0  0  0  0  0  0  0  0  0  0
   10.4806   22.5701   -6.7947 N   0  0  0  0  0  0  0  0  0  0  0  0
   11.8107   22.7415   -6.5471 C   0  0  0  0  0  0  0  0  0  0  0  0
   12.0445   22.3281   -5.2852 N   0  0  0  0  0  0  0  0  0  0  0  0
  1  3  1  1  0  0  0
  1  5  2  0  0  0  0
  1  9  1  0  0  0  0
  1 18  1  0  0  0  0
  2  4  1  6  0  0  0
  2  6  2  0  0  0  0
  2 10  1  0  0  0  0
  2 17  1  0  0  0  0
  7  9  1  0  0  0  0
  8 10  1  0  0  0  0
 11  7  1  6  0  0  0
 11 13  1  0  0  0  0
 11 15  1  0  0  0  0
 12  8  1  1  0  0  0
 12 14  1  0  0  0  0
 12 16  1  0  0  0  0
 13 23  1  0  0  0  0
 14 24  1  0  0  0  0
 15 17  1  1  0  0  0
 15 19  1  0  0  0  0
 16 18  1  6  0  0  0
 16 20  1  0  0  0  0
 19 21  1  1  0  0  0
 19 23  1  0  0  0  0
 20 22  1  6  0  0  0
 20 24  1  0  0  0  0
 23 34  1  6  0  0  0
 24 44  1  1  0  0  0
 25 26  2  0  0  0  0
 25 30  1  0  0  0  0
 26 27  1  0  0  0  0
 27 28  2  0  0  0  0
 28 29  1  0  0  0  0
 28 34  1  0  0  0  0
 29 30  2  0  0  0  0
 29 32  1  0  0  0  0
 30 31  1  0  0  0  0
 32 33  2  0  0  0  0
 33 34  1  0  0  0  0
 35 36  2  0  0  0  0
 35 40  1  0  0  0  0
 36 37  1  0  0  0  0
 37 38  2  0  0  0  0
 38 39  1  0  0  0  0
 38 44  1  0  0  0  0
 39 40  2  0  0  0  0
 39 42  1  0  0  0  0
 40 41  1  0  0  0  0
 42 43  2  0  0  0  0
 43 44  1  0  0  0  0
M  CHG  2   3  -1   4  -1
M  END
>  <CHROM.1>
-139.13702964,24.50757701,11.25137294,23.72461875,-1.02869295,-1.25184616
0.12811050,0.93270609

>  <Name>
ligand

>  <RI>
0

>  <Rbt.Current_Directory>
/home/itssahil/PROJECTS/Mol_Feturizer/New_Systems/rnas/4QLM

>  <Rbt.Executable>
rbdock ($Id: //depot/dev/client3/rdock/2013.1/src/exe/rbdock.cxx#4 $)

>  <Rbt.Library>
libRbt.so (2013.1, Build901 2013/11/27)

>  <Rbt.Parameter_File>
/export/apps/rDock/src/rDock_2013.1_src/data/scripts/dock_solv.prm

>  <Rbt.Receptor>
prm/blind_docking_80.prm

>  <SCORE>
74.816

>  <SCORE.INTER>
64.6811

>  <SCORE.INTER.CONST>
1

>  <SCORE.INTER.POLAR>
0

>  <SCORE.INTER.ROT>
2

>  <SCORE.INTER.SOLV>
33.3401

>  <SCORE.INTER.VDW>
27.074

>  <SCORE.INTER.norm>
1.47002

>  <SCORE.INTRA>
1.41216

>  <SCORE.INTRA.DIHEDRAL>
-0.0232537

>  <SCORE.INTRA.DIHEDRAL.0>
2.32994

>  <SCORE.INTRA.POLAR>
0

>  <SCORE.INTRA.POLAR.0>
0

>  <SCORE.INTRA.REPUL>
0

>  <SCORE.INTRA.REPUL.0>
0

>  <SCORE.INTRA.SOLV>
1.66927

>  <SCORE.INTRA.SOLV.lig_0>
-117.703

>  <SCORE.INTRA.VDW>
0.589151

>  <SCORE.INTRA.VDW.0>
-1.59997

>  <SCORE.INTRA.norm>
0.0320945

>  <SCORE.RESTR>
8.7228

>  <SCORE.RESTR.CAVITY>
8.7228

>  <SCORE.RESTR.norm>
0.198245

>  <SCORE.SYSTEM>
0

>  <SCORE.SYSTEM.CONST>
0

>  <SCORE.SYSTEM.DIHEDRAL>
0

>  <SCORE.SYSTEM.SOLV>
0

>  <SCORE.SYSTEM.norm>
0

>  <SCORE.heavy>
44

>  <SCORE.norm>
1.70036

>  <RMSD>
26.138

$$$$
ligand
 OpenBabel11021811513D
libRbt.so/2013.1/901 2013/11/27
 44 50  0  0  0  0  0  0  0  0999 V2000
   14.3824   23.1337    0.0540 P   0  0  2  0  0  0  0  0  0  0  0  0
   12.4693   26.7363   -3.4909 P   0  0  1  0  0  0  0  0  0  0  0  0
   15.3169   23.4308    1.2240 O   0  5  0  0  0  0  0  0  0  0  0  0
   12.5788   26.0550   -4.8333 O   0  5  0  0  0  0  0  0  0  0  0  0
   14.6166   21.6880   -0.3128 O   0  0  0  0  0  0  0  0  0  0  0  0
   11.5790   27.9857   -3.6793 O   0  0  0  0  0  0  0  0  0  0  0  0
   15.3312   25.3947   -0.6010 C   0  0  0  0  0  0  0  0  0  0  0  0
   11.8928   26.0036   -1.0828 C   0  0  0  0  0  0  0  0  0  0  0  0
   14.7965   24.1465   -1.0620 O   0  0  0  0  0  0  0  0  0  0  0  0
   11.9527   25.5575   -2.4670 O   0  0  0  0  0  0  0  0  0  0  0  0
   15.7354   26.2632   -1.7875 C   0  0  1  0  0  0  0  0  0  0  0  0
   11.2547   24.8176   -0.2656 C   0  0  1  0  0  0  0  0  0  0  0  0
   16.9325   25.9201   -2.1504 O   0  0  0  0  0  0  0  0  0  0  0  0
   10.1913   24.5157   -0.8916 O   0  0  0  0  0  0  0  0  0  0  0  0
   14.8459   26.0747   -2.9947 C   0  0  1  0  0  0  0  0  0  0  0  0
   12.1004   23.5357   -0.4019 C   0  0  1  0  0  0  0  0  0  0  0  0
   13.9707   27.1150   -2.9992 O   0  0  0  0  0  0  0  0  0  0  0  0
   12.8596   23.3343    0.6820 O   0  0  0  0  0  0  0  0  0  0  0  0
   15.8373   26.1917   -4.2046 C   0  0  1  0  0  0  0  0  0  0  0  0
   11.1131   22.3662   -0.6180 C   0  0  1  0  0  0  0  0  0  0  0  0
   15.7301   27.5400   -4.8244 O   0  0  0  0  0  0  0  0  0  0  0  0
   10.9379   21.5864    0.6495 O   0  0  0  0  0  0  0  0  0  0  0  0
   17.0253   25.9904   -3.7315 C   0  0  2  0  0  0  0  0  0  0  0  0
    9.9978   22.9276   -0.9372 C   0  0  2  0  0  0  0  0  0  0  0  0
   18.5007   20.8339   -3.4958 N   0  0  0  0  0  0  0  0  0  0  0  0
   17.9035   21.5363   -2.4922 C   0  0  0  0  0  0  0  0  0  0  0  0
   17.5632   22.8553   -2.6534 N   0  0  0  0  0  0  0  0  0  0  0  0
   17.8339   23.4697   -3.8448 C   0  0  0  0  0  0  0  0  0  0  0  0
   18.4274   22.7940   -4.8386 C   0  0  0  0  0  0  0  0  0  0  0  0
   18.7613   21.4513   -4.6698 C   0  0  0  0  0  0  0  0  0  0  0  0
   19.3851   20.6318   -5.6312 N   0  0  0  0  0  0  0  0  0  0  0  0
   18.5669   23.6351   -5.8852 N   0  0  0  0  0  0  0  0  0  0  0  0
   18.0565   24.8458   -5.5205 C   0  0  0  0  0  0  0  0  0  0  0  0
   17.5885   24.7413   -4.2698 N   0  0  0  0  0  0  0  0  0  0  0  0
    6.0563   22.4680   -4.3097 N   0  0  0  0  0  0  0  0  0  0  0  0
    5.9805   22.8943   -3.0217 C   0  0  0  0  0  0  0  0  0  0  0  0
    7.1147   22.9509   -2.2618 N   0  0  0  0  0  0  0  0  0  0  0  0
    8.3137   22.5882   -2.7923 C   0  0  0  0  0  0  0  0  0  0  0  0
    8.3972   22.1686   -4.0711 C   0  0  0  0  0  0  0  0  0  0  0  0
    7.2363   22.1103   -4.8367 C   0  0  0  0  0  0  0  0  0  0  0  0
    7.0896   21.6795   -6.2035 N   0  0  0  0  0  0  0  0  0  0  0  0
    9.6969   21.8770   -4.3176 N   0  0  0  0  0  0  0  0  0  0  0  0
   10.4131   22.1253   -3.1839 C   0  0  0  0  0  0  0  0  0  0  0  0
    9.5493   22.5675   -2.2477 N   0  0  0  0  0  0  0  0  0  0  0  0
  1  3  1  1  0  0  0
  1  5  2  0  0  0  0
  1  9  1  0  0  0  0
  1 18  1  0  0  0  0
  2  4  1  6  0  0  0
  2  6  2  0  0  0  0
  2 10  1  0  0  0  0
  2 17  1  0  0  0  0
  7  9  1  0  0  0  0
  8 10  1  0  0  0  0
 11  7  1  1  0  0  0
 11 13  1  0  0  0  0
 11 15  1  0  0  0  0
 12  8  1  6  0  0  0
 12 14  1  0  0  0  0
 12 16  1  0  0  0  0
 13 23  1  0  0  0  0
 14 24  1  0  0  0  0
 15 17  1  6  0  0  0
 15 19  1  0  0  0  0
 16 18  1  1  0  0  0
 16 20  1  0  0  0  0
 19 21  1  1  0  0  0
 19 23  1  0  0  0  0
 20 22  1  1  0  0  0
 20 24  1  0  0  0  0
 23 34  1  6  0  0  0
 24 44  1  6  0  0  0
 25 26  2  0  0  0  0
 25 30  1  0  0  0  0
 26 27  1  0  0  0  0
 27 28  2  0  0  0  0
 28 29  1  0  0  0  0
 28 34  1  0  0  0  0
 29 30  2  0  0  0  0
 29 32  1  0  0  0  0
 30 31  1  0  0  0  0
 32 33  2  0  0  0  0
 33 34  1  0  0  0  0
 35 36  2  0  0  0  0
 35 40  1  0  0  0  0
 36 37  1  0  0  0  0
 37 38  2  0  0  0  0
 38 39  1  0  0  0  0
 38 44  1  0  0  0  0
 39 40  2  0  0  0  0
 39 42  1  0  0  0  0
 40 41  1  0  0  0  0
 42 43  2  0  0  0  0
 43 44  1  0  0  0  0
M  CHG  2   3  -1   4  -1
M  END
>  <CHROM.1>
14.87133771,-82.19899888,13.33003768,23.95479771,-2.63805036,-0.12620019
-0.00149676,2.40750053

>  <Name>
ligand

>  <RI>
0

>  <Rbt.Current_Directory>
/home/itssahil/PROJECTS/Mol_Feturizer/New_Systems/rnas/4QLM

>  <Rbt.Executable>
rbdock ($Id: //depot/dev/client3/rdock/2013.1/src/exe/rbdock.cxx#4 $)

>  <Rbt.Library>
libRbt.so (2013.1, Build901 2013/11/27)

>  <Rbt.Parameter_File>
/export/apps/rDock/src/rDock_2013.1_src/data/scripts/dock_solv.prm

>  <Rbt.Receptor>
prm/blind_docking_60.prm

>  <SCORE>
35.6094

>  <SCORE.INTER>
30.5957

>  <SCORE.INTER.CONST>
1

>  <SCORE.INTER.POLAR>
0

>  <SCORE.INTER.ROT>
2

>  <SCORE.INTER.SOLV>
53.0223

>  <SCORE.INTER.VDW>
-2.21028

>  <SCORE.INTER.norm>
0.695358

>  <SCORE.INTRA>
0.853417

>  <SCORE.INTRA.DIHEDRAL>
0.139763

>  <SCORE.INTRA.DIHEDRAL.0>
2.32994

>  <SCORE.INTRA.POLAR>
0

>  <SCORE.INTRA.POLAR.0>
0

>  <SCORE.INTRA.REPUL>
0

>  <SCORE.INTRA.REPUL.0>
0

>  <SCORE.INTRA.SOLV>
0.167727

>  <SCORE.INTRA.SOLV.lig_0>
-117.703

>  <SCORE.INTRA.VDW>
0.699672

>  <SCORE.INTRA.VDW.0>
-1.59997

>  <SCORE.INTRA.norm>
0.0193958

>  <SCORE.RESTR>
4.16022

>  <SCORE.RESTR.CAVITY>
4.16022

>  <SCORE.RESTR.norm>
0.0945504

>  <SCORE.SYSTEM>
0

>  <SCORE.SYSTEM.CONST>
0

>  <SCORE.SYSTEM.DIHEDRAL>
0

>  <SCORE.SYSTEM.SOLV>
0

>  <SCORE.SYSTEM.norm>
0

>  <SCORE.heavy>
44

>  <SCORE.norm>
0.809304

>  <RMSD>
26.173

$$$$
ligand
 OpenBabel11021811513D
libRbt.so/2013.1/901 2013/11/27
 44 50  0  0  0  0  0  0  0  0999 V2000
   14.3848   23.1279    0.0644 P   0  0  2  0  0  0  0  0  0  0  0  0
   12.4766   26.7416   -3.4719 P   0  0  1  0  0  0  0  0  0  0  0  0
   15.3215   23.4205    1.2338 O   0  5  0  0  0  0  0  0  0  0  0  0
   12.5827   26.0624   -4.8156 O   0  5  0  0  0  0  0  0  0  0  0  0
   14.6147   21.6822   -0.3053 O   0  0  0  0  0  0  0  0  0  0  0  0
   11.5893   27.9936   -3.6570 O   0  0  0  0  0  0  0  0  0  0  0  0
   15.3386   25.3875   -0.5878 C   0  0  0  0  0  0  0  0  0  0  0  0
   11.9012   26.0061   -1.0644 C   0  0  0  0  0  0  0  0  0  0  0  0
   14.8001   24.1416   -1.0503 O   0  0  0  0  0  0  0  0  0  0  0  0
   11.9582   25.5623   -2.4494 O   0  0  0  0  0  0  0  0  0  0  0  0
   15.7436   26.2571   -1.7733 C   0  0  1  0  0  0  0  0  0  0  0  0
   11.2611   24.8204   -0.2484 C   0  0  1  0  0  0  0  0  0  0  0  0
   16.9393   25.9115   -2.1383 O   0  0  0  0  0  0  0  0  0  0  0  0
   10.1961   24.5223   -0.8737 O   0  0  0  0  0  0  0  0  0  0  0  0
   14.8521   26.0730   -2.9798 C   0  0  1  0  0  0  0  0  0  0  0  0
   12.1032   23.5365   -0.3880 C   0  0  1  0  0  0  0  0  0  0  0  0
   13.9796   27.1156   -2.9813 O   0  0  0  0  0  0  0  0  0  0  0  0
   12.8633   23.3313    0.6946 O   0  0  0  0  0  0  0  0  0  0  0  0
   15.8423   26.1896   -4.1907 C   0  0  1  0  0  0  0  0  0  0  0  0
   11.1127   22.3699   -0.6050 C   0  0  1  0  0  0  0  0  0  0  0  0
   15.7378   27.5392   -4.8080 O   0  0  0  0  0  0  0  0  0  0  0  0
   10.9370   21.5884    0.6614 O   0  0  0  0  0  0  0  0  0  0  0  0
   17.0303   25.9843   -3.7194 C   0  0  2  0  0  0  0  0  0  0  0  0
    9.9984   22.9348   -0.9218 C   0  0  2  0  0  0  0  0  0  0  0  0
   18.5061   20.8277   -3.4899 N   0  0  0  0  0  0  0  0  0  0  0  0
   17.9158   21.5309   -2.4828 C   0  0  0  0  0  0  0  0  0  0  0  0
   17.5747   22.8499   -2.6427 N   0  0  0  0  0  0  0  0  0  0  0  0
   17.8376   23.4633   -3.8363 C   0  0  0  0  0  0  0  0  0  0  0  0
   18.4243   22.7868   -4.8336 C   0  0  0  0  0  0  0  0  0  0  0  0
   18.7591   21.4442   -4.6661 C   0  0  0  0  0  0  0  0  0  0  0  0
   19.3762   20.6239   -5.6311 N   0  0  0  0  0  0  0  0  0  0  0  0
   18.5570   23.6272   -5.8816 N   0  0  0  0  0  0  0  0  0  0  0  0
   18.0493   24.8382   -5.5144 C   0  0  0  0  0  0  0  0  0  0  0  0
   17.5897   24.7347   -4.2605 N   0  0  0  0  0  0  0  0  0  0  0  0
    6.0512   22.4890   -4.2894 N   0  0  0  0  0  0  0  0  0  0  0  0
    5.9780   22.9127   -3.0005 C   0  0  0  0  0  0  0  0  0  0  0  0
    7.1135   22.9658   -2.2421 N   0  0  0  0  0  0  0  0  0  0  0  0
    8.3110   22.6021   -2.7751 C   0  0  0  0  0  0  0  0  0  0  0  0
    8.3919   22.1850   -4.0548 C   0  0  0  0  0  0  0  0  0  0  0  0
    7.2299   22.1302   -4.8189 C   0  0  0  0  0  0  0  0  0  0  0  0
    7.0804   21.7025   -6.1863 N   0  0  0  0  0  0  0  0  0  0  0  0
    9.6908   21.8916   -4.3038 N   0  0  0  0  0  0  0  0  0  0  0  0
   10.4090   22.1363   -3.1707 C   0  0  0  0  0  0  0  0  0  0  0  0
    9.5474   22.5781   -2.2323 N   0  0  0  0  0  0  0  0  0  0  0  0
  1  3  1  1  0  0  0
  1  5  2  0  0  0  0
  1  9  1  0  0  0  0
  1 18  1  0  0  0  0
  2  4  1  6  0  0  0
  2  6  2  0  0  0  0
  2 10  1  0  0  0  0
  2 17  1  0  0  0  0
  7  9  1  0  0  0  0
  8 10  1  0  0  0  0
 11  7  1  1  0  0  0
 11 13  1  0  0  0  0
 11 15  1  0  0  0  0
 12  8  1  6  0  0  0
 12 14  1  0  0  0  0
 12 16  1  0  0  0  0
 13 23  1  0  0  0  0
 14 24  1  0  0  0  0
 15 17  1  6  0  0  0
 15 19  1  0  0  0  0
 16 18  1  1  0  0  0
 16 20  1  0  0  0  0
 19 21  1  1  0  0  0
 19 23  1  0  0  0  0
 20 22  1  1  0  0  0
 20 24  1  0  0  0  0
 23 34  1  6  0  0  0
 24 44  1  6  0  0  0
 25 26  2  0  0  0  0
 25 30  1  0  0  0  0
 26 27  1  0  0  0  0
 27 28  2  0  0  0  0
 28 29  1  0  0  0  0
 28 34  1  0  0  0  0
 29 30  2  0  0  0  0
 29 32  1  0  0  0  0
 30 31  1  0  0  0  0
 32 33  2  0  0  0  0
 33 34  1  0  0  0  0
 35 36  2  0  0  0  0
 35 40  1  0  0  0  0
 36 37  1  0  0  0  0
 37 38  2  0  0  0  0
 38 39  1  0  0  0  0
 38 44  1  0  0  0  0
 39 40  2  0  0  0  0
 39 42  1  0  0  0  0
 40 41  1  0  0  0  0
 42 43  2  0  0  0  0
 43 44  1  0  0  0  0
M  CHG  2   3  -1   4  -1
M  END
>  <CHROM.1>
14.50404525,-82.25095478,13.33209026,23.95647414,-2.62458967,-0.12494815
-0.00378146,2.40698972

>  <Name>
ligand

>  <RI>
0

>  <Rbt.Current_Directory>
/home/itssahil/PROJECTS/Mol_Feturizer/New_Systems/rnas/4QLM

>  <Rbt.Executable>
rbdock ($Id: //depot/dev/client3/rdock/2013.1/src/exe/rbdock.cxx#4 $)

>  <Rbt.Library>
libRbt.so (2013.1, Build901 2013/11/27)

>  <Rbt.Parameter_File>
/export/apps/rDock/src/rDock_2013.1_src/data/scripts/dock_solv.prm

>  <Rbt.Receptor>
prm/blind_docking_60.prm

>  <SCORE>
35.4563

>  <SCORE.INTER>
30.3822

>  <SCORE.INTER.CONST>
1

>  <SCORE.INTER.POLAR>
0

>  <SCORE.INTER.ROT>
2

>  <SCORE.INTER.SOLV>
52.8927

>  <SCORE.INTER.VDW>
-2.30945

>  <SCORE.INTER.norm>
0.690504

>  <SCORE.INTRA>
0.86003

>  <SCORE.INTRA.DIHEDRAL>
0.138433

>  <SCORE.INTRA.DIHEDRAL.0>
2.32994

>  <SCORE.INTRA.POLAR>
0

>  <SCORE.INTRA.POLAR.0>
0

>  <SCORE.INTRA.REPUL>
0

>  <SCORE.INTRA.REPUL.0>
0

>  <SCORE.INTRA.SOLV>
0.16003

>  <SCORE.INTRA.SOLV.lig_0>
-117.703

>  <SCORE.INTRA.VDW>
0.710799

>  <SCORE.INTRA.VDW.0>
-1.59997

>  <SCORE.INTRA.norm>
0.0195461

>  <SCORE.RESTR>
4.21412

>  <SCORE.RESTR.CAVITY>
4.21412

>  <SCORE.RESTR.norm>
0.0957756

>  <SCORE.SYSTEM>
0

>  <SCORE.SYSTEM.CONST>
0

>  <SCORE.SYSTEM.DIHEDRAL>
0

>  <SCORE.SYSTEM.SOLV>
0

>  <SCORE.SYSTEM.norm>
0

>  <SCORE.heavy>
44

>  <SCORE.norm>
0.805825

>  <RMSD>
26.181

$$$$
ligand
 OpenBabel11021811513D
libRbt.so/2013.1/901 2013/11/27
 44 50  0  0  0  0  0  0  0  0999 V2000
   14.3889   23.1273    0.0653 P   0  0  2  0  0  0  0  0  0  0  0  0
   12.4857   26.7438   -3.4709 P   0  0  1  0  0  0  0  0  0  0  0  0
   15.3259   23.4187    1.2348 O   0  5  0  0  0  0  0  0  0  0  0  0
   12.5911   26.0645   -4.8146 O   0  5  0  0  0  0  0  0  0  0  0  0
   14.6171   21.6814   -0.3045 O   0  0  0  0  0  0  0  0  0  0  0  0
   11.6000   27.9969   -3.6559 O   0  0  0  0  0  0  0  0  0  0  0  0
   15.3457   25.3859   -0.5866 C   0  0  0  0  0  0  0  0  0  0  0  0
   11.9092   26.0088   -1.0635 C   0  0  0  0  0  0  0  0  0  0  0  0
   14.8056   24.1406   -1.0493 O   0  0  0  0  0  0  0  0  0  0  0  0
   11.9657   25.5651   -2.4486 O   0  0  0  0  0  0  0  0  0  0  0  0
   15.7519   26.2550   -1.7720 C   0  0  1  0  0  0  0  0  0  0  0  0
   11.2674   24.8238   -0.2477 C   0  0  1  0  0  0  0  0  0  0  0  0
   16.9472   25.9080   -2.1369 O   0  0  0  0  0  0  0  0  0  0  0  0
   10.2021   24.5272   -0.8731 O   0  0  0  0  0  0  0  0  0  0  0  0
   14.8603   26.0721   -2.9786 C   0  0  1  0  0  0  0  0  0  0  0  0
   12.1080   23.5389   -0.3873 C   0  0  1  0  0  0  0  0  0  0  0  0
   13.9891   27.1158   -2.9801 O   0  0  0  0  0  0  0  0  0  0  0  0
   12.8676   23.3326    0.6954 O   0  0  0  0  0  0  0  0  0  0  0  0
   15.8507   26.1876   -4.1893 C   0  0  1  0  0  0  0  0  0  0  0  0
   11.1160   22.3736   -0.6045 C   0  0  1  0  0  0  0  0  0  0  0  0
   15.7480   27.5374   -4.8066 O   0  0  0  0  0  0  0  0  0  0  0  0
   10.9392   21.5922    0.6618 O   0  0  0  0  0  0  0  0  0  0  0  0
   17.0385   25.9808   -3.7180 C   0  0  2  0  0  0  0  0  0  0  0  0
   10.0025   22.9399   -0.9214 C   0  0  2  0  0  0  0  0  0  0  0  0
   18.5083   20.8225   -3.4886 N   0  0  0  0  0  0  0  0  0  0  0  0
   17.9188   21.5264   -2.4815 C   0  0  0  0  0  0  0  0  0  0  0  0
   17.5793   22.8457   -2.6413 N   0  0  0  0  0  0  0  0  0  0  0  0
   17.8428   23.4589   -3.8350 C   0  0  0  0  0  0  0  0  0  0  0  0
   18.4286   22.7816   -4.8323 C   0  0  0  0  0  0  0  0  0  0  0  0
   18.7618   21.4386   -4.6648 C   0  0  0  0  0  0  0  0  0  0  0  0
   19.3779   20.6176   -5.6299 N   0  0  0  0  0  0  0  0  0  0  0  0
   18.5622   23.6219   -5.8803 N   0  0  0  0  0  0  0  0  0  0  0  0
   18.0560   24.8335   -5.5131 C   0  0  0  0  0  0  0  0  0  0  0  0
   17.5964   24.7305   -4.2591 N   0  0  0  0  0  0  0  0  0  0  0  0
    6.0523   22.4831   -4.2841 N   0  0  0  0  0  0  0  0  0  0  0  0
    5.9791   22.9039   -2.9942 C   0  0  0  0  0  0  0  0  0  0  0  0
    7.1155   22.9605   -2.2374 N   0  0  0  0  0  0  0  0  0  0  0  0
    8.3139   22.6034   -2.7729 C   0  0  0  0  0  0  0  0  0  0  0  0
    8.3948   22.1893   -4.0536 C   0  0  0  0  0  0  0  0  0  0  0  0
    7.2318   22.1309   -4.8161 C   0  0  0  0  0  0  0  0  0  0  0  0
    7.0823   21.7053   -6.1841 N   0  0  0  0  0  0  0  0  0  0  0  0
    9.6945   21.9023   -4.3051 N   0  0  0  0  0  0  0  0  0  0  0  0
   10.4134   22.1480   -3.1725 C   0  0  0  0  0  0  0  0  0  0  0  0
    9.5511   22.5839   -2.2320 N   0  0  0  0  0  0  0  0  0  0  0  0
  1  3  1  1  0  0  0
  1  5  2  0  0  0  0
  1  9  1  0  0  0  0
  1 18  1  0  0  0  0
  2  4  1  6  0  0  0
  2  6  2  0  0  0  0
  2 10  1  0  0  0  0
  2 17  1  0  0  0  0
  7  9  1  0  0  0  0
  8 10  1  0  0  0  0
 11  7  1  1  0  0  0
 11 13  1  0  0  0  0
 11 15  1  0  0  0  0
 12  8  1  6  0  0  0
 12 14  1  0  0  0  0
 12 16  1  0  0  0  0
 13 23  1  0  0  0  0
 14 24  1  0  0  0  0
 15 17  1  6  0  0  0
 15 19  1  0  0  0  0
 16 18  1  1  0  0  0
 16 20  1  0  0  0  0
 19 21  1  1  0  0  0
 19 23  1  0  0  0  0
 20 22  1  1  0  0  0
 20 24  1  0  0  0  0
 23 34  1  6  0  0  0
 24 44  1  6  0  0  0
 25 26  2  0  0  0  0
 25 30  1  0  0  0  0
 26 27  1  0  0  0  0
 27 28  2  0  0  0  0
 28 29  1  0  0  0  0
 28 34  1  0  0  0  0
 29 30  2  0  0  0  0
 29 32  1  0  0  0  0
 30 31  1  0  0  0  0
 32 33  2  0  0  0  0
 33 34  1  0  0  0  0
 35 36  2  0  0  0  0
 35 40  1  0  0  0  0
 36 37  1  0  0  0  0
 37 38  2  0  0  0  0
 38 39  1  0  0  0  0
 38 44  1  0  0  0  0
 39 40  2  0  0  0  0
 39 42  1  0  0  0  0
 40 41  1  0  0  0  0
 42 43  2  0  0  0  0
 43 44  1  0  0  0  0
M  CHG  2   3  -1   4  -1
M  END
>  <CHROM.1>
14.49071011,-82.61409198,13.33740933,23.95628901,-2.62331364,-0.12474054
-0.00466616,2.41150821

>  <Name>
ligand

>  <RI>
0

>  <Rbt.Current_Directory>
/home/itssahil/PROJECTS/Mol_Feturizer/New_Systems/rnas/4QLM

>  <Rbt.Executable>
rbdock ($Id: //depot/dev/client3/rdock/2013.1/src/exe/rbdock.cxx#4 $)

>  <Rbt.Library>
libRbt.so (2013.1, Build901 2013/11/27)

>  <Rbt.Parameter_File>
/export/apps/rDock/src/rDock_2013.1_src/data/scripts/dock_solv.prm

>  <Rbt.Receptor>
prm/blind_docking_60.prm

>  <SCORE>
35.4112

>  <SCORE.INTER>
30.3406

>  <SCORE.INTER.CONST>
1

>  <SCORE.INTER.POLAR>
0

>  <SCORE.INTER.ROT>
2

>  <SCORE.INTER.SOLV>
52.9051

>  <SCORE.INTER.VDW>
-2.34126

>  <SCORE.INTER.norm>
0.68956

>  <SCORE.INTRA>
0.84674

>  <SCORE.INTRA.DIHEDRAL>
0.138307

>  <SCORE.INTRA.DIHEDRAL.0>
2.32994

>  <SCORE.INTRA.POLAR>
0

>  <SCORE.INTRA.POLAR.0>
0

>  <SCORE.INTRA.REPUL>
0

>  <SCORE.INTRA.REPUL.0>
0

>  <SCORE.INTRA.SOLV>
0.158985

>  <SCORE.INTRA.SOLV.lig_0>
-117.703

>  <SCORE.INTRA.VDW>
0.698094

>  <SCORE.INTRA.VDW.0>
-1.59997

>  <SCORE.INTRA.norm>
0.0192441

>  <SCORE.RESTR>
4.22379

>  <SCORE.RESTR.CAVITY>
4.22379

>  <SCORE.RESTR.norm>
0.0959953

>  <SCORE.SYSTEM>
0

>  <SCORE.SYSTEM.CONST>
0

>  <SCORE.SYSTEM.DIHEDRAL>
0

>  <SCORE.SYSTEM.SOLV>
0

>  <SCORE.SYSTEM.norm>
0

>  <SCORE.heavy>
44

>  <SCORE.norm>
0.804799

>  <RMSD>
26.186

$$$$
ligand
 OpenBabel11021811513D
libRbt.so/2013.1/901 2013/11/27
 44 50  0  0  0  0  0  0  0  0999 V2000
   11.0648   22.0593   -2.7339 P   0  0  2  0  0  0  0  0  0  0  0  0
   12.4980   24.3241    1.9589 P   0  0  1  0  0  0  0  0  0  0  0  0
   11.3790   20.6330   -3.1783 O   0  5  0  0  0  0  0  0  0  0  0  0
   12.9643   25.7122    1.5929 O   0  5  0  0  0  0  0  0  0  0  0  0
   10.8962   22.8651   -3.9995 O   0  0  0  0  0  0  0  0  0  0  0  0
   12.3260   24.2854    3.4944 O   0  0  0  0  0  0  0  0  0  0  0  0
   12.9611   21.4337   -1.1674 C   0  0  0  0  0  0  0  0  0  0  0  0
   10.6409   22.7209    1.1531 C   0  0  0  0  0  0  0  0  0  0  0  0
   12.2898   22.4916   -1.8649 O   0  0  0  0  0  0  0  0  0  0  0  0
   11.1728   24.0691    1.0188 O   0  0  0  0  0  0  0  0  0  0  0  0
   14.1584   21.9865   -0.4016 C   0  0  1  0  0  0  0  0  0  0  0  0
    9.3118   22.6860    0.3082 C   0  0  1  0  0  0  0  0  0  0  0  0
   15.1662   22.0470   -1.2159 O   0  0  0  0  0  0  0  0  0  0  0  0
    8.6379   23.6870    0.7056 O   0  0  0  0  0  0  0  0  0  0  0  0
   13.9375   23.3879    0.1194 C   0  0  1  0  0  0  0  0  0  0  0  0
    9.5877   23.0317   -1.1688 C   0  0  1  0  0  0  0  0  0  0  0  0
   13.6153   23.2675    1.4347 O   0  0  0  0  0  0  0  0  0  0  0  0
    9.6188   21.9311   -1.9300 O   0  0  0  0  0  0  0  0  0  0  0  0
   15.3436   24.0650   -0.0372 C   0  0  1  0  0  0  0  0  0  0  0  0
    8.4664   23.9939   -1.6228 C   0  0  1  0  0  0  0  0  0  0  0  0
   16.0398   24.1069    1.2770 O   0  0  0  0  0  0  0  0  0  0  0  0
    7.4481   23.2627   -2.4436 O   0  0  0  0  0  0  0  0  0  0  0  0
   16.0054   23.3525   -0.8917 C   0  0  2  0  0  0  0  0  0  0  0  0
    7.9229   24.4095   -0.5306 C   0  0  2  0  0  0  0  0  0  0  0  0
   14.6203   25.6555   -5.5391 N   0  0  0  0  0  0  0  0  0  0  0  0
   13.7771   24.9931   -4.6981 C   0  0  0  0  0  0  0  0  0  0  0  0
   14.2312   24.4388   -3.5285 N   0  0  0  0  0  0  0  0  0  0  0  0
   15.5560   24.5553   -3.2094 C   0  0  0  0  0  0  0  0  0  0  0  0
   16.3988   25.1977   -4.0300 C   0  0  0  0  0  0  0  0  0  0  0  0
   15.9273   25.7662   -5.2120 C   0  0  0  0  0  0  0  0  0  0  0  0
   16.7054   26.4646   -6.1563 N   0  0  0  0  0  0  0  0  0  0  0  0
   17.6268   25.1645   -3.4704 N   0  0  0  0  0  0  0  0  0  0  0  0
   17.5321   24.4841   -2.2925 C   0  0  0  0  0  0  0  0  0  0  0  0
   16.2537   24.1229   -2.1213 N   0  0  0  0  0  0  0  0  0  0  0  0
    7.1450   28.5886    2.4779 N   0  0  0  0  0  0  0  0  0  0  0  0
    6.8158   27.3028    2.7692 C   0  0  0  0  0  0  0  0  0  0  0  0
    7.0829   26.3159    1.8625 N   0  0  0  0  0  0  0  0  0  0  0  0
    7.6796   26.6171    0.6778 C   0  0  0  0  0  0  0  0  0  0  0  0
    8.0131   27.8901    0.3838 C   0  0  0  0  0  0  0  0  0  0  0  0
    7.7339   28.8896    1.3114 C   0  0  0  0  0  0  0  0  0  0  0  0
    7.9827   30.3042    1.2009 N   0  0  0  0  0  0  0  0  0  0  0  0
    8.5806   27.8864   -0.8462 N   0  0  0  0  0  0  0  0  0  0  0  0
    8.5990   26.6021   -1.3045 C   0  0  0  0  0  0  0  0  0  0  0  0
    8.0425   25.8246   -0.3538 N   0  0  0  0  0  0  0  0  0  0  0  0
  1  3  1  6  0  0  0
  1  5  2  0  0  0  0
  1  9  1  0  0  0  0
  1 18  1  0  0  0  0
  2  4  1  6  0  0  0
  2  6  2  0  0  0  0
  2 10  1  0  0  0  0
  2 17  1  0  0  0  0
  7  9  1  0  0  0  0
  8 10  1  0  0  0  0
 11  7  1  6  0  0  0
 11 13  1  0  0  0  0
 11 15  1  0  0  0  0
 12  8  1  1  0  0  0
 12 14  1  0  0  0  0
 12 16  1  0  0  0  0
 13 23  1  0  0  0  0
 14 24  1  0  0  0  0
 15 17  1  1  0  0  0
 15 19  1  0  0  0  0
 16 18  1  6  0  0  0
 16 20  1  0  0  0  0
 19 21  1  1  0  0  0
 19 23  1  0  0  0  0
 20 22  1  6  0  0  0
 20 24  1  0  0  0  0
 23 34  1  6  0  0  0
 24 44  1  1  0  0  0
 25 26  2  0  0  0  0
 25 30  1  0  0  0  0
 26 27  1  0  0  0  0
 27 28  2  0  0  0  0
 28 29  1  0  0  0  0
 28 34  1  0  0  0  0
 29 30  2  0  0  0  0
 29 32  1  0  0  0  0
 30 31  1  0  0  0  0
 32 33  2  0  0  0  0
 33 34  1  0  0  0  0
 35 36  2  0  0  0  0
 35 40  1  0  0  0  0
 36 37  1  0  0  0  0
 37 38  2  0  0  0  0
 38 39  1  0  0  0  0
 38 44  1  0  0  0  0
 39 40  2  0  0  0  0
 39 42  1  0  0  0  0
 40 41  1  0  0  0  0
 42 43  2  0  0  0  0
 43 44  1  0  0  0  0
M  CHG  2   3  -1   4  -1
M  END
>  <CHROM.1>
45.90857142,-55.32160924,11.81034059,24.44902498,-0.89602929,0.53209600,0.00122450
-2.11559036

>  <Name>
ligand

>  <RI>
0

>  <Rbt.Current_Directory>
/home/itssahil/PROJECTS/Mol_Feturizer/New_Systems/rnas/4QLM

>  <Rbt.Executable>
rbdock ($Id: //depot/dev/client3/rdock/2013.1/src/exe/rbdock.cxx#4 $)

>  <Rbt.Library>
libRbt.so (2013.1, Build901 2013/11/27)

>  <Rbt.Parameter_File>
/export/apps/rDock/src/rDock_2013.1_src/data/scripts/dock_solv.prm

>  <Rbt.Receptor>
prm/blind_docking_60.prm

>  <SCORE>
78.8416

>  <SCORE.INTER>
66.9403

>  <SCORE.INTER.CONST>
1

>  <SCORE.INTER.POLAR>
0

>  <SCORE.INTER.ROT>
2

>  <SCORE.INTER.SOLV>
42.4586

>  <SCORE.INTER.VDW>
25.5407

>  <SCORE.INTER.norm>
1.52137

>  <SCORE.INTRA>
0.964088

>  <SCORE.INTRA.DIHEDRAL>
0.135974

>  <SCORE.INTRA.DIHEDRAL.0>
2.32994

>  <SCORE.INTRA.POLAR>
0

>  <SCORE.INTRA.POLAR.0>
0

>  <SCORE.INTRA.REPUL>
0

>  <SCORE.INTRA.REPUL.0>
0

>  <SCORE.INTRA.SOLV>
0.378013

>  <SCORE.INTRA.SOLV.lig_0>
-117.703

>  <SCORE.INTRA.VDW>
0.707095

>  <SCORE.INTRA.VDW.0>
-1.59997

>  <SCORE.INTRA.norm>
0.0219111

>  <SCORE.RESTR>
10.9372

>  <SCORE.RESTR.CAVITY>
10.9372

>  <SCORE.RESTR.norm>
0.248572

>  <SCORE.SYSTEM>
0

>  <SCORE.SYSTEM.CONST>
0

>  <SCORE.SYSTEM.DIHEDRAL>
0

>  <SCORE.SYSTEM.SOLV>
0

>  <SCORE.SYSTEM.norm>
0

>  <SCORE.heavy>
44

>  <SCORE.norm>
1.79185

>  <RMSD>
26.188

$$$$
ligand
 OpenBabel11021811513D
libRbt.so/2013.1/901 2013/11/27
 44 50  0  0  0  0  0  0  0  0999 V2000
   12.8420   26.8690   -3.2201 P   0  0  2  0  0  0  0  0  0  0  0  0
   14.8396   22.9246   -0.1126 P   0  0  1  0  0  0  0  0  0  0  0  0
   12.0985   28.1100   -2.7326 O   0  5  0  0  0  0  0  0  0  0  0  0
   14.4820   21.6464   -0.8311 O   0  5  0  0  0  0  0  0  0  0  0  0
   12.3622   26.6198   -4.6298 O   0  0  0  0  0  0  0  0  0  0  0  0
   15.8733   22.5660    0.9792 O   0  0  0  0  0  0  0  0  0  0  0  0
   12.1603   26.1776   -0.8752 C   0  0  0  0  0  0  0  0  0  0  0  0
   15.5736   25.2997   -0.8114 C   0  0  0  0  0  0  0  0  0  0  0  0
   12.4542   25.7417   -2.2093 O   0  0  0  0  0  0  0  0  0  0  0  0
   15.2939   23.9600   -1.3069 O   0  0  0  0  0  0  0  0  0  0  0  0
   11.7535   24.9883   -0.0117 C   0  0  1  0  0  0  0  0  0  0  0  0
   16.1229   26.1177   -2.0405 C   0  0  1  0  0  0  0  0  0  0  0  0
   10.4863   24.7755   -0.1879 O   0  0  0  0  0  0  0  0  0  0  0  0
   17.0540   25.4034   -2.5270 O   0  0  0  0  0  0  0  0  0  0  0  0
   12.4642   23.7083   -0.3870 C   0  0  1  0  0  0  0  0  0  0  0  0
   15.0916   26.1514   -3.1861 C   0  0  1  0  0  0  0  0  0  0  0  0
   13.4738   23.5469    0.5091 O   0  0  0  0  0  0  0  0  0  0  0  0
   14.4390   27.3196   -3.2211 O   0  0  0  0  0  0  0  0  0  0  0  0
   11.3695   22.6045   -0.1787 C   0  0  1  0  0  0  0  0  0  0  0  0
   15.8695   25.9060   -4.4991 C   0  0  1  0  0  0  0  0  0  0  0  0
   11.5986   21.8939    1.1081 O   0  0  0  0  0  0  0  0  0  0  0  0
   16.0730   27.1943   -5.2369 O   0  0  0  0  0  0  0  0  0  0  0  0
   10.2261   23.2116   -0.1777 C   0  0  2  0  0  0  0  0  0  0  0  0
   17.0106   25.4369   -4.1266 C   0  0  2  0  0  0  0  0  0  0  0  0
    6.3949   23.8440   -3.8848 N   0  0  0  0  0  0  0  0  0  0  0  0
    6.7114   24.7403   -2.9082 C   0  0  0  0  0  0  0  0  0  0  0  0
    7.7125   24.4838   -2.0063 N   0  0  0  0  0  0  0  0  0  0  0  0
    8.3986   23.3040   -2.0940 C   0  0  0  0  0  0  0  0  0  0  0  0
    8.0939   22.4096   -3.0446 C   0  0  0  0  0  0  0  0  0  0  0  0
    7.0815   22.6822   -3.9630 C   0  0  0  0  0  0  0  0  0  0  0  0
    6.6655   21.8305   -5.0054 N   0  0  0  0  0  0  0  0  0  0  0  0
    8.9226   21.3539   -2.9002 N   0  0  0  0  0  0  0  0  0  0  0  0
    9.7412   21.6060   -1.8393 C   0  0  0  0  0  0  0  0  0  0  0  0
    9.4317   22.8146   -1.3518 N   0  0  0  0  0  0  0  0  0  0  0  0
   20.2993   22.0335   -6.2994 N   0  0  0  0  0  0  0  0  0  0  0  0
   20.5506   23.3369   -6.0089 C   0  0  0  0  0  0  0  0  0  0  0  0
   19.5711   24.1029   -5.4423 N   0  0  0  0  0  0  0  0  0  0  0  0
   18.3535   23.5633   -5.1653 C   0  0  0  0  0  0  0  0  0  0  0  0
   18.0985   22.2695   -5.4466 C   0  0  0  0  0  0  0  0  0  0  0  0
   19.1005   21.4975   -6.0273 C   0  0  0  0  0  0  0  0  0  0  0  0
   19.0435   20.1144   -6.4258 N   0  0  0  0  0  0  0  0  0  0  0  0
   16.8222   22.0168   -5.0693 N   0  0  0  0  0  0  0  0  0  0  0  0
   16.2957   23.1622   -4.5489 C   0  0  0  0  0  0  0  0  0  0  0  0
   17.2513   24.1116   -4.6100 N   0  0  0  0  0  0  0  0  0  0  0  0
  1  3  1  1  0  0  0
  1  5  2  0  0  0  0
  1  9  1  0  0  0  0
  1 18  1  0  0  0  0
  2  4  1  6  0  0  0
  2  6  2  0  0  0  0
  2 10  1  0  0  0  0
  2 17  1  0  0  0  0
  7  9  1  0  0  0  0
  8 10  1  0  0  0  0
 11  7  1  6  0  0  0
 11 13  1  0  0  0  0
 11 15  1  0  0  0  0
 12  8  1  1  0  0  0
 12 14  1  0  0  0  0
 12 16  1  0  0  0  0
 13 23  1  0  0  0  0
 14 24  1  0  0  0  0
 15 17  1  1  0  0  0
 15 19  1  0  0  0  0
 16 18  1  6  0  0  0
 16 20  1  0  0  0  0
 19 21  1  1  0  0  0
 19 23  1  0  0  0  0
 20 22  1  1  0  0  0
 20 24  1  0  0  0  0
 23 34  1  6  0  0  0
 24 44  1  6  0  0  0
 25 26  2  0  0  0  0
 25 30  1  0  0  0  0
 26 27  1  0  0  0  0
 27 28  2  0  0  0  0
 28 29  1  0  0  0  0
 28 34  1  0  0  0  0
 29 30  2  0  0  0  0
 29 32  1  0  0  0  0
 30 31  1  0  0  0  0
 32 33  2  0  0  0  0
 33 34  1  0  0  0  0
 35 36  2  0  0  0  0
 35 40  1  0  0  0  0
 36 37  1  0  0  0  0
 37 38  2  0  0  0  0
 38 39  1  0  0  0  0
 38 44  1  0  0  0  0
 39 40  2  0  0  0  0
 39 42  1  0  0  0  0
 40 41  1  0  0  0  0
 42 43  2  0  0  0  0
 43 44  1  0  0  0  0
M  CHG  2   3  -1   4  -1
M  END
>  <CHROM.1>
-37.56777366,-104.13013246,13.56795751,24.05110203,-2.68728158,3.01725840
-0.25234886,2.67533174

>  <Name>
ligand

>  <RI>
0

>  <Rbt.Current_Directory>
/home/itssahil/PROJECTS/Mol_Feturizer/New_Systems/rnas/4QLM

>  <Rbt.Executable>
rbdock ($Id: //depot/dev/client3/rdock/2013.1/src/exe/rbdock.cxx#4 $)

>  <Rbt.Library>
libRbt.so (2013.1, Build901 2013/11/27)

>  <Rbt.Parameter_File>
/export/apps/rDock/src/rDock_2013.1_src/data/scripts/dock_solv.prm

>  <Rbt.Receptor>
prm/blind_docking_60.prm

>  <SCORE>
30.0353

>  <SCORE.INTER>
18.429

>  <SCORE.INTER.CONST>
1

>  <SCORE.INTER.POLAR>
0

>  <SCORE.INTER.ROT>
2

>  <SCORE.INTER.SOLV>
46.4465

>  <SCORE.INTER.VDW>
-8.12946

>  <SCORE.INTER.norm>
0.418842

>  <SCORE.INTRA>
3.8617

>  <SCORE.INTRA.DIHEDRAL>
-0.0375945

>  <SCORE.INTRA.DIHEDRAL.0>
2.32994

>  <SCORE.INTRA.POLAR>
0

>  <SCORE.INTRA.POLAR.0>
0

>  <SCORE.INTRA.REPUL>
0

>  <SCORE.INTRA.REPUL.0>
0

>  <SCORE.INTRA.SOLV>
0.0614957

>  <SCORE.INTRA.SOLV.lig_0>
-117.703

>  <SCORE.INTRA.VDW>
3.84975

>  <SCORE.INTRA.VDW.0>
-1.59997

>  <SCORE.INTRA.norm>
0.0877659

>  <SCORE.RESTR>
7.74455

>  <SCORE.RESTR.CAVITY>
7.74455

>  <SCORE.RESTR.norm>
0.176013

>  <SCORE.SYSTEM>
0

>  <SCORE.SYSTEM.CONST>
0

>  <SCORE.SYSTEM.DIHEDRAL>
0

>  <SCORE.SYSTEM.SOLV>
0

>  <SCORE.SYSTEM.norm>
0

>  <SCORE.heavy>
44

>  <SCORE.norm>
0.68262

>  <RMSD>
26.274

$$$$
ligand
 OpenBabel11021811513D
libRbt.so/2013.1/901 2013/11/27
 44 50  0  0  0  0  0  0  0  0999 V2000
   12.7827   26.9080   -3.2048 P   0  0  2  0  0  0  0  0  0  0  0  0
   14.8625   22.8685   -0.2788 P   0  0  1  0  0  0  0  0  0  0  0  0
   11.8838   28.0267   -2.6842 O   0  5  0  0  0  0  0  0  0  0  0  0
   14.6938   21.6399   -1.1391 O   0  5  0  0  0  0  0  0  0  0  0  0
   12.4564   26.7562   -4.6711 O   0  0  0  0  0  0  0  0  0  0  0  0
   15.8242   22.4965    0.8727 O   0  0  0  0  0  0  0  0  0  0  0  0
   11.9639   25.9357   -1.0081 C   0  0  0  0  0  0  0  0  0  0  0  0
   15.4260   25.3549   -0.6895 C   0  0  0  0  0  0  0  0  0  0  0  0
   12.4157   25.6586   -2.3405 O   0  0  0  0  0  0  0  0  0  0  0  0
   15.3205   24.0504   -1.3266 O   0  0  0  0  0  0  0  0  0  0  0  0
   11.5970   24.6375   -0.2971 C   0  0  1  0  0  0  0  0  0  0  0  0
   16.0021   26.3328   -1.7818 C   0  0  1  0  0  0  0  0  0  0  0  0
   10.3766   24.3338   -0.6144 O   0  0  0  0  0  0  0  0  0  0  0  0
   17.0367   25.7524   -2.2364 O   0  0  0  0  0  0  0  0  0  0  0  0
   12.4571   23.4664   -0.7132 C   0  0  1  0  0  0  0  0  0  0  0  0
   15.0785   26.3881   -3.0151 C   0  0  1  0  0  0  0  0  0  0  0  0
   13.3936   23.3068    0.2594 O   0  0  0  0  0  0  0  0  0  0  0  0
   14.3232   27.4932   -3.0101 O   0  0  0  0  0  0  0  0  0  0  0  0
   11.4584   22.2569   -0.7113 C   0  0  1  0  0  0  0  0  0  0  0  0
   15.9901   26.3397   -4.2625 C   0  0  1  0  0  0  0  0  0  0  0  0
   11.6388   21.4472    0.5237 O   0  0  0  0  0  0  0  0  0  0  0  0
   16.1348   27.7063   -4.8599 O   0  0  0  0  0  0  0  0  0  0  0  0
   10.2669   22.7596   -0.7681 C   0  0  2  0  0  0  0  0  0  0  0  0
   17.1330   25.9372   -3.8233 C   0  0  2  0  0  0  0  0  0  0  0  0
    6.2891   22.8251   -4.3728 N   0  0  0  0  0  0  0  0  0  0  0  0
    6.2919   23.4849   -3.1804 C   0  0  0  0  0  0  0  0  0  0  0  0
    7.3625   23.4044   -2.3267 N   0  0  0  0  0  0  0  0  0  0  0  0
    8.4413   22.6441   -2.6851 C   0  0  0  0  0  0  0  0  0  0  0  0
    8.4501   21.9836   -3.8512 C   0  0  0  0  0  0  0  0  0  0  0  0
    7.3620   22.0783   -4.7172 C   0  0  0  0  0  0  0  0  0  0  0  0
    7.2468   21.4372   -5.9664 N   0  0  0  0  0  0  0  0  0  0  0  0
    9.6258   21.3270   -3.9459 N   0  0  0  0  0  0  0  0  0  0  0  0
   10.3424   21.5859   -2.8152 C   0  0  0  0  0  0  0  0  0  0  0  0
    9.6218   22.4112   -2.0447 N   0  0  0  0  0  0  0  0  0  0  0  0
   18.4431   20.9461   -3.1215 N   0  0  0  0  0  0  0  0  0  0  0  0
   18.1039   21.8422   -2.1580 C   0  0  0  0  0  0  0  0  0  0  0  0
   17.7913   23.1252   -2.5097 N   0  0  0  0  0  0  0  0  0  0  0  0
   17.8137   23.5022   -3.8165 C   0  0  0  0  0  0  0  0  0  0  0  0
   18.1449   22.6172   -4.7784 C   0  0  0  0  0  0  0  0  0  0  0  0
   18.4657   21.3136   -4.4110 C   0  0  0  0  0  0  0  0  0  0  0  0
   18.8628   20.2195   -5.2597 N   0  0  0  0  0  0  0  0  0  0  0  0
   18.0848   23.2675   -5.9652 N   0  0  0  0  0  0  0  0  0  0  0  0
   17.7091   24.5568   -5.7275 C   0  0  0  0  0  0  0  0  0  0  0  0
   17.5411   24.6910   -4.3964 N   0  0  0  0  0  0  0  0  0  0  0  0
  1  3  1  1  0  0  0
  1  5  2  0  0  0  0
  1  9  1  0  0  0  0
  1 18  1  0  0  0  0
  2  4  1  6  0  0  0
  2  6  2  0  0  0  0
  2 10  1  0  0  0  0
  2 17  1  0  0  0  0
  7  9  1  0  0  0  0
  8 10  1  0  0  0  0
 11  7  1  6  0  0  0
 11 13  1  0  0  0  0
 11 15  1  0  0  0  0
 12  8  1  1  0  0  0
 12 14  1  0  0  0  0
 12 16  1  0  0  0  0
 13 23  1  0  0  0  0
 14 24  1  0  0  0  0
 15 17  1  1  0  0  0
 15 19  1  0  0  0  0
 16 18  1  1  0  0  0
 16 20  1  0  0  0  0
 19 21  1  1  0  0  0
 19 23  1  0  0  0  0
 20 22  1  1  0  0  0
 20 24  1  0  0  0  0
 23 34  1  6  0  0  0
 24 44  1  6  0  0  0
 25 26  2  0  0  0  0
 25 30  1  0  0  0  0
 26 27  1  0  0  0  0
 27 28  2  0  0  0  0
 28 29  1  0  0  0  0
 28 34  1  0  0  0  0
 29 30  2  0  0  0  0
 29 32  1  0  0  0  0
 30 31  1  0  0  0  0
 32 33  2  0  0  0  0
 33 34  1  0  0  0  0
 35 36  2  0  0  0  0
 35 40  1  0  0  0  0
 36 37  1  0  0  0  0
 37 38  2  0  0  0  0
 38 39  1  0  0  0  0
 38 44  1  0  0  0  0
 39 40  2  0  0  0  0
 39 42  1  0  0  0  0
 40 41  1  0  0  0  0
 42 43  2  0  0  0  0
 43 44  1  0  0  0  0
M  CHG  2   3  -1   4  -1
M  END
>  <CHROM.1>
-58.58018001,0.58786044,13.50439120,23.92220138,-2.61255723,3.02998909,-0.04429883
2.91509844

>  <Name>
ligand

>  <RI>
0

>  <Rbt.Current_Directory>
/home/itssahil/PROJECTS/Mol_Feturizer/New_Systems/rnas/4QLM

>  <Rbt.Executable>
rbdock ($Id: //depot/dev/client3/rdock/2013.1/src/exe/rbdock.cxx#4 $)

>  <Rbt.Library>
libRbt.so (2013.1, Build901 2013/11/27)

>  <Rbt.Parameter_File>
/export/apps/rDock/src/rDock_2013.1_src/data/scripts/dock_solv.prm

>  <Rbt.Receptor>
prm/blind_docking_60.prm

>  <SCORE>
32.2973

>  <SCORE.INTER>
24.1903

>  <SCORE.INTER.CONST>
1

>  <SCORE.INTER.POLAR>
0

>  <SCORE.INTER.ROT>
2

>  <SCORE.INTER.SOLV>
52.4572

>  <SCORE.INTER.VDW>
-6.2922

>  <SCORE.INTER.norm>
0.549779

>  <SCORE.INTRA>
4.38053

>  <SCORE.INTRA.DIHEDRAL>
0.0529795

>  <SCORE.INTRA.DIHEDRAL.0>
2.32994

>  <SCORE.INTRA.POLAR>
0

>  <SCORE.INTRA.POLAR.0>
0

>  <SCORE.INTRA.REPUL>
0

>  <SCORE.INTRA.REPUL.0>
0

>  <SCORE.INTRA.SOLV>
0.760356

>  <SCORE.INTRA.SOLV.lig_0>
-117.703

>  <SCORE.INTRA.VDW>
3.97386

>  <SCORE.INTRA.VDW.0>
-1.59997

>  <SCORE.INTRA.norm>
0.0995574

>  <SCORE.RESTR>
3.72644

>  <SCORE.RESTR.CAVITY>
3.72644

>  <SCORE.RESTR.norm>
0.0846918

>  <SCORE.SYSTEM>
0

>  <SCORE.SYSTEM.CONST>
0

>  <SCORE.SYSTEM.DIHEDRAL>
0

>  <SCORE.SYSTEM.SOLV>
0

>  <SCORE.SYSTEM.norm>
0

>  <SCORE.heavy>
44

>  <SCORE.norm>
0.734029

>  <RMSD>
26.337

$$$$
ligand
 OpenBabel11021811513D
libRbt.so/2013.1/901 2013/11/27
 44 50  0  0  0  0  0  0  0  0999 V2000
   15.0486   23.1361    0.0792 P   0  0  2  0  0  0  0  0  0  0  0  0
   12.8592   26.6109   -3.4334 P   0  0  1  0  0  0  0  0  0  0  0  0
   15.9990   23.4886    1.2206 O   0  5  0  0  0  0  0  0  0  0  0  0
   12.9657   25.9257   -4.7739 O   0  5  0  0  0  0  0  0  0  0  0  0
   15.3449   21.7012   -0.2850 O   0  0  0  0  0  0  0  0  0  0  0  0
   11.9024   27.8127   -3.6045 O   0  0  0  0  0  0  0  0  0  0  0  0
   15.8639   25.4367   -0.6164 C   0  0  0  0  0  0  0  0  0  0  0  0
   12.3873   25.8688   -1.0054 C   0  0  0  0  0  0  0  0  0  0  0  0
   15.3801   24.1598   -1.0543 O   0  0  0  0  0  0  0  0  0  0  0  0
   12.4311   25.4156   -2.3880 O   0  0  0  0  0  0  0  0  0  0  0  0
   16.1910   26.3152   -1.8192 C   0  0  1  0  0  0  0  0  0  0  0  0
   11.8325   24.6587   -0.1632 C   0  0  1  0  0  0  0  0  0  0  0  0
   17.3932   26.0297   -2.2134 O   0  0  0  0  0  0  0  0  0  0  0  0
   10.7687   24.2990   -0.7573 O   0  0  0  0  0  0  0  0  0  0  0  0
   15.2790   26.0731   -2.9999 C   0  0  1  0  0  0  0  0  0  0  0  0
   12.7375   23.4197   -0.3151 C   0  0  1  0  0  0  0  0  0  0  0  0
   14.3528   27.0682   -2.9863 O   0  0  0  0  0  0  0  0  0  0  0  0
   13.5356   23.2650    0.7484 O   0  0  0  0  0  0  0  0  0  0  0  0
   16.2293   26.2303   -4.2377 C   0  0  1  0  0  0  0  0  0  0  0  0
   11.8047   22.2006   -0.4961 C   0  0  1  0  0  0  0  0  0  0  0  0
   16.0373   27.5667   -4.8628 O   0  0  0  0  0  0  0  0  0  0  0  0
   11.7041   21.4228    0.7807 O   0  0  0  0  0  0  0  0  0  0  0  0
   17.4385   26.0924   -3.7969 C   0  0  2  0  0  0  0  0  0  0  0  0
   10.6541   22.7029   -0.7874 C   0  0  2  0  0  0  0  0  0  0  0  0
   17.3830   21.0679   -5.6871 N   0  0  0  0  0  0  0  0  0  0  0  0
   16.2893   21.7847   -5.3033 C   0  0  0  0  0  0  0  0  0  0  0  0
   16.4102   23.0677   -4.8332 N   0  0  0  0  0  0  0  0  0  0  0  0
   17.6544   23.6290   -4.7488 C   0  0  0  0  0  0  0  0  0  0  0  0
   18.7400   22.9340   -5.1157 C   0  0  0  0  0  0  0  0  0  0  0  0
   18.6075   21.6342   -5.6012 C   0  0  0  0  0  0  0  0  0  0  0  0
   19.6638   20.8003   -6.0183 N   0  0  0  0  0  0  0  0  0  0  0  0
   19.8186   23.7251   -4.9341 N   0  0  0  0  0  0  0  0  0  0  0  0
   19.3836   24.9198   -4.4415 C   0  0  0  0  0  0  0  0  0  0  0  0
   18.0488   24.8690   -4.3428 N   0  0  0  0  0  0  0  0  0  0  0  0
    6.6637   22.1345   -4.0849 N   0  0  0  0  0  0  0  0  0  0  0  0
    6.6044   22.5875   -2.8052 C   0  0  0  0  0  0  0  0  0  0  0  0
    7.7501   22.6709   -2.0652 N   0  0  0  0  0  0  0  0  0  0  0  0
    8.9439   22.3083   -2.6073 C   0  0  0  0  0  0  0  0  0  0  0  0
    9.0109   21.8622   -3.8780 C   0  0  0  0  0  0  0  0  0  0  0  0
    7.8386   21.7767   -4.6233 C   0  0  0  0  0  0  0  0  0  0  0  0
    7.6742   21.3154   -5.9780 N   0  0  0  0  0  0  0  0  0  0  0  0
   10.3093   21.5776   -4.1394 N   0  0  0  0  0  0  0  0  0  0  0  0
   11.0411   21.8567   -3.0230 C   0  0  0  0  0  0  0  0  0  0  0  0
   10.1882   22.3107   -2.0825 N   0  0  0  0  0  0  0  0  0  0  0  0
  1  3  1  1  0  0  0
  1  5  2  0  0  0  0
  1  9  1  0  0  0  0
  1 18  1  0  0  0  0
  2  4  1  6  0  0  0
  2  6  2  0  0  0  0
  2 10  1  0  0  0  0
  2 17  1  0  0  0  0
  7  9  1  0  0  0  0
  8 10  1  0  0  0  0
 11  7  1  1  0  0  0
 11 13  1  0  0  0  0
 11 15  1  0  0  0  0
 12  8  1  6  0  0  0
 12 14  1  0  0  0  0
 12 16  1  0  0  0  0
 13 23  1  0  0  0  0
 14 24  1  0  0  0  0
 15 17  1  6  0  0  0
 15 19  1  0  0  0  0
 16 18  1  1  0  0  0
 16 20  1  0  0  0  0
 19 21  1  1  0  0  0
 19 23  1  0  0  0  0
 20 22  1  1  0  0  0
 20 24  1  0  0  0  0
 23 34  1  6  0  0  0
 24 44  1  6  0  0  0
 25 26  2  0  0  0  0
 25 30  1  0  0  0  0
 26 27  1  0  0  0  0
 27 28  2  0  0  0  0
 28 29  1  0  0  0  0
 28 34  1  0  0  0  0
 29 30  2  0  0  0  0
 29 32  1  0  0  0  0
 30 31  1  0  0  0  0
 32 33  2  0  0  0  0
 33 34  1  0  0  0  0
 35 36  2  0  0  0  0
 35 40  1  0  0  0  0
 36 37  1  0  0  0  0
 37 38  2  0  0  0  0
 38 39  1  0  0  0  0
 38 44  1  0  0  0  0
 39 40  2  0  0  0  0
 39 42  1  0  0  0  0
 40 41  1  0  0  0  0
 42 43  2  0  0  0  0
 43 44  1  0  0  0  0
M  CHG  2   3  -1   4  -1
M  END
>  <CHROM.1>
89.30302653,-79.63709557,13.75844110,23.89148220,-2.73014828,-0.05690398
0.22817418,1.08079010

>  <Name>
ligand

>  <RI>
0

>  <Rbt.Current_Directory>
/home/itssahil/PROJECTS/Mol_Feturizer/New_Systems/rnas/4QLM

>  <Rbt.Executable>
rbdock ($Id: //depot/dev/client3/rdock/2013.1/src/exe/rbdock.cxx#4 $)

>  <Rbt.Library>
libRbt.so (2013.1, Build901 2013/11/27)

>  <Rbt.Parameter_File>
/export/apps/rDock/src/rDock_2013.1_src/data/scripts/dock_solv.prm

>  <Rbt.Receptor>
prm/blind_docking_60.prm

>  <SCORE>
41.153

>  <SCORE.INTER>
35.8098

>  <SCORE.INTER.CONST>
1

>  <SCORE.INTER.POLAR>
0

>  <SCORE.INTER.ROT>
2

>  <SCORE.INTER.SOLV>
53.0785

>  <SCORE.INTER.VDW>
1.24704

>  <SCORE.INTER.norm>
0.81386

>  <SCORE.INTRA>
0.962807

>  <SCORE.INTRA.DIHEDRAL>
-0.0438106

>  <SCORE.INTRA.DIHEDRAL.0>
2.32994

>  <SCORE.INTRA.POLAR>
0

>  <SCORE.INTRA.POLAR.0>
0

>  <SCORE.INTRA.REPUL>
0

>  <SCORE.INTRA.REPUL.0>
0

>  <SCORE.INTRA.SOLV>
0.0284464

>  <SCORE.INTRA.SOLV.lig_0>
-117.703

>  <SCORE.INTRA.VDW>
0.970489

>  <SCORE.INTRA.VDW.0>
-1.59997

>  <SCORE.INTRA.norm>
0.021882

>  <SCORE.RESTR>
4.38039

>  <SCORE.RESTR.CAVITY>
4.38039

>  <SCORE.RESTR.norm>
0.0995543

>  <SCORE.SYSTEM>
0

>  <SCORE.SYSTEM.CONST>
0

>  <SCORE.SYSTEM.DIHEDRAL>
0

>  <SCORE.SYSTEM.SOLV>
0

>  <SCORE.SYSTEM.norm>
0

>  <SCORE.heavy>
44

>  <SCORE.norm>
0.935296

>  <RMSD>
26.426

$$$$
ligand
 OpenBabel11021811513D
libRbt.so/2013.1/901 2013/11/27
 44 50  0  0  0  0  0  0  0  0999 V2000
   14.8643   23.3664    0.4526 P   0  0  2  0  0  0  0  0  0  0  0  0
   12.6392   27.1906   -2.6506 P   0  0  1  0  0  0  0  0  0  0  0  0
   15.9320   23.5832    1.5220 O   0  5  0  0  0  0  0  0  0  0  0  0
   12.5806   26.5838   -4.0313 O   0  5  0  0  0  0  0  0  0  0  0  0
   15.0239   21.9401   -0.0159 O   0  0  0  0  0  0  0  0  0  0  0  0
   11.7606   28.4621   -2.6681 O   0  0  0  0  0  0  0  0  0  0  0  0
   15.7813   25.6456   -0.1843 C   0  0  0  0  0  0  0  0  0  0  0  0
   12.3245   26.3333   -0.2352 C   0  0  0  0  0  0  0  0  0  0  0  0
   15.1707   24.4336   -0.6474 O   0  0  0  0  0  0  0  0  0  0  0  0
   12.2169   25.9645   -1.6391 O   0  0  0  0  0  0  0  0  0  0  0  0
   16.0668   26.5728   -1.3609 C   0  0  1  0  0  0  0  0  0  0  0  0
   11.7578   25.1135    0.5849 C   0  0  1  0  0  0  0  0  0  0  0  0
   17.2071   26.2321   -1.8766 O   0  0  0  0  0  0  0  0  0  0  0  0
   10.6238   24.8635    0.0696 O   0  0  0  0  0  0  0  0  0  0  0  0
   15.0419   26.4658   -2.4666 C   0  0  1  0  0  0  0  0  0  0  0  0
   12.5545   23.8284    0.2837 C   0  0  1  0  0  0  0  0  0  0  0  0
   14.1946   27.5181   -2.3146 O   0  0  0  0  0  0  0  0  0  0  0  0
   13.4275   23.5550    1.2610 O   0  0  0  0  0  0  0  0  0  0  0  0
   15.8916   26.6350   -3.7741 C   0  0  1  0  0  0  0  0  0  0  0  0
   11.5240   22.6881    0.1197 C   0  0  1  0  0  0  0  0  0  0  0  0
   15.7439   28.0173   -4.3041 O   0  0  0  0  0  0  0  0  0  0  0  0
   11.4771   21.8415    1.3551 O   0  0  0  0  0  0  0  0  0  0  0  0
   17.1210   26.3893   -3.4519 C   0  0  2  0  0  0  0  0  0  0  0  0
   10.3920   23.2836   -0.0388 C   0  0  2  0  0  0  0  0  0  0  0  0
   16.6894   21.3130   -5.1450 N   0  0  0  0  0  0  0  0  0  0  0  0
   15.7231   22.0177   -4.4918 C   0  0  0  0  0  0  0  0  0  0  0  0
   15.9324   23.3157   -4.1008 N   0  0  0  0  0  0  0  0  0  0  0  0
   17.1362   23.9048   -4.3729 C   0  0  0  0  0  0  0  0  0  0  0  0
   18.0989   23.2222   -5.0082 C   0  0  0  0  0  0  0  0  0  0  0  0
   17.8746   21.9067   -5.4105 C   0  0  0  0  0  0  0  0  0  0  0  0
   18.7991   21.0833   -6.0830 N   0  0  0  0  0  0  0  0  0  0  0  0
   19.1637   24.0402   -5.1465 N   0  0  0  0  0  0  0  0  0  0  0  0
   18.8473   25.2392   -4.5795 C   0  0  0  0  0  0  0  0  0  0  0  0
   17.5922   25.1637   -4.1176 N   0  0  0  0  0  0  0  0  0  0  0  0
   10.9614   21.7400   -4.9798 N   0  0  0  0  0  0  0  0  0  0  0  0
   11.9434   21.8745   -4.0504 C   0  0  0  0  0  0  0  0  0  0  0  0
   11.6270   22.3003   -2.7911 N   0  0  0  0  0  0  0  0  0  0  0  0
   10.3362   22.5826   -2.4674 C   0  0  0  0  0  0  0  0  0  0  0  0
    9.3558   22.4470   -3.3832 C   0  0  0  0  0  0  0  0  0  0  0  0
    9.6876   22.0165   -4.6646 C   0  0  0  0  0  0  0  0  0  0  0  0
    8.8152   21.8215   -5.7942 N   0  0  0  0  0  0  0  0  0  0  0  0
    8.1917   22.7966   -2.7852 N   0  0  0  0  0  0  0  0  0  0  0  0
    8.4617   23.1428   -1.4940 C   0  0  0  0  0  0  0  0  0  0  0  0
    9.7898   23.0042   -1.3066 N   0  0  0  0  0  0  0  0  0  0  0  0
  1  3  1  1  0  0  0
  1  5  2  0  0  0  0
  1  9  1  0  0  0  0
  1 18  1  0  0  0  0
  2  4  1  6  0  0  0
  2  6  2  0  0  0  0
  2 10  1  0  0  0  0
  2 17  1  0  0  0  0
  7  9  1  0  0  0  0
  8 10  1  0  0  0  0
 11  7  1  1  0  0  0
 11 13  1  0  0  0  0
 11 15  1  0  0  0  0
 12  8  1  6  0  0  0
 12 14  1  0  0  0  0
 12 16  1  0  0  0  0
 13 23  1  0  0  0  0
 14 24  1  0  0  0  0
 15 17  1  1  0  0  0
 15 19  1  0  0  0  0
 16 18  1  1  0  0  0
 16 20  1  0  0  0  0
 19 21  1  1  0  0  0
 19 23  1  0  0  0  0
 20 22  1  1  0  0  0
 20 24  1  0  0  0  0
 23 34  1  6  0  0  0
 24 44  1  6  0  0  0
 25 26  2  0  0  0  0
 25 30  1  0  0  0  0
 26 27  1  0  0  0  0
 27 28  2  0  0  0  0
 28 29  1  0  0  0  0
 28 34  1  0  0  0  0
 29 30  2  0  0  0  0
 29 32  1  0  0  0  0
 30 31  1  0  0  0  0
 32 33  2  0  0  0  0
 33 34  1  0  0  0  0
 35 36  2  0  0  0  0
 35 40  1  0  0  0  0
 36 37  1  0  0  0  0
 37 38  2  0  0  0  0
 38 39  1  0  0  0  0
 38 44  1  0  0  0  0
 39 40  2  0  0  0  0
 39 42  1  0  0  0  0
 40 41  1  0  0  0  0
 42 43  2  0  0  0  0
 43 44  1  0  0  0  0
M  CHG  2   3  -1   4  -1
M  END
>  <CHROM.1>
76.25684644,98.25060789,13.77992415,24.25362284,-2.30444472,-0.14562756,0.33087341
0.84999746

>  <Name>
ligand

>  <RI>
0

>  <Rbt.Current_Directory>
/home/itssahil/PROJECTS/Mol_Feturizer/New_Systems/rnas/4QLM

>  <Rbt.Executable>
rbdock ($Id: //depot/dev/client3/rdock/2013.1/src/exe/rbdock.cxx#4 $)

>  <Rbt.Library>
libRbt.so (2013.1, Build901 2013/11/27)

>  <Rbt.Parameter_File>
/export/apps/rDock/src/rDock_2013.1_src/data/scripts/dock_solv.prm

>  <Rbt.Receptor>
prm/blind_docking_40.prm

>  <SCORE>
37.9401

>  <SCORE.INTER>
33.4269

>  <SCORE.INTER.CONST>
1

>  <SCORE.INTER.POLAR>
0

>  <SCORE.INTER.ROT>
2

>  <SCORE.INTER.SOLV>
50.437

>  <SCORE.INTER.VDW>
0.53892

>  <SCORE.INTER.norm>
0.759702

>  <SCORE.INTRA>
-0.918819

>  <SCORE.INTRA.DIHEDRAL>
-0.00445095

>  <SCORE.INTRA.DIHEDRAL.0>
2.32994

>  <SCORE.INTRA.POLAR>
0

>  <SCORE.INTRA.POLAR.0>
0

>  <SCORE.INTRA.REPUL>
0

>  <SCORE.INTRA.REPUL.0>
0

>  <SCORE.INTRA.SOLV>
0.0229148

>  <SCORE.INTRA.SOLV.lig_0>
-117.703

>  <SCORE.INTRA.VDW>
-0.928051

>  <SCORE.INTRA.VDW.0>
-1.59997

>  <SCORE.INTRA.norm>
-0.0208823

>  <SCORE.RESTR>
5.43208

>  <SCORE.RESTR.CAVITY>
5.43208

>  <SCORE.RESTR.norm>
0.123456

>  <SCORE.SYSTEM>
0

>  <SCORE.SYSTEM.CONST>
0

>  <SCORE.SYSTEM.DIHEDRAL>
0

>  <SCORE.SYSTEM.SOLV>
0

>  <SCORE.SYSTEM.norm>
0

>  <SCORE.heavy>
44

>  <SCORE.norm>
0.862276

>  <RMSD>
26.532

$$$$
ligand
 OpenBabel11021811513D
libRbt.so/2013.1/901 2013/11/27
 44 50  0  0  0  0  0  0  0  0999 V2000
   14.8850   23.3880    0.4776 P   0  0  2  0  0  0  0  0  0  0  0  0
   12.7452   27.1342   -2.7771 P   0  0  1  0  0  0  0  0  0  0  0  0
   15.9568   23.6235    1.5389 O   0  5  0  0  0  0  0  0  0  0  0  0
   12.6737   26.4746   -4.1328 O   0  5  0  0  0  0  0  0  0  0  0  0
   15.0134   21.9411    0.0661 O   0  0  0  0  0  0  0  0  0  0  0  0
   11.8946   28.4229   -2.8459 O   0  0  0  0  0  0  0  0  0  0  0  0
   15.8519   25.6196   -0.2479 C   0  0  0  0  0  0  0  0  0  0  0  0
   12.4109   26.3802   -0.3300 C   0  0  0  0  0  0  0  0  0  0  0  0
   15.2150   24.4038   -0.6634 O   0  0  0  0  0  0  0  0  0  0  0  0
   12.2958   25.9585   -1.7184 O   0  0  0  0  0  0  0  0  0  0  0  0
   16.1579   26.4931   -1.4599 C   0  0  1  0  0  0  0  0  0  0  0  0
   11.8174   25.2065    0.5370 C   0  0  1  0  0  0  0  0  0  0  0  0
   17.2907   26.1074   -1.9603 O   0  0  0  0  0  0  0  0  0  0  0  0
   10.6784   24.9611    0.0306 O   0  0  0  0  0  0  0  0  0  0  0  0
   15.1313   26.3648   -2.5617 C   0  0  1  0  0  0  0  0  0  0  0  0
   12.5859   23.8933    0.2878 C   0  0  1  0  0  0  0  0  0  0  0  0
   14.3073   27.4406   -2.4525 O   0  0  0  0  0  0  0  0  0  0  0  0
   13.4523   23.6398    1.2762 O   0  0  0  0  0  0  0  0  0  0  0  0
   15.9850   26.4635   -3.8738 C   0  0  1  0  0  0  0  0  0  0  0  0
   11.5307   22.7702    0.1678 C   0  0  1  0  0  0  0  0  0  0  0  0
   15.8677   27.8266   -4.4583 O   0  0  0  0  0  0  0  0  0  0  0  0
   11.4649   21.9744    1.4357 O   0  0  0  0  0  0  0  0  0  0  0  0
   17.2086   26.2039   -3.5407 C   0  0  2  0  0  0  0  0  0  0  0  0
   10.4121   23.3836   -0.0155 C   0  0  2  0  0  0  0  0  0  0  0  0
   16.5253   21.2465   -5.4845 N   0  0  0  0  0  0  0  0  0  0  0  0
   15.5407   22.0497   -4.9921 C   0  0  0  0  0  0  0  0  0  0  0  0
   15.8198   23.3062   -4.5180 N   0  0  0  0  0  0  0  0  0  0  0  0
   17.1124   23.7523   -4.5412 C   0  0  0  0  0  0  0  0  0  0  0  0
   18.0926   22.9710   -5.0158 C   0  0  0  0  0  0  0  0  0  0  0  0
   17.7990   21.6991   -5.5043 C   0  0  0  0  0  0  0  0  0  0  0  0
   18.7329   20.7834   -6.0281 N   0  0  0  0  0  0  0  0  0  0  0  0
   19.2507   23.6585   -4.9239 N   0  0  0  0  0  0  0  0  0  0  0  0
   18.9726   24.8764   -4.3774 C   0  0  0  0  0  0  0  0  0  0  0  0
   17.6531   24.9429   -4.1568 N   0  0  0  0  0  0  0  0  0  0  0  0
   10.9610   21.7043   -4.9144 N   0  0  0  0  0  0  0  0  0  0  0  0
   11.9473   21.8672   -3.9941 C   0  0  0  0  0  0  0  0  0  0  0  0
   11.6359   22.3271   -2.7455 N   0  0  0  0  0  0  0  0  0  0  0  0
   10.3460   22.6151   -2.4234 C   0  0  0  0  0  0  0  0  0  0  0  0
    9.3615   22.4516   -3.3301 C   0  0  0  0  0  0  0  0  0  0  0  0
    9.6880   21.9864   -4.6006 C   0  0  0  0  0  0  0  0  0  0  0  0
    8.8105   21.7578   -5.7199 N   0  0  0  0  0  0  0  0  0  0  0  0
    8.1995   22.8149   -2.7362 N   0  0  0  0  0  0  0  0  0  0  0  0
    8.4750   23.1976   -1.4565 C   0  0  0  0  0  0  0  0  0  0  0  0
    9.8043   23.0675   -1.2720 N   0  0  0  0  0  0  0  0  0  0  0  0
  1  3  1  1  0  0  0
  1  5  2  0  0  0  0
  1  9  1  0  0  0  0
  1 18  1  0  0  0  0
  2  4  1  6  0  0  0
  2  6  2  0  0  0  0
  2 10  1  0  0  0  0
  2 17  1  0  0  0  0
  7  9  1  0  0  0  0
  8 10  1  0  0  0  0
 11  7  1  1  0  0  0
 11 13  1  0  0  0  0
 11 15  1  0  0  0  0
 12  8  1  6  0  0  0
 12 14  1  0  0  0  0
 12 16  1  0  0  0  0
 13 23  1  0  0  0  0
 14 24  1  0  0  0  0
 15 17  1  6  0  0  0
 15 19  1  0  0  0  0
 16 18  1  1  0  0  0
 16 20  1  0  0  0  0
 19 21  1  1  0  0  0
 19 23  1  0  0  0  0
 20 22  1  1  0  0  0
 20 24  1  0  0  0  0
 23 34  1  6  0  0  0
 24 44  1  6  0  0  0
 25 26  2  0  0  0  0
 25 30  1  0  0  0  0
 26 27  1  0  0  0  0
 27 28  2  0  0  0  0
 28 29  1  0  0  0  0
 28 34  1  0  0  0  0
 29 30  2  0  0  0  0
 29 32  1  0  0  0  0
 30 31  1  0  0  0  0
 32 33  2  0  0  0  0
 33 34  1  0  0  0  0
 35 36  2  0  0  0  0
 35 40  1  0  0  0  0
 36 37  1  0  0  0  0
 37 38  2  0  0  0  0
 38 39  1  0  0  0  0
 38 44  1  0  0  0  0
 39 40  2  0  0  0  0
 39 42  1  0  0  0  0
 40 41  1  0  0  0  0
 42 43  2  0  0  0  0
 43 44  1  0  0  0  0
M  CHG  2   3  -1   4  -1
M  END
>  <CHROM.1>
88.86089453,96.66342400,13.81159970,24.20545873,-2.34583502,-2.94521407,-0.31019847
-2.24734737

>  <Name>
ligand

>  <RI>
0

>  <Rbt.Current_Directory>
/home/itssahil/PROJECTS/Mol_Feturizer/New_Systems/rnas/4QLM

>  <Rbt.Executable>
rbdock ($Id: //depot/dev/client3/rdock/2013.1/src/exe/rbdock.cxx#4 $)

>  <Rbt.Library>
libRbt.so (2013.1, Build901 2013/11/27)

>  <Rbt.Parameter_File>
/export/apps/rDock/src/rDock_2013.1_src/data/scripts/dock_solv.prm

>  <Rbt.Receptor>
prm/blind_docking_40.prm

>  <SCORE>
34.1141

>  <SCORE.INTER>
29.7632

>  <SCORE.INTER.CONST>
1

>  <SCORE.INTER.POLAR>
0

>  <SCORE.INTER.ROT>
2

>  <SCORE.INTER.SOLV>
52.3528

>  <SCORE.INTER.VDW>
-2.54213

>  <SCORE.INTER.norm>
0.676437

>  <SCORE.INTRA>
-0.801171

>  <SCORE.INTRA.DIHEDRAL>
-0.0243049

>  <SCORE.INTRA.DIHEDRAL.0>
2.32994

>  <SCORE.INTRA.POLAR>
0

>  <SCORE.INTRA.POLAR.0>
0

>  <SCORE.INTRA.REPUL>
0

>  <SCORE.INTRA.REPUL.0>
0

>  <SCORE.INTRA.SOLV>
0.0275463

>  <SCORE.INTRA.SOLV.lig_0>
-117.703

>  <SCORE.INTRA.VDW>
-0.802792

>  <SCORE.INTRA.VDW.0>
-1.59997

>  <SCORE.INTRA.norm>
-0.0182084

>  <SCORE.RESTR>
5.15211

>  <SCORE.RESTR.CAVITY>
5.15211

>  <SCORE.RESTR.norm>
0.117093

>  <SCORE.SYSTEM>
0

>  <SCORE.SYSTEM.CONST>
0

>  <SCORE.SYSTEM.DIHEDRAL>
0

>  <SCORE.SYSTEM.SOLV>
0

>  <SCORE.SYSTEM.norm>
0

>  <SCORE.heavy>
44

>  <SCORE.norm>
0.775322

>  <RMSD>
26.555

$$$$
ligand
 OpenBabel11021811513D
libRbt.so/2013.1/901 2013/11/27
 44 50  0  0  0  0  0  0  0  0999 V2000
   14.8842   23.3907    0.4798 P   0  0  2  0  0  0  0  0  0  0  0  0
   12.7460   27.1294   -2.7845 P   0  0  1  0  0  0  0  0  0  0  0  0
   15.9542   23.6290    1.5422 O   0  5  0  0  0  0  0  0  0  0  0  0
   12.6772   26.4675   -4.1392 O   0  5  0  0  0  0  0  0  0  0  0  0
   15.0144   21.9432    0.0710 O   0  0  0  0  0  0  0  0  0  0  0  0
   11.8945   28.4173   -2.8568 O   0  0  0  0  0  0  0  0  0  0  0  0
   15.8503   25.6219   -0.2481 C   0  0  0  0  0  0  0  0  0  0  0  0
   12.4088   26.3794   -0.3366 C   0  0  0  0  0  0  0  0  0  0  0  0
   15.2151   24.4048   -0.6624 O   0  0  0  0  0  0  0  0  0  0  0  0
   12.2961   25.9553   -1.7245 O   0  0  0  0  0  0  0  0  0  0  0  0
   16.1574   26.4935   -1.4611 C   0  0  1  0  0  0  0  0  0  0  0  0
   11.8150   25.2067    0.5315 C   0  0  1  0  0  0  0  0  0  0  0  0
   17.2912   26.1079   -1.9593 O   0  0  0  0  0  0  0  0  0  0  0  0
   10.6769   24.9595    0.0239 O   0  0  0  0  0  0  0  0  0  0  0  0
   15.1325   26.3625   -2.5642 C   0  0  1  0  0  0  0  0  0  0  0  0
   12.5850   23.8937    0.2858 C   0  0  1  0  0  0  0  0  0  0  0  0
   14.3074   27.4377   -2.4581 O   0  0  0  0  0  0  0  0  0  0  0  0
   13.4502   23.6427    1.2758 O   0  0  0  0  0  0  0  0  0  0  0  0
   15.9880   26.4597   -3.8753 C   0  0  1  0  0  0  0  0  0  0  0  0
   11.5309   22.7695    0.1661 C   0  0  1  0  0  0  0  0  0  0  0  0
   15.8705   27.8217   -4.4623 O   0  0  0  0  0  0  0  0  0  0  0  0
   11.4639   21.9759    1.4353 O   0  0  0  0  0  0  0  0  0  0  0  0
   17.2114   26.2016   -3.5399 C   0  0  2  0  0  0  0  0  0  0  0  0
   10.4120   23.3816   -0.0199 C   0  0  2  0  0  0  0  0  0  0  0  0
   16.5346   21.2414   -5.4789 N   0  0  0  0  0  0  0  0  0  0  0  0
   15.5484   22.0450   -4.9901 C   0  0  0  0  0  0  0  0  0  0  0  0
   15.8260   23.3023   -4.5171 N   0  0  0  0  0  0  0  0  0  0  0  0
   17.1185   23.7486   -4.5374 C   0  0  0  0  0  0  0  0  0  0  0  0
   18.1002   22.9671   -5.0084 C   0  0  0  0  0  0  0  0  0  0  0  0
   17.8082   21.6944   -5.4960 C   0  0  0  0  0  0  0  0  0  0  0  0
   18.7437   20.7783   -6.0161 N   0  0  0  0  0  0  0  0  0  0  0  0
   19.2578   23.6550   -4.9144 N   0  0  0  0  0  0  0  0  0  0  0  0
   18.9779   24.8735   -4.3703 C   0  0  0  0  0  0  0  0  0  0  0  0
   17.6579   24.9400   -4.1532 N   0  0  0  0  0  0  0  0  0  0  0  0
   10.9713   21.7064   -4.9190 N   0  0  0  0  0  0  0  0  0  0  0  0
   11.9564   21.8738   -3.9982 C   0  0  0  0  0  0  0  0  0  0  0  0
   11.6423   22.3319   -2.7497 N   0  0  0  0  0  0  0  0  0  0  0  0
   10.3508   22.6134   -2.4280 C   0  0  0  0  0  0  0  0  0  0  0  0
    9.3675   22.4453   -3.3352 C   0  0  0  0  0  0  0  0  0  0  0  0
    9.6969   21.9821   -4.6057 C   0  0  0  0  0  0  0  0  0  0  0  0
    8.8210   21.7495   -5.7254 N   0  0  0  0  0  0  0  0  0  0  0  0
    8.2035   22.8027   -2.7417 N   0  0  0  0  0  0  0  0  0  0  0  0
    8.4765   23.1864   -1.4618 C   0  0  0  0  0  0  0  0  0  0  0  0
    9.8064   23.0629   -1.2768 N   0  0  0  0  0  0  0  0  0  0  0  0
  1  3  1  1  0  0  0
  1  5  2  0  0  0  0
  1  9  1  0  0  0  0
  1 18  1  0  0  0  0
  2  4  1  6  0  0  0
  2  6  2  0  0  0  0
  2 10  1  0  0  0  0
  2 17  1  0  0  0  0
  7  9  1  0  0  0  0
  8 10  1  0  0  0  0
 11  7  1  1  0  0  0
 11 13  1  0  0  0  0
 11 15  1  0  0  0  0
 12  8  1  6  0  0  0
 12 14  1  0  0  0  0
 12 16  1  0  0  0  0
 13 23  1  0  0  0  0
 14 24  1  0  0  0  0
 15 17  1  6  0  0  0
 15 19  1  0  0  0  0
 16 18  1  1  0  0  0
 16 20  1  0  0  0  0
 19 21  1  1  0  0  0
 19 23  1  0  0  0  0
 20 22  1  1  0  0  0
 20 24  1  0  0  0  0
 23 34  1  6  0  0  0
 24 44  1  6  0  0  0
 25 26  2  0  0  0  0
 25 30  1  0  0  0  0
 26 27  1  0  0  0  0
 27 28  2  0  0  0  0
 28 29  1  0  0  0  0
 28 34  1  0  0  0  0
 29 30  2  0  0  0  0
 29 32  1  0  0  0  0
 30 31  1  0  0  0  0
 32 33  2  0  0  0  0
 33 34  1  0  0  0  0
 35 36  2  0  0  0  0
 35 40  1  0  0  0  0
 36 37  1  0  0  0  0
 37 38  2  0  0  0  0
 38 39  1  0  0  0  0
 38 44  1  0  0  0  0
 39 40  2  0  0  0  0
 39 42  1  0  0  0  0
 40 41  1  0  0  0  0
 42 43  2  0  0  0  0
 43 44  1  0  0  0  0
M  CHG  2   3  -1   4  -1
M  END
>  <CHROM.1>
88.93631187,96.39628507,13.81439444,24.20337974,-2.34713508,-2.94576928,-0.30931121
-2.24723833

>  <Name>
ligand

>  <RI>
0

>  <Rbt.Current_Directory>
/home/itssahil/PROJECTS/Mol_Feturizer/New_Systems/rnas/4QLM

>  <Rbt.Executable>
rbdock ($Id: //depot/dev/client3/rdock/2013.1/src/exe/rbdock.cxx#4 $)

>  <Rbt.Library>
libRbt.so (2013.1, Build901 2013/11/27)

>  <Rbt.Parameter_File>
/export/apps/rDock/src/rDock_2013.1_src/data/scripts/dock_solv.prm

>  <Rbt.Receptor>
prm/blind_docking_40.prm

>  <SCORE>
34.2534

>  <SCORE.INTER>
29.9405

>  <SCORE.INTER.CONST>
1

>  <SCORE.INTER.POLAR>
0

>  <SCORE.INTER.ROT>
2

>  <SCORE.INTER.SOLV>
52.4672

>  <SCORE.INTER.VDW>
-2.46207

>  <SCORE.INTER.norm>
0.680466

>  <SCORE.INTRA>
-0.809503

>  <SCORE.INTRA.DIHEDRAL>
-0.024243

>  <SCORE.INTRA.DIHEDRAL.0>
2.32994

>  <SCORE.INTRA.POLAR>
0

>  <SCORE.INTRA.POLAR.0>
0

>  <SCORE.INTRA.REPUL>
0

>  <SCORE.INTRA.REPUL.0>
0

>  <SCORE.INTRA.SOLV>
0.0272772

>  <SCORE.INTRA.SOLV.lig_0>
-117.703

>  <SCORE.INTRA.VDW>
-0.81102

>  <SCORE.INTRA.VDW.0>
-1.59997

>  <SCORE.INTRA.norm>
-0.0183978

>  <SCORE.RESTR>
5.12245

>  <SCORE.RESTR.CAVITY>
5.12245

>  <SCORE.RESTR.norm>
0.116419

>  <SCORE.SYSTEM>
0

>  <SCORE.SYSTEM.CONST>
0

>  <SCORE.SYSTEM.DIHEDRAL>
0

>  <SCORE.SYSTEM.SOLV>
0

>  <SCORE.SYSTEM.norm>
0

>  <SCORE.heavy>
44

>  <SCORE.norm>
0.778487

>  <RMSD>
26.557

$$$$
ligand
 OpenBabel11021811513D
libRbt.so/2013.1/901 2013/11/27
 44 50  0  0  0  0  0  0  0  0999 V2000
   14.8874   23.3911    0.4814 P   0  0  2  0  0  0  0  0  0  0  0  0
   12.7469   27.1306   -2.7806 P   0  0  1  0  0  0  0  0  0  0  0  0
   15.9581   23.6292    1.5432 O   0  5  0  0  0  0  0  0  0  0  0  0
   12.6772   26.4690   -4.1354 O   0  5  0  0  0  0  0  0  0  0  0  0
   15.0174   21.9437    0.0721 O   0  0  0  0  0  0  0  0  0  0  0  0
   11.8953   28.4185   -2.8520 O   0  0  0  0  0  0  0  0  0  0  0  0
   15.8529   25.6225   -0.2466 C   0  0  0  0  0  0  0  0  0  0  0  0
   12.4114   26.3800   -0.3327 C   0  0  0  0  0  0  0  0  0  0  0  0
   15.2174   24.4055   -0.6608 O   0  0  0  0  0  0  0  0  0  0  0  0
   12.2977   25.9561   -1.7205 O   0  0  0  0  0  0  0  0  0  0  0  0
   16.1592   26.4944   -1.4596 C   0  0  1  0  0  0  0  0  0  0  0  0
   11.8182   25.2070    0.5356 C   0  0  1  0  0  0  0  0  0  0  0  0
   17.2927   26.1090   -1.9586 O   0  0  0  0  0  0  0  0  0  0  0  0
   10.6798   24.9599    0.0287 O   0  0  0  0  0  0  0  0  0  0  0  0
   15.1336   26.3636   -2.5621 C   0  0  1  0  0  0  0  0  0  0  0  0
   12.5880   23.8941    0.2890 C   0  0  1  0  0  0  0  0  0  0  0  0
   14.3085   27.4388   -2.4551 O   0  0  0  0  0  0  0  0  0  0  0  0
   13.4538   23.6429    1.2785 O   0  0  0  0  0  0  0  0  0  0  0  0
   15.9882   26.4612   -3.8737 C   0  0  1  0  0  0  0  0  0  0  0  0
   11.5338   22.7699    0.1697 C   0  0  1  0  0  0  0  0  0  0  0  0
   15.8703   27.8233   -4.4603 O   0  0  0  0  0  0  0  0  0  0  0  0
   11.4677   21.9759    1.4388 O   0  0  0  0  0  0  0  0  0  0  0  0
   17.2118   26.2031   -3.5392 C   0  0  2  0  0  0  0  0  0  0  0  0
   10.4149   23.3820   -0.0154 C   0  0  2  0  0  0  0  0  0  0  0  0
   16.5338   21.2436   -5.4795 N   0  0  0  0  0  0  0  0  0  0  0  0
   15.5479   22.0471   -4.9901 C   0  0  0  0  0  0  0  0  0  0  0  0
   15.8257   23.3042   -4.5167 N   0  0  0  0  0  0  0  0  0  0  0  0
   17.1183   23.7504   -4.5374 C   0  0  0  0  0  0  0  0  0  0  0  0
   18.0997   22.9689   -5.0091 C   0  0  0  0  0  0  0  0  0  0  0  0
   17.8074   21.6965   -5.4970 C   0  0  0  0  0  0  0  0  0  0  0  0
   18.7426   20.7804   -6.0178 N   0  0  0  0  0  0  0  0  0  0  0  0
   19.2574   23.6567   -4.9153 N   0  0  0  0  0  0  0  0  0  0  0  0
   18.9779   24.8751   -4.3706 C   0  0  0  0  0  0  0  0  0  0  0  0
   17.6579   24.9416   -4.1531 N   0  0  0  0  0  0  0  0  0  0  0  0
   10.9706   21.7054   -4.9144 N   0  0  0  0  0  0  0  0  0  0  0  0
   11.9562   21.8722   -3.9940 C   0  0  0  0  0  0  0  0  0  0  0  0
   11.6430   22.3308   -2.7455 N   0  0  0  0  0  0  0  0  0  0  0  0
   10.3520   22.6134   -2.4233 C   0  0  0  0  0  0  0  0  0  0  0  0
    9.3682   22.4460   -3.3300 C   0  0  0  0  0  0  0  0  0  0  0  0
    9.6966   21.9823   -4.6006 C   0  0  0  0  0  0  0  0  0  0  0  0
    8.8200   21.7502   -5.7199 N   0  0  0  0  0  0  0  0  0  0  0  0
    8.2046   22.8045   -2.7361 N   0  0  0  0  0  0  0  0  0  0  0  0
    8.4785   23.1882   -1.4564 C   0  0  0  0  0  0  0  0  0  0  0  0
    9.8084   23.0636   -1.2719 N   0  0  0  0  0  0  0  0  0  0  0  0
  1  3  1  1  0  0  0
  1  5  2  0  0  0  0
  1  9  1  0  0  0  0
  1 18  1  0  0  0  0
  2  4  1  6  0  0  0
  2  6  2  0  0  0  0
  2 10  1  0  0  0  0
  2 17  1  0  0  0  0
  7  9  1  0  0  0  0
  8 10  1  0  0  0  0
 11  7  1  1  0  0  0
 11 13  1  0  0  0  0
 11 15  1  0  0  0  0
 12  8  1  6  0  0  0
 12 14  1  0  0  0  0
 12 16  1  0  0  0  0
 13 23  1  0  0  0  0
 14 24  1  0  0  0  0
 15 17  1  6  0  0  0
 15 19  1  0  0  0  0
 16 18  1  1  0  0  0
 16 20  1  0  0  0  0
 19 21  1  1  0  0  0
 19 23  1  0  0  0  0
 20 22  1  1  0  0  0
 20 24  1  0  0  0  0
 23 34  1  6  0  0  0
 24 44  1  6  0  0  0
 25 26  2  0  0  0  0
 25 30  1  0  0  0  0
 26 27  1  0  0  0  0
 27 28  2  0  0  0  0
 28 29  1  0  0  0  0
 28 34  1  0  0  0  0
 29 30  2  0  0  0  0
 29 32  1  0  0  0  0
 30 31  1  0  0  0  0
 32 33  2  0  0  0  0
 33 34  1  0  0  0  0
 35 36  2  0  0  0  0
 35 40  1  0  0  0  0
 36 37  1  0  0  0  0
 37 38  2  0  0  0  0
 38 39  1  0  0  0  0
 38 44  1  0  0  0  0
 39 40  2  0  0  0  0
 39 42  1  0  0  0  0
 40 41  1  0  0  0  0
 42 43  2  0  0  0  0
 43 44  1  0  0  0  0
M  CHG  2   3  -1   4  -1
M  END
>  <CHROM.1>
88.95339962,96.45404185,13.81563653,24.20425953,-2.34459451,-2.94542606,-0.30987504
-2.24717375

>  <Name>
ligand

>  <RI>
0

>  <Rbt.Current_Directory>
/home/itssahil/PROJECTS/Mol_Feturizer/New_Systems/rnas/4QLM

>  <Rbt.Executable>
rbdock ($Id: //depot/dev/client3/rdock/2013.1/src/exe/rbdock.cxx#4 $)

>  <Rbt.Library>
libRbt.so (2013.1, Build901 2013/11/27)

>  <Rbt.Parameter_File>
/export/apps/rDock/src/rDock_2013.1_src/data/scripts/dock_solv.prm

>  <Rbt.Receptor>
prm/blind_docking_40.prm

>  <SCORE>
34.1972

>  <SCORE.INTER>
29.8694

>  <SCORE.INTER.CONST>
1

>  <SCORE.INTER.POLAR>
0

>  <SCORE.INTER.ROT>
2

>  <SCORE.INTER.SOLV>
52.4171

>  <SCORE.INTER.VDW>
-2.49279

>  <SCORE.INTER.norm>
0.67885

>  <SCORE.INTRA>
-0.807323

>  <SCORE.INTRA.DIHEDRAL>
-0.0242505

>  <SCORE.INTRA.DIHEDRAL.0>
2.32994

>  <SCORE.INTRA.POLAR>
0

>  <SCORE.INTRA.POLAR.0>
0

>  <SCORE.INTRA.REPUL>
0

>  <SCORE.INTRA.REPUL.0>
0

>  <SCORE.INTRA.SOLV>
0.0273399

>  <SCORE.INTRA.SOLV.lig_0>
-117.703

>  <SCORE.INTRA.VDW>
-0.808868

>  <SCORE.INTRA.VDW.0>
-1.59997

>  <SCORE.INTRA.norm>
-0.0183483

>  <SCORE.RESTR>
5.13517

>  <SCORE.RESTR.CAVITY>
5.13517

>  <SCORE.RESTR.norm>
0.116709

>  <SCORE.SYSTEM>
0

>  <SCORE.SYSTEM.CONST>
0

>  <SCORE.SYSTEM.DIHEDRAL>
0

>  <SCORE.SYSTEM.SOLV>
0

>  <SCORE.SYSTEM.norm>
0

>  <SCORE.heavy>
44

>  <SCORE.norm>
0.77721

>  <RMSD>
26.559

$$$$
ligand
 OpenBabel11021811513D
libRbt.so/2013.1/901 2013/11/27
 44 50  0  0  0  0  0  0  0  0999 V2000
   14.8900   23.3910    0.4825 P   0  0  2  0  0  0  0  0  0  0  0  0
   12.7409   27.1279   -2.7766 P   0  0  1  0  0  0  0  0  0  0  0  0
   15.9616   23.6304    1.5431 O   0  5  0  0  0  0  0  0  0  0  0  0
   12.6706   26.4664   -4.1314 O   0  5  0  0  0  0  0  0  0  0  0  0
   15.0216   21.9438    0.0729 O   0  0  0  0  0  0  0  0  0  0  0  0
   11.8874   28.4146   -2.8470 O   0  0  0  0  0  0  0  0  0  0  0  0
   15.8517   25.6238   -0.2462 C   0  0  0  0  0  0  0  0  0  0  0  0
   12.4090   26.3765   -0.3284 C   0  0  0  0  0  0  0  0  0  0  0  0
   15.2175   24.4060   -0.6599 O   0  0  0  0  0  0  0  0  0  0  0  0
   12.2944   25.9527   -1.7162 O   0  0  0  0  0  0  0  0  0  0  0  0
   16.1554   26.4963   -1.4595 C   0  0  1  0  0  0  0  0  0  0  0  0
   11.8184   25.2026    0.5403 C   0  0  1  0  0  0  0  0  0  0  0  0
   17.2889   26.1125   -1.9598 O   0  0  0  0  0  0  0  0  0  0  0  0
   10.6798   24.9540    0.0346 O   0  0  0  0  0  0  0  0  0  0  0  0
   15.1288   26.3642   -2.5608 C   0  0  1  0  0  0  0  0  0  0  0  0
   12.5898   23.8908    0.2927 C   0  0  1  0  0  0  0  0  0  0  0  0
   14.3024   27.4383   -2.4528 O   0  0  0  0  0  0  0  0  0  0  0  0
   13.4571   23.6406    1.2812 O   0  0  0  0  0  0  0  0  0  0  0  0
   15.9819   26.4632   -3.8733 C   0  0  1  0  0  0  0  0  0  0  0  0
   11.5370   22.7652    0.1744 C   0  0  1  0  0  0  0  0  0  0  0  0
   15.8614   27.8252   -4.4596 O   0  0  0  0  0  0  0  0  0  0  0  0
   11.4734   21.9709    1.4434 O   0  0  0  0  0  0  0  0  0  0  0  0
   17.2062   26.2067   -3.5402 C   0  0  2  0  0  0  0  0  0  0  0  0
   10.4170   23.3758   -0.0094 C   0  0  2  0  0  0  0  0  0  0  0  0
   16.5324   21.2478   -5.4834 N   0  0  0  0  0  0  0  0  0  0  0  0
   15.5458   22.0503   -4.9936 C   0  0  0  0  0  0  0  0  0  0  0  0
   15.8225   23.3073   -4.5195 N   0  0  0  0  0  0  0  0  0  0  0  0
   17.1147   23.7546   -4.5399 C   0  0  0  0  0  0  0  0  0  0  0  0
   18.0968   22.9741   -5.0119 C   0  0  0  0  0  0  0  0  0  0  0  0
   17.8056   21.7017   -5.5005 C   0  0  0  0  0  0  0  0  0  0  0  0
   18.7416   20.7867   -6.0217 N   0  0  0  0  0  0  0  0  0  0  0  0
   19.2540   23.6628   -4.9176 N   0  0  0  0  0  0  0  0  0  0  0  0
   18.9734   24.8807   -4.3723 C   0  0  0  0  0  0  0  0  0  0  0  0
   17.6534   24.9460   -4.1548 N   0  0  0  0  0  0  0  0  0  0  0  0
   10.9711   21.7095   -4.9121 N   0  0  0  0  0  0  0  0  0  0  0  0
   11.9577   21.8792   -3.9934 C   0  0  0  0  0  0  0  0  0  0  0  0
   11.6447   22.3344   -2.7435 N   0  0  0  0  0  0  0  0  0  0  0  0
   10.3531   22.6108   -2.4184 C   0  0  0  0  0  0  0  0  0  0  0  0
    9.3683   22.4404   -3.3236 C   0  0  0  0  0  0  0  0  0  0  0  0
    9.6964   21.9802   -4.5955 C   0  0  0  0  0  0  0  0  0  0  0  0
    8.8188   21.7460   -5.7136 N   0  0  0  0  0  0  0  0  0  0  0  0
    8.2043   22.7928   -2.7269 N   0  0  0  0  0  0  0  0  0  0  0  0
    8.4789   23.1757   -1.4471 C   0  0  0  0  0  0  0  0  0  0  0  0
    9.8096   23.0567   -1.2653 N   0  0  0  0  0  0  0  0  0  0  0  0
  1  3  1  1  0  0  0
  1  5  2  0  0  0  0
  1  9  1  0  0  0  0
  1 18  1  0  0  0  0
  2  4  1  6  0  0  0
  2  6  2  0  0  0  0
  2 10  1  0  0  0  0
  2 17  1  0  0  0  0
  7  9  1  0  0  0  0
  8 10  1  0  0  0  0
 11  7  1  1  0  0  0
 11 13  1  0  0  0  0
 11 15  1  0  0  0  0
 12  8  1  6  0  0  0
 12 14  1  0  0  0  0
 12 16  1  0  0  0  0
 13 23  1  0  0  0  0
 14 24  1  0  0  0  0
 15 17  1  6  0  0  0
 15 19  1  0  0  0  0
 16 18  1  1  0  0  0
 16 20  1  0  0  0  0
 19 21  1  1  0  0  0
 19 23  1  0  0  0  0
 20 22  1  1  0  0  0
 20 24  1  0  0  0  0
 23 34  1  6  0  0  0
 24 44  1  6  0  0  0
 25 26  2  0  0  0  0
 25 30  1  0  0  0  0
 26 27  1  0  0  0  0
 27 28  2  0  0  0  0
 28 29  1  0  0  0  0
 28 34  1  0  0  0  0
 29 30  2  0  0  0  0
 29 32  1  0  0  0  0
 30 31  1  0  0  0  0
 32 33  2  0  0  0  0
 33 34  1  0  0  0  0
 35 36  2  0  0  0  0
 35 40  1  0  0  0  0
 36 37  1  0  0  0  0
 37 38  2  0  0  0  0
 38 39  1  0  0  0  0
 38 44  1  0  0  0  0
 39 40  2  0  0  0  0
 39 42  1  0  0  0  0
 40 41  1  0  0  0  0
 42 43  2  0  0  0  0
 43 44  1  0  0  0  0
M  CHG  2   3  -1   4  -1
M  END
>  <CHROM.1>
89.03317386,96.25428153,13.81415827,24.20379950,-2.34262680,-2.94448087,-0.31117560
-2.24514334

>  <Name>
ligand

>  <RI>
0

>  <Rbt.Current_Directory>
/home/itssahil/PROJECTS/Mol_Feturizer/New_Systems/rnas/4QLM

>  <Rbt.Executable>
rbdock ($Id: //depot/dev/client3/rdock/2013.1/src/exe/rbdock.cxx#4 $)

>  <Rbt.Library>
libRbt.so (2013.1, Build901 2013/11/27)

>  <Rbt.Parameter_File>
/export/apps/rDock/src/rDock_2013.1_src/data/scripts/dock_solv.prm

>  <Rbt.Receptor>
prm/blind_docking_40.prm

>  <SCORE>
34.2157

>  <SCORE.INTER>
29.8985

>  <SCORE.INTER.CONST>
1

>  <SCORE.INTER.POLAR>
0

>  <SCORE.INTER.ROT>
2

>  <SCORE.INTER.SOLV>
52.375

>  <SCORE.INTER.VDW>
-2.45935

>  <SCORE.INTER.norm>
0.679511

>  <SCORE.INTRA>
-0.813296

>  <SCORE.INTRA.DIHEDRAL>
-0.0241993

>  <SCORE.INTRA.DIHEDRAL.0>
2.32994

>  <SCORE.INTRA.POLAR>
0

>  <SCORE.INTRA.POLAR.0>
0

>  <SCORE.INTRA.REPUL>
0

>  <SCORE.INTRA.REPUL.0>
0

>  <SCORE.INTRA.SOLV>
0.0271473

>  <SCORE.INTRA.SOLV.lig_0>
-117.703

>  <SCORE.INTRA.VDW>
-0.81477

>  <SCORE.INTRA.VDW.0>
-1.59997

>  <SCORE.INTRA.norm>
-0.018484

>  <SCORE.RESTR>
5.1305

>  <SCORE.RESTR.CAVITY>
5.1305

>  <SCORE.RESTR.norm>
0.116602

>  <SCORE.SYSTEM>
0

>  <SCORE.SYSTEM.CONST>
0

>  <SCORE.SYSTEM.DIHEDRAL>
0

>  <SCORE.SYSTEM.SOLV>
0

>  <SCORE.SYSTEM.norm>
0

>  <SCORE.heavy>
44

>  <SCORE.norm>
0.777629

>  <RMSD>
26.559

$$$$
ligand
 OpenBabel11021811513D
libRbt.so/2013.1/901 2013/11/27
 44 50  0  0  0  0  0  0  0  0999 V2000
   14.8905   23.3927    0.4800 P   0  0  2  0  0  0  0  0  0  0  0  0
   12.7489   27.1343   -2.7788 P   0  0  1  0  0  0  0  0  0  0  0  0
   15.9624   23.6298    1.5407 O   0  5  0  0  0  0  0  0  0  0  0  0
   12.6775   26.4731   -4.1337 O   0  5  0  0  0  0  0  0  0  0  0  0
   15.0193   21.9453    0.0702 O   0  0  0  0  0  0  0  0  0  0  0  0
   11.8980   28.4227   -2.8490 O   0  0  0  0  0  0  0  0  0  0  0  0
   15.8565   25.6237   -0.2483 C   0  0  0  0  0  0  0  0  0  0  0  0
   12.4154   26.3831   -0.3308 C   0  0  0  0  0  0  0  0  0  0  0  0
   15.2200   24.4073   -0.6623 O   0  0  0  0  0  0  0  0  0  0  0  0
   12.3001   25.9598   -1.7186 O   0  0  0  0  0  0  0  0  0  0  0  0
   16.1621   26.4958   -1.4614 C   0  0  1  0  0  0  0  0  0  0  0  0
   11.8224   25.2103    0.5377 C   0  0  1  0  0  0  0  0  0  0  0  0
   17.2949   26.1099   -1.9617 O   0  0  0  0  0  0  0  0  0  0  0  0
   10.6833   24.9639    0.0319 O   0  0  0  0  0  0  0  0  0  0  0  0
   15.1354   26.3659   -2.5629 C   0  0  1  0  0  0  0  0  0  0  0  0
   12.5912   23.8970    0.2900 C   0  0  1  0  0  0  0  0  0  0  0  0
   14.3110   27.4416   -2.4548 O   0  0  0  0  0  0  0  0  0  0  0  0
   13.4579   23.6450    1.2785 O   0  0  0  0  0  0  0  0  0  0  0  0
   15.9888   26.4634   -3.8753 C   0  0  1  0  0  0  0  0  0  0  0  0
   11.5363   22.7735    0.1715 C   0  0  1  0  0  0  0  0  0  0  0  0
   15.8710   27.8257   -4.4614 O   0  0  0  0  0  0  0  0  0  0  0  0
   11.4710   21.9791    1.4403 O   0  0  0  0  0  0  0  0  0  0  0  0
   17.2125   26.2045   -3.5421 C   0  0  2  0  0  0  0  0  0  0  0  0
   10.4175   23.3863   -0.0124 C   0  0  2  0  0  0  0  0  0  0  0  0
   16.5303   21.2449   -5.4807 N   0  0  0  0  0  0  0  0  0  0  0  0
   15.5454   22.0485   -4.9893 C   0  0  0  0  0  0  0  0  0  0  0  0
   15.8243   23.3056   -4.5166 N   0  0  0  0  0  0  0  0  0  0  0  0
   17.1168   23.7518   -4.5400 C   0  0  0  0  0  0  0  0  0  0  0  0
   18.0973   22.9702   -5.0136 C   0  0  0  0  0  0  0  0  0  0  0  0
   17.8039   21.6977   -5.5008 C   0  0  0  0  0  0  0  0  0  0  0  0
   18.7380   20.7816   -6.0234 N   0  0  0  0  0  0  0  0  0  0  0  0
   19.2552   23.6580   -4.9222 N   0  0  0  0  0  0  0  0  0  0  0  0
   18.9768   24.8764   -4.3771 C   0  0  0  0  0  0  0  0  0  0  0  0
   17.6573   24.9430   -4.1568 N   0  0  0  0  0  0  0  0  0  0  0  0
   10.9662   21.7023   -4.9096 N   0  0  0  0  0  0  0  0  0  0  0  0
   11.9526   21.8667   -3.9897 C   0  0  0  0  0  0  0  0  0  0  0  0
   11.6413   22.3277   -2.7416 N   0  0  0  0  0  0  0  0  0  0  0  0
   10.3513   22.6152   -2.4194 C   0  0  0  0  0  0  0  0  0  0  0  0
    9.3667   22.4502   -3.3257 C   0  0  0  0  0  0  0  0  0  0  0  0
    9.6932   21.9839   -4.5958 C   0  0  0  0  0  0  0  0  0  0  0  0
    8.8155   21.7536   -5.7146 N   0  0  0  0  0  0  0  0  0  0  0  0
    8.2046   22.8133   -2.7319 N   0  0  0  0  0  0  0  0  0  0  0  0
    8.4802   23.1975   -1.4527 C   0  0  0  0  0  0  0  0  0  0  0  0
    9.8096   23.0685   -1.2684 N   0  0  0  0  0  0  0  0  0  0  0  0
  1  3  1  1  0  0  0
  1  5  2  0  0  0  0
  1  9  1  0  0  0  0
  1 18  1  0  0  0  0
  2  4  1  6  0  0  0
  2  6  2  0  0  0  0
  2 10  1  0  0  0  0
  2 17  1  0  0  0  0
  7  9  1  0  0  0  0
  8 10  1  0  0  0  0
 11  7  1  1  0  0  0
 11 13  1  0  0  0  0
 11 15  1  0  0  0  0
 12  8  1  6  0  0  0
 12 14  1  0  0  0  0
 12 16  1  0  0  0  0
 13 23  1  0  0  0  0
 14 24  1  0  0  0  0
 15 17  1  6  0  0  0
 15 19  1  0  0  0  0
 16 18  1  1  0  0  0
 16 20  1  0  0  0  0
 19 21  1  1  0  0  0
 19 23  1  0  0  0  0
 20 22  1  1  0  0  0
 20 24  1  0  0  0  0
 23 34  1  6  0  0  0
 24 44  1  6  0  0  0
 25 26  2  0  0  0  0
 25 30  1  0  0  0  0
 26 27  1  0  0  0  0
 27 28  2  0  0  0  0
 28 29  1  0  0  0  0
 28 34  1  0  0  0  0
 29 30  2  0  0  0  0
 29 32  1  0  0  0  0
 30 31  1  0  0  0  0
 32 33  2  0  0  0  0
 33 34  1  0  0  0  0
 35 36  2  0  0  0  0
 35 40  1  0  0  0  0
 36 37  1  0  0  0  0
 37 38  2  0  0  0  0
 38 39  1  0  0  0  0
 38 44  1  0  0  0  0
 39 40  2  0  0  0  0
 39 42  1  0  0  0  0
 40 41  1  0  0  0  0
 42 43  2  0  0  0  0
 43 44  1  0  0  0  0
M  CHG  2   3  -1   4  -1
M  END
>  <CHROM.1>
88.88406586,96.64306518,13.81635955,24.20652622,-2.34433655,-2.94513681,-0.31050500
-2.24828400

>  <Name>
ligand

>  <RI>
0

>  <Rbt.Current_Directory>
/home/itssahil/PROJECTS/Mol_Feturizer/New_Systems/rnas/4QLM

>  <Rbt.Executable>
rbdock ($Id: //depot/dev/client3/rdock/2013.1/src/exe/rbdock.cxx#4 $)

>  <Rbt.Library>
libRbt.so (2013.1, Build901 2013/11/27)

>  <Rbt.Parameter_File>
/export/apps/rDock/src/rDock_2013.1_src/data/scripts/dock_solv.prm

>  <Rbt.Receptor>
prm/blind_docking_40.prm

>  <SCORE>
34.1

>  <SCORE.INTER>
29.7482

>  <SCORE.INTER.CONST>
1

>  <SCORE.INTER.POLAR>
0

>  <SCORE.INTER.ROT>
2

>  <SCORE.INTER.SOLV>
52.3625

>  <SCORE.INTER.VDW>
-2.5554

>  <SCORE.INTER.norm>
0.676095

>  <SCORE.INTRA>
-0.80161

>  <SCORE.INTRA.DIHEDRAL>
-0.0242974

>  <SCORE.INTRA.DIHEDRAL.0>
2.32994

>  <SCORE.INTRA.POLAR>
0

>  <SCORE.INTRA.POLAR.0>
0

>  <SCORE.INTRA.REPUL>
0

>  <SCORE.INTRA.REPUL.0>
0

>  <SCORE.INTRA.SOLV>
0.0275274

>  <SCORE.INTRA.SOLV.lig_0>
-117.703

>  <SCORE.INTRA.VDW>
-0.803225

>  <SCORE.INTRA.VDW.0>
-1.59997

>  <SCORE.INTRA.norm>
-0.0182184

>  <SCORE.RESTR>
5.15348

>  <SCORE.RESTR.CAVITY>
5.15348

>  <SCORE.RESTR.norm>
0.117125

>  <SCORE.SYSTEM>
0

>  <SCORE.SYSTEM.CONST>
0

>  <SCORE.SYSTEM.DIHEDRAL>
0

>  <SCORE.SYSTEM.SOLV>
0

>  <SCORE.SYSTEM.norm>
0

>  <SCORE.heavy>
44

>  <SCORE.norm>
0.775001

>  <RMSD>
26.559

$$$$
ligand
 OpenBabel11021811513D
libRbt.so/2013.1/901 2013/11/27
 44 50  0  0  0  0  0  0  0  0999 V2000
   14.8923   23.3937    0.4773 P   0  0  2  0  0  0  0  0  0  0  0  0
   12.7482   27.1346   -2.7806 P   0  0  1  0  0  0  0  0  0  0  0  0
   15.9639   23.6314    1.5383 O   0  5  0  0  0  0  0  0  0  0  0  0
   12.6775   26.4739   -4.1358 O   0  5  0  0  0  0  0  0  0  0  0  0
   15.0224   21.9466    0.0670 O   0  0  0  0  0  0  0  0  0  0  0  0
   11.8962   28.4223   -2.8506 O   0  0  0  0  0  0  0  0  0  0  0  0
   15.8566   25.6258   -0.2501 C   0  0  0  0  0  0  0  0  0  0  0  0
   12.4148   26.3824   -0.3329 C   0  0  0  0  0  0  0  0  0  0  0  0
   15.2212   24.4090   -0.6646 O   0  0  0  0  0  0  0  0  0  0  0  0
   12.3002   25.9594   -1.7209 O   0  0  0  0  0  0  0  0  0  0  0  0
   16.1617   26.4986   -1.4629 C   0  0  1  0  0  0  0  0  0  0  0  0
   11.8227   25.2087    0.5350 C   0  0  1  0  0  0  0  0  0  0  0  0
   17.2949   26.1138   -1.9630 O   0  0  0  0  0  0  0  0  0  0  0  0
   10.6839   24.9616    0.0289 O   0  0  0  0  0  0  0  0  0  0  0  0
   15.1353   26.3682   -2.5646 C   0  0  1  0  0  0  0  0  0  0  0  0
   12.5927   23.8962    0.2870 C   0  0  1  0  0  0  0  0  0  0  0  0
   14.3100   27.4431   -2.4563 O   0  0  0  0  0  0  0  0  0  0  0  0
   13.4594   23.6446    1.2756 O   0  0  0  0  0  0  0  0  0  0  0  0
   15.9888   26.4668   -3.8768 C   0  0  1  0  0  0  0  0  0  0  0  0
   11.5387   22.7718    0.1679 C   0  0  1  0  0  0  0  0  0  0  0  0
   15.8700   27.8293   -4.4624 O   0  0  0  0  0  0  0  0  0  0  0  0
   11.4739   21.9770    1.4365 O   0  0  0  0  0  0  0  0  0  0  0  0
   17.2127   26.2089   -3.5434 C   0  0  2  0  0  0  0  0  0  0  0  0
   10.4194   23.3837   -0.0159 C   0  0  2  0  0  0  0  0  0  0  0  0
   16.5378   21.2435   -5.4697 N   0  0  0  0  0  0  0  0  0  0  0  0
   15.5528   22.0443   -4.9741 C   0  0  0  0  0  0  0  0  0  0  0  0
   15.8297   23.3032   -4.5051 N   0  0  0  0  0  0  0  0  0  0  0  0
   17.1204   23.7541   -4.5366 C   0  0  0  0  0  0  0  0  0  0  0  0
   18.1010   22.9753   -5.0144 C   0  0  0  0  0  0  0  0  0  0  0  0
   17.8096   21.7009   -5.4978 C   0  0  0  0  0  0  0  0  0  0  0  0
   18.7441   20.7873   -6.0241 N   0  0  0  0  0  0  0  0  0  0  0  0
   19.2570   23.6675   -4.9308 N   0  0  0  0  0  0  0  0  0  0  0  0
   18.9772   24.8858   -4.3861 C   0  0  0  0  0  0  0  0  0  0  0  0
   17.6587   24.9479   -4.1585 N   0  0  0  0  0  0  0  0  0  0  0  0
   10.9697   21.6971   -4.9121 N   0  0  0  0  0  0  0  0  0  0  0  0
   11.9557   21.8611   -3.9917 C   0  0  0  0  0  0  0  0  0  0  0  0
   11.6440   22.3229   -2.7439 N   0  0  0  0  0  0  0  0  0  0  0  0
   10.3541   22.6116   -2.4226 C   0  0  0  0  0  0  0  0  0  0  0  0
    9.3698   22.4470   -3.3294 C   0  0  0  0  0  0  0  0  0  0  0  0
    9.6967   21.9798   -4.5992 C   0  0  0  0  0  0  0  0  0  0  0  0
    8.8195   21.7497   -5.7184 N   0  0  0  0  0  0  0  0  0  0  0  0
    8.2077   22.8113   -2.7365 N   0  0  0  0  0  0  0  0  0  0  0  0
    8.4828   23.1959   -1.4573 C   0  0  0  0  0  0  0  0  0  0  0  0
    9.8120   23.0659   -1.2721 N   0  0  0  0  0  0  0  0  0  0  0  0
  1  3  1  1  0  0  0
  1  5  2  0  0  0  0
  1  9  1  0  0  0  0
  1 18  1  0  0  0  0
  2  4  1  6  0  0  0
  2  6  2  0  0  0  0
  2 10  1  0  0  0  0
  2 17  1  0  0  0  0
  7  9  1  0  0  0  0
  8 10  1  0  0  0  0
 11  7  1  1  0  0  0
 11 13  1  0  0  0  0
 11 15  1  0  0  0  0
 12  8  1  6  0  0  0
 12 14  1  0  0  0  0
 12 16  1  0  0  0  0
 13 23  1  0  0  0  0
 14 24  1  0  0  0  0
 15 17  1  6  0  0  0
 15 19  1  0  0  0  0
 16 18  1  1  0  0  0
 16 20  1  0  0  0  0
 19 21  1  1  0  0  0
 19 23  1  0  0  0  0
 20 22  1  1  0  0  0
 20 24  1  0  0  0  0
 23 34  1  6  0  0  0
 24 44  1  6  0  0  0
 25 26  2  0  0  0  0
 25 30  1  0  0  0  0
 26 27  1  0  0  0  0
 27 28  2  0  0  0  0
 28 29  1  0  0  0  0
 28 34  1  0  0  0  0
 29 30  2  0  0  0  0
 29 32  1  0  0  0  0
 30 31  1  0  0  0  0
 32 33  2  0  0  0  0
 33 34  1  0  0  0  0
 35 36  2  0  0  0  0
 35 40  1  0  0  0  0
 36 37  1  0  0  0  0
 37 38  2  0  0  0  0
 38 39  1  0  0  0  0
 38 44  1  0  0  0  0
 39 40  2  0  0  0  0
 39 42  1  0  0  0  0
 40 41  1  0  0  0  0
 42 43  2  0  0  0  0
 43 44  1  0  0  0  0
M  CHG  2   3  -1   4  -1
M  END
>  <CHROM.1>
88.49358621,96.74979681,13.81817789,24.20687400,-2.34590474,-2.94724912,-0.31134676
-2.25101928

>  <Name>
ligand

>  <RI>
0

>  <Rbt.Current_Directory>
/home/itssahil/PROJECTS/Mol_Feturizer/New_Systems/rnas/4QLM

>  <Rbt.Executable>
rbdock ($Id: //depot/dev/client3/rdock/2013.1/src/exe/rbdock.cxx#4 $)

>  <Rbt.Library>
libRbt.so (2013.1, Build901 2013/11/27)

>  <Rbt.Parameter_File>
/export/apps/rDock/src/rDock_2013.1_src/data/scripts/dock_solv.prm

>  <Rbt.Receptor>
prm/blind_docking_40.prm

>  <SCORE>
34.1492

>  <SCORE.INTER>
29.8064

>  <SCORE.INTER.CONST>
1

>  <SCORE.INTER.POLAR>
0

>  <SCORE.INTER.ROT>
2

>  <SCORE.INTER.SOLV>
52.3511

>  <SCORE.INTER.VDW>
-2.5128

>  <SCORE.INTER.norm>
0.677417

>  <SCORE.INTRA>
-0.802311

>  <SCORE.INTRA.DIHEDRAL>
-0.0243577

>  <SCORE.INTRA.DIHEDRAL.0>
2.32994

>  <SCORE.INTRA.POLAR>
0

>  <SCORE.INTRA.POLAR.0>
0

>  <SCORE.INTRA.REPUL>
0

>  <SCORE.INTRA.REPUL.0>
0

>  <SCORE.INTRA.SOLV>
0.0275784

>  <SCORE.INTRA.SOLV.lig_0>
-117.703

>  <SCORE.INTRA.VDW>
-0.803921

>  <SCORE.INTRA.VDW.0>
-1.59997

>  <SCORE.INTRA.norm>
-0.0182343

>  <SCORE.RESTR>
5.14519

>  <SCORE.RESTR.CAVITY>
5.14519

>  <SCORE.RESTR.norm>
0.116936

>  <SCORE.SYSTEM>
0

>  <SCORE.SYSTEM.CONST>
0

>  <SCORE.SYSTEM.DIHEDRAL>
0

>  <SCORE.SYSTEM.SOLV>
0

>  <SCORE.SYSTEM.norm>
0

>  <SCORE.heavy>
44

>  <SCORE.norm>
0.776119

>  <RMSD>
26.559

$$$$
ligand
 OpenBabel11021811513D
libRbt.so/2013.1/901 2013/11/27
 44 50  0  0  0  0  0  0  0  0999 V2000
   12.8267   21.8975   -4.0745 P   0  0  2  0  0  0  0  0  0  0  0  0
   13.7453   24.4436    0.6030 P   0  0  1  0  0  0  0  0  0  0  0  0
   13.4736   20.5924   -4.5313 O   0  5  0  0  0  0  0  0  0  0  0  0
   13.8494   25.9038    0.2355 O   0  5  0  0  0  0  0  0  0  0  0  0
   12.4420   22.6376   -5.3331 O   0  0  0  0  0  0  0  0  0  0  0  0
   13.6163   24.3632    2.1412 O   0  0  0  0  0  0  0  0  0  0  0  0
   14.8470   21.7568   -2.5450 C   0  0  0  0  0  0  0  0  0  0  0  0
   12.3246   22.4333   -0.1775 C   0  0  0  0  0  0  0  0  0  0  0  0
   13.9236   22.6174   -3.2253 O   0  0  0  0  0  0  0  0  0  0  0  0
   12.5063   23.8710   -0.3146 O   0  0  0  0  0  0  0  0  0  0  0  0
   15.8856   22.5865   -1.7978 C   0  0  1  0  0  0  0  0  0  0  0  0
   11.0296   22.0732   -0.9989 C   0  0  1  0  0  0  0  0  0  0  0  0
   16.8325   22.8932   -2.6295 O   0  0  0  0  0  0  0  0  0  0  0  0
   10.1378   22.8776   -0.5847 O   0  0  0  0  0  0  0  0  0  0  0  0
   15.3367   23.8905   -1.2662 C   0  0  1  0  0  0  0  0  0  0  0  0
   11.1849   22.4765   -2.4788 C   0  0  1  0  0  0  0  0  0  0  0  0
   15.0782   23.6942    0.0540 O   0  0  0  0  0  0  0  0  0  0  0  0
   11.4716   21.4175   -3.2458 O   0  0  0  0  0  0  0  0  0  0  0  0
   16.5302   24.8925   -1.4444 C   0  0  1  0  0  0  0  0  0  0  0  0
    9.8534   23.1337   -2.9082 C   0  0  1  0  0  0  0  0  0  0  0  0
   17.2187   25.1038   -0.1426 O   0  0  0  0  0  0  0  0  0  0  0  0
    9.0311   22.1749   -3.7144 O   0  0  0  0  0  0  0  0  0  0  0  0
   17.3309   24.3648   -2.3139 C   0  0  2  0  0  0  0  0  0  0  0  0
    9.2445   23.4027   -1.8046 C   0  0  2  0  0  0  0  0  0  0  0  0
   18.9519   25.5814   -7.2852 N   0  0  0  0  0  0  0  0  0  0  0  0
   19.3422   24.4913   -6.5665 C   0  0  0  0  0  0  0  0  0  0  0  0
   18.8671   24.2689   -5.2990 N   0  0  0  0  0  0  0  0  0  0  0  0
   17.9884   25.1635   -4.7533 C   0  0  0  0  0  0  0  0  0  0  0  0
   17.6009   26.2440   -5.4451 C   0  0  0  0  0  0  0  0  0  0  0  0
   18.0810   26.4575   -6.7360 C   0  0  0  0  0  0  0  0  0  0  0  0
   17.7534   27.5482   -7.5655 N   0  0  0  0  0  0  0  0  0  0  0  0
   16.7384   26.9408   -4.6750 N   0  0  0  0  0  0  0  0  0  0  0  0
   16.6038   26.2776   -3.4913 C   0  0  0  0  0  0  0  0  0  0  0  0
   17.3597   25.1730   -3.5439 N   0  0  0  0  0  0  0  0  0  0  0  0
   11.2228   28.1696   -1.1098 N   0  0  0  0  0  0  0  0  0  0  0  0
   11.9188   27.0091   -1.2325 C   0  0  0  0  0  0  0  0  0  0  0  0
   11.2447   25.8329   -1.4037 N   0  0  0  0  0  0  0  0  0  0  0  0
    9.8854   25.8236   -1.4568 C   0  0  0  0  0  0  0  0  0  0  0  0
    9.1884   26.9720   -1.3404 C   0  0  0  0  0  0  0  0  0  0  0  0
    9.8829   28.1650   -1.1623 C   0  0  0  0  0  0  0  0  0  0  0  0
    9.3484   29.4925   -0.9978 N   0  0  0  0  0  0  0  0  0  0  0  0
    7.8734   26.6582   -1.4270 N   0  0  0  0  0  0  0  0  0  0  0  0
    7.7665   25.3101   -1.6030 C   0  0  0  0  0  0  0  0  0  0  0  0
    9.0160   24.8037   -1.6231 N   0  0  0  0  0  0  0  0  0  0  0  0
  1  3  1  6  0  0  0
  1  5  2  0  0  0  0
  1  9  1  0  0  0  0
  1 18  1  0  0  0  0
  2  4  1  6  0  0  0
  2  6  2  0  0  0  0
  2 10  1  0  0  0  0
  2 17  1  0  0  0  0
  7  9  1  0  0  0  0
  8 10  1  0  0  0  0
 11  7  1  6  0  0  0
 11 13  1  0  0  0  0
 11 15  1  0  0  0  0
 12  8  1  1  0  0  0
 12 14  1  0  0  0  0
 12 16  1  0  0  0  0
 13 23  1  0  0  0  0
 14 24  1  0  0  0  0
 15 17  1  1  0  0  0
 15 19  1  0  0  0  0
 16 18  1  6  0  0  0
 16 20  1  0  0  0  0
 19 21  1  1  0  0  0
 19 23  1  0  0  0  0
 20 22  1  6  0  0  0
 20 24  1  0  0  0  0
 23 34  1  6  0  0  0
 24 44  1  1  0  0  0
 25 26  2  0  0  0  0
 25 30  1  0  0  0  0
 26 27  1  0  0  0  0
 27 28  2  0  0  0  0
 28 29  1  0  0  0  0
 28 34  1  0  0  0  0
 29 30  2  0  0  0  0
 29 32  1  0  0  0  0
 30 31  1  0  0  0  0
 32 33  2  0  0  0  0
 33 34  1  0  0  0  0
 35 36  2  0  0  0  0
 35 40  1  0  0  0  0
 36 37  1  0  0  0  0
 37 38  2  0  0  0  0
 38 39  1  0  0  0  0
 38 44  1  0  0  0  0
 39 40  2  0  0  0  0
 39 42  1  0  0  0  0
 40 41  1  0  0  0  0
 42 43  2  0  0  0  0
 43 44  1  0  0  0  0
M  CHG  2   3  -1   4  -1
M  END
>  <CHROM.1>
-61.34628059,55.28887634,13.52472243,24.42708072,-2.43975048,3.01958429,0.41590313
0.34289709

>  <Name>
ligand

>  <RI>
0

>  <Rbt.Current_Directory>
/home/itssahil/PROJECTS/Mol_Feturizer/New_Systems/rnas/4QLM

>  <Rbt.Executable>
rbdock ($Id: //depot/dev/client3/rdock/2013.1/src/exe/rbdock.cxx#4 $)

>  <Rbt.Library>
libRbt.so (2013.1, Build901 2013/11/27)

>  <Rbt.Parameter_File>
/export/apps/rDock/src/rDock_2013.1_src/data/scripts/dock_solv.prm

>  <Rbt.Receptor>
prm/blind_docking_80.prm

>  <SCORE>
119.983

>  <SCORE.INTER>
107.843

>  <SCORE.INTER.CONST>
1

>  <SCORE.INTER.POLAR>
0

>  <SCORE.INTER.ROT>
2

>  <SCORE.INTER.SOLV>
52.294

>  <SCORE.INTER.VDW>
49.5305

>  <SCORE.INTER.norm>
2.45097

>  <SCORE.INTRA>
4.48212

>  <SCORE.INTRA.DIHEDRAL>
0.06555

>  <SCORE.INTRA.DIHEDRAL.0>
2.32994

>  <SCORE.INTRA.POLAR>
0

>  <SCORE.INTRA.POLAR.0>
0

>  <SCORE.INTRA.REPUL>
0

>  <SCORE.INTRA.REPUL.0>
0

>  <SCORE.INTRA.SOLV>
1.21572

>  <SCORE.INTRA.SOLV.lig_0>
-117.703

>  <SCORE.INTRA.VDW>
3.84149

>  <SCORE.INTRA.VDW.0>
-1.59997

>  <SCORE.INTRA.norm>
0.101866

>  <SCORE.RESTR>
7.65836

>  <SCORE.RESTR.CAVITY>
7.65836

>  <SCORE.RESTR.norm>
0.174054

>  <SCORE.SYSTEM>
0

>  <SCORE.SYSTEM.CONST>
0

>  <SCORE.SYSTEM.DIHEDRAL>
0

>  <SCORE.SYSTEM.SOLV>
0

>  <SCORE.SYSTEM.norm>
0

>  <SCORE.heavy>
44

>  <SCORE.norm>
2.72689

>  <RMSD>
26.564

$$$$
ligand
 OpenBabel11021811513D
libRbt.so/2013.1/901 2013/11/27
 44 50  0  0  0  0  0  0  0  0999 V2000
   15.1475   23.5563    0.3716 P   0  0  2  0  0  0  0  0  0  0  0  0
   12.9062   27.3251   -2.7873 P   0  0  1  0  0  0  0  0  0  0  0  0
   16.2869   23.7747    1.3639 O   0  5  0  0  0  0  0  0  0  0  0  0
   12.7370   26.6554   -4.1293 O   0  5  0  0  0  0  0  0  0  0  0  0
   15.2157   22.1030   -0.0317 O   0  0  0  0  0  0  0  0  0  0  0  0
   12.0845   28.6338   -2.8182 O   0  0  0  0  0  0  0  0  0  0  0  0
   16.1225   25.7567   -0.4340 C   0  0  0  0  0  0  0  0  0  0  0  0
   12.7023   26.6016   -0.3168 C   0  0  0  0  0  0  0  0  0  0  0  0
   15.4325   24.5534   -0.7977 O   0  0  0  0  0  0  0  0  0  0  0  0
   12.4933   26.1705   -1.6912 O   0  0  0  0  0  0  0  0  0  0  0  0
   16.3758   26.6114   -1.6713 C   0  0  1  0  0  0  0  0  0  0  0  0
   12.1341   25.4508    0.5966 C   0  0  1  0  0  0  0  0  0  0  0  0
   17.4666   26.1932   -2.2350 O   0  0  0  0  0  0  0  0  0  0  0  0
   10.9609   25.2292    0.1623 O   0  0  0  0  0  0  0  0  0  0  0  0
   15.2817   26.4987   -2.7079 C   0  0  1  0  0  0  0  0  0  0  0  0
   12.8540   24.1168    0.3154 C   0  0  1  0  0  0  0  0  0  0  0  0
   14.4920   27.5956   -2.5605 O   0  0  0  0  0  0  0  0  0  0  0  0
   13.7723   23.8508    1.2524 O   0  0  0  0  0  0  0  0  0  0  0  0
   16.0566   26.5645   -4.0700 C   0  0  1  0  0  0  0  0  0  0  0  0
   11.7666   23.0192    0.2708 C   0  0  1  0  0  0  0  0  0  0  0  0
   15.9373   27.9248   -4.6606 O   0  0  0  0  0  0  0  0  0  0  0  0
   11.7584   22.2366    1.5486 O   0  0  0  0  0  0  0  0  0  0  0  0
   17.2915   26.2776   -3.8085 C   0  0  2  0  0  0  0  0  0  0  0  0
   10.6542   23.6584    0.1488 C   0  0  2  0  0  0  0  0  0  0  0  0
   16.4545   21.2180   -5.3964 N   0  0  0  0  0  0  0  0  0  0  0  0
   15.5408   22.0185   -4.7786 C   0  0  0  0  0  0  0  0  0  0  0  0
   15.8542   23.3027   -4.4125 N   0  0  0  0  0  0  0  0  0  0  0  0
   17.1091   23.7797   -4.6733 C   0  0  0  0  0  0  0  0  0  0  0  0
   18.0207   23.0019   -5.2737 C   0  0  0  0  0  0  0  0  0  0  0  0
   17.6911   21.7013   -5.6510 C   0  0  0  0  0  0  0  0  0  0  0  0
   18.5532   20.7857   -6.2863 N   0  0  0  0  0  0  0  0  0  0  0  0
   19.1544   23.7221   -5.4087 N   0  0  0  0  0  0  0  0  0  0  0  0
   18.9323   24.9570   -4.8751 C   0  0  0  0  0  0  0  0  0  0  0  0
   17.6673   25.0005   -4.4370 N   0  0  0  0  0  0  0  0  0  0  0  0
   10.7691   21.5215   -4.5989 N   0  0  0  0  0  0  0  0  0  0  0  0
   11.7971   21.5935   -3.7132 C   0  0  0  0  0  0  0  0  0  0  0  0
   11.6039   22.1978   -2.5029 N   0  0  0  0  0  0  0  0  0  0  0  0
   10.3887   22.7193   -2.1837 C   0  0  0  0  0  0  0  0  0  0  0  0
    9.3629   22.6474   -3.0558 C   0  0  0  0  0  0  0  0  0  0  0  0
    9.5695   22.0337   -4.2878 C   0  0  0  0  0  0  0  0  0  0  0  0
    8.6319   21.8630   -5.3680 N   0  0  0  0  0  0  0  0  0  0  0  0
    8.2945   23.2439   -2.4744 N   0  0  0  0  0  0  0  0  0  0  0  0
    8.6685   23.6781   -1.2369 C   0  0  0  0  0  0  0  0  0  0  0  0
    9.9641   23.3463   -1.0655 N   0  0  0  0  0  0  0  0  0  0  0  0
  1  3  1  1  0  0  0
  1  5  2  0  0  0  0
  1  9  1  0  0  0  0
  1 18  1  0  0  0  0
  2  4  1  6  0  0  0
  2  6  2  0  0  0  0
  2 10  1  0  0  0  0
  2 17  1  0  0  0  0
  7  9  1  0  0  0  0
  8 10  1  0  0  0  0
 11  7  1  1  0  0  0
 11 13  1  0  0  0  0
 11 15  1  0  0  0  0
 12  8  1  6  0  0  0
 12 14  1  0  0  0  0
 12 16  1  0  0  0  0
 13 23  1  0  0  0  0
 14 24  1  0  0  0  0
 15 17  1  6  0  0  0
 15 19  1  0  0  0  0
 16 18  1  1  0  0  0
 16 20  1  0  0  0  0
 19 21  1  1  0  0  0
 19 23  1  0  0  0  0
 20 22  1  1  0  0  0
 20 24  1  0  0  0  0
 23 34  1  6  0  0  0
 24 44  1  6  0  0  0
 25 26  2  0  0  0  0
 25 30  1  0  0  0  0
 26 27  1  0  0  0  0
 27 28  2  0  0  0  0
 28 29  1  0  0  0  0
 28 34  1  0  0  0  0
 29 30  2  0  0  0  0
 29 32  1  0  0  0  0
 30 31  1  0  0  0  0
 32 33  2  0  0  0  0
 33 34  1  0  0  0  0
 35 36  2  0  0  0  0
 35 40  1  0  0  0  0
 36 37  1  0  0  0  0
 37 38  2  0  0  0  0
 38 39  1  0  0  0  0
 38 44  1  0  0  0  0
 39 40  2  0  0  0  0
 39 42  1  0  0  0  0
 40 41  1  0  0  0  0
 42 43  2  0  0  0  0
 43 44  1  0  0  0  0
M  CHG  2   3  -1   4  -1
M  END
>  <CHROM.1>
81.58726154,105.95512526,13.92418305,24.33734373,-2.36091501,-0.20455303
0.35377464,0.80104596

>  <Name>
ligand

>  <RI>
0

>  <Rbt.Current_Directory>
/home/itssahil/PROJECTS/Mol_Feturizer/New_Systems/rnas/4QLM

>  <Rbt.Executable>
rbdock ($Id: //depot/dev/client3/rdock/2013.1/src/exe/rbdock.cxx#4 $)

>  <Rbt.Library>
libRbt.so (2013.1, Build901 2013/11/27)

>  <Rbt.Parameter_File>
/export/apps/rDock/src/rDock_2013.1_src/data/scripts/dock_solv.prm

>  <Rbt.Receptor>
prm/blind_docking_80.prm

>  <SCORE>
39.381

>  <SCORE.INTER>
32.2113

>  <SCORE.INTER.CONST>
1

>  <SCORE.INTER.POLAR>
0

>  <SCORE.INTER.ROT>
2

>  <SCORE.INTER.SOLV>
50.6893

>  <SCORE.INTER.VDW>
-0.355558

>  <SCORE.INTER.norm>
0.732076

>  <SCORE.INTRA>
-0.504235

>  <SCORE.INTRA.DIHEDRAL>
-0.0207683

>  <SCORE.INTRA.DIHEDRAL.0>
2.32994

>  <SCORE.INTRA.POLAR>
0

>  <SCORE.INTRA.POLAR.0>
0

>  <SCORE.INTRA.REPUL>
0

>  <SCORE.INTRA.REPUL.0>
0

>  <SCORE.INTRA.SOLV>
0.0270745

>  <SCORE.INTRA.SOLV.lig_0>
-117.703

>  <SCORE.INTRA.VDW>
-0.507389

>  <SCORE.INTRA.VDW.0>
-1.59997

>  <SCORE.INTRA.norm>
-0.0114599

>  <SCORE.RESTR>
7.67392

>  <SCORE.RESTR.CAVITY>
7.67392

>  <SCORE.RESTR.norm>
0.174407

>  <SCORE.SYSTEM>
0

>  <SCORE.SYSTEM.CONST>
0

>  <SCORE.SYSTEM.DIHEDRAL>
0

>  <SCORE.SYSTEM.SOLV>
0

>  <SCORE.SYSTEM.norm>
0

>  <SCORE.heavy>
44

>  <SCORE.norm>
0.895023

>  <RMSD>
26.582

$$$$
ligand
 OpenBabel11021811513D
libRbt.so/2013.1/901 2013/11/27
 44 50  0  0  0  0  0  0  0  0999 V2000
   15.3458   23.7133    0.1544 P   0  0  2  0  0  0  0  0  0  0  0  0
   12.8294   26.7049   -3.5770 P   0  0  1  0  0  0  0  0  0  0  0  0
   16.3530   24.2187    1.1842 O   0  5  0  0  0  0  0  0  0  0  0  0
   12.8750   25.8734   -4.8358 O   0  5  0  0  0  0  0  0  0  0  0  0
   15.6661   22.2542   -0.0641 O   0  0  0  0  0  0  0  0  0  0  0  0
   11.8247   27.8541   -3.8197 O   0  0  0  0  0  0  0  0  0  0  0  0
   16.0401   25.9391   -0.8480 C   0  0  0  0  0  0  0  0  0  0  0  0
   12.5337   26.2343   -1.0552 C   0  0  0  0  0  0  0  0  0  0  0  0
   15.5724   24.6084   -1.1066 O   0  0  0  0  0  0  0  0  0  0  0  0
   12.5066   25.6268   -2.3777 O   0  0  0  0  0  0  0  0  0  0  0  0
   16.2628   26.6820   -2.1611 C   0  0  1  0  0  0  0  0  0  0  0  0
   12.0724   25.1149   -0.0474 C   0  0  1  0  0  0  0  0  0  0  0  0
   17.4470   26.3842   -2.5983 O   0  0  0  0  0  0  0  0  0  0  0  0
   10.9862   24.6623   -0.5262 O   0  0  0  0  0  0  0  0  0  0  0  0
   15.2878   26.2827   -3.2447 C   0  0  1  0  0  0  0  0  0  0  0  0
   13.0066   23.8904   -0.1174 C   0  0  1  0  0  0  0  0  0  0  0  0
   14.3319   27.2487   -3.2830 O   0  0  0  0  0  0  0  0  0  0  0  0
   13.8738   23.8792    0.9023 O   0  0  0  0  0  0  0  0  0  0  0  0
   16.1538   26.3213   -4.5519 C   0  0  1  0  0  0  0  0  0  0  0  0
   12.1051   22.6349   -0.0983 C   0  0  1  0  0  0  0  0  0  0  0  0
   15.8794   27.5717   -5.3098 O   0  0  0  0  0  0  0  0  0  0  0  0
   12.1096   22.0064    1.2620 O   0  0  0  0  0  0  0  0  0  0  0  0
   17.3919   26.2659   -4.1783 C   0  0  2  0  0  0  0  0  0  0  0  0
   10.9227   23.0708   -0.3686 C   0  0  2  0  0  0  0  0  0  0  0  0
   18.4343   21.0079   -3.8822 N   0  0  0  0  0  0  0  0  0  0  0  0
   17.6247   21.7064   -3.0373 C   0  0  0  0  0  0  0  0  0  0  0  0
   17.4217   23.0532   -3.1997 N   0  0  0  0  0  0  0  0  0  0  0  0
   18.0487   23.6995   -4.2290 C   0  0  0  0  0  0  0  0  0  0  0  0
   18.8536   23.0274   -5.0638 C   0  0  0  0  0  0  0  0  0  0  0  0
   19.0470   21.6571   -4.8974 C   0  0  0  0  0  0  0  0  0  0  0  0
   19.8634   20.8380   -5.7022 N   0  0  0  0  0  0  0  0  0  0  0  0
   19.3281   23.9028   -5.9752 N   0  0  0  0  0  0  0  0  0  0  0  0
   18.8094   25.1303   -5.6866 C   0  0  0  0  0  0  0  0  0  0  0  0
   18.0072   25.0041   -4.6215 N   0  0  0  0  0  0  0  0  0  0  0  0
    6.9449   22.7190   -3.7112 N   0  0  0  0  0  0  0  0  0  0  0  0
    6.9812   23.4432   -2.5620 C   0  0  0  0  0  0  0  0  0  0  0  0
    8.1066   23.4231   -1.7872 N   0  0  0  0  0  0  0  0  0  0  0  0
    9.1863   22.6874   -2.1660 C   0  0  0  0  0  0  0  0  0  0  0  0
    9.1590   21.9700   -3.3073 C   0  0  0  0  0  0  0  0  0  0  0  0
    8.0073   21.9930   -4.0886 C   0  0  0  0  0  0  0  0  0  0  0  0
    7.7524   21.2955   -5.3229 N   0  0  0  0  0  0  0  0  0  0  0  0
   10.3559   21.3461   -3.4223 N   0  0  0  0  0  0  0  0  0  0  0  0
   11.1216   21.6889   -2.3470 C   0  0  0  0  0  0  0  0  0  0  0  0
   10.3906   22.5208   -1.5779 N   0  0  0  0  0  0  0  0  0  0  0  0
  1  3  1  1  0  0  0
  1  5  2  0  0  0  0
  1  9  1  0  0  0  0
  1 18  1  0  0  0  0
  2  4  1  6  0  0  0
  2  6  2  0  0  0  0
  2 10  1  0  0  0  0
  2 17  1  0  0  0  0
  7  9  1  0  0  0  0
  8 10  1  0  0  0  0
 11  7  1  1  0  0  0
 11 13  1  0  0  0  0
 11 15  1  0  0  0  0
 12  8  1  6  0  0  0
 12 14  1  0  0  0  0
 12 16  1  0  0  0  0
 13 23  1  0  0  0  0
 14 24  1  0  0  0  0
 15 17  1  6  0  0  0
 15 19  1  0  0  0  0
 16 18  1  1  0  0  0
 16 20  1  0  0  0  0
 19 21  1  1  0  0  0
 19 23  1  0  0  0  0
 20 22  1  1  0  0  0
 20 24  1  0  0  0  0
 23 34  1  1  0  0  0
 24 44  1  6  0  0  0
 25 26  2  0  0  0  0
 25 30  1  0  0  0  0
 26 27  1  0  0  0  0
 27 28  2  0  0  0  0
 28 29  1  0  0  0  0
 28 34  1  0  0  0  0
 29 30  2  0  0  0  0
 29 32  1  0  0  0  0
 30 31  1  0  0  0  0
 32 33  2  0  0  0  0
 33 34  1  0  0  0  0
 35 36  2  0  0  0  0
 35 40  1  0  0  0  0
 36 37  1  0  0  0  0
 37 38  2  0  0  0  0
 38 39  1  0  0  0  0
 38 44  1  0  0  0  0
 39 40  2  0  0  0  0
 39 42  1  0  0  0  0
 40 41  1  0  0  0  0
 42 43  2  0  0  0  0
 43 44  1  0  0  0  0
M  CHG  2   3  -1   4  -1
M  END
>  <CHROM.1>
40.01154575,-62.28726917,13.94805592,24.15991975,-2.55636538,-0.23034614
-0.01610688,2.20227971

>  <Name>
ligand

>  <RI>
0

>  <Rbt.Current_Directory>
/home/itssahil/PROJECTS/Mol_Feturizer/New_Systems/rnas/4QLM

>  <Rbt.Executable>
rbdock ($Id: //depot/dev/client3/rdock/2013.1/src/exe/rbdock.cxx#4 $)

>  <Rbt.Library>
libRbt.so (2013.1, Build901 2013/11/27)

>  <Rbt.Parameter_File>
/export/apps/rDock/src/rDock_2013.1_src/data/scripts/dock_solv.prm

>  <Rbt.Receptor>
prm/blind_docking_40.prm

>  <SCORE>
46.0981

>  <SCORE.INTER>
37.8652

>  <SCORE.INTER.CONST>
1

>  <SCORE.INTER.POLAR>
0

>  <SCORE.INTER.ROT>
2

>  <SCORE.INTER.SOLV>
51.0915

>  <SCORE.INTER.VDW>
3.27962

>  <SCORE.INTER.norm>
0.860572

>  <SCORE.INTRA>
0.998689

>  <SCORE.INTRA.DIHEDRAL>
0.154348

>  <SCORE.INTRA.DIHEDRAL.0>
2.32994

>  <SCORE.INTRA.POLAR>
0

>  <SCORE.INTRA.POLAR.0>
0

>  <SCORE.INTRA.REPUL>
0

>  <SCORE.INTRA.REPUL.0>
0

>  <SCORE.INTRA.SOLV>
0.412867

>  <SCORE.INTRA.SOLV.lig_0>
-117.703

>  <SCORE.INTRA.VDW>
0.715081

>  <SCORE.INTRA.VDW.0>
-1.59997

>  <SCORE.INTRA.norm>
0.0226975

>  <SCORE.RESTR>
7.23423

>  <SCORE.RESTR.CAVITY>
7.23423

>  <SCORE.RESTR.norm>
0.164414

>  <SCORE.SYSTEM>
0

>  <SCORE.SYSTEM.CONST>
0

>  <SCORE.SYSTEM.DIHEDRAL>
0

>  <SCORE.SYSTEM.SOLV>
0

>  <SCORE.SYSTEM.norm>
0

>  <SCORE.heavy>
44

>  <SCORE.norm>
1.04768

>  <RMSD>
26.589

$$$$
ligand
 OpenBabel11021811513D
libRbt.so/2013.1/901 2013/11/27
 44 50  0  0  0  0  0  0  0  0999 V2000
   15.1224   23.5512    0.3728 P   0  0  2  0  0  0  0  0  0  0  0  0
   12.8854   27.1726   -2.9569 P   0  0  1  0  0  0  0  0  0  0  0  0
   16.2332   23.8235    1.3839 O   0  5  0  0  0  0  0  0  0  0  0  0
   12.7614   26.4576   -4.2803 O   0  5  0  0  0  0  0  0  0  0  0  0
   15.2282   22.0875    0.0179 O   0  0  0  0  0  0  0  0  0  0  0  0
   12.0397   28.4631   -3.0490 O   0  0  0  0  0  0  0  0  0  0  0  0
   16.0739   25.7440   -0.4800 C   0  0  0  0  0  0  0  0  0  0  0  0
   12.6363   26.5237   -0.4699 C   0  0  0  0  0  0  0  0  0  0  0  0
   15.4161   24.5163   -0.8209 O   0  0  0  0  0  0  0  0  0  0  0  0
   12.4686   26.0453   -1.8343 O   0  0  0  0  0  0  0  0  0  0  0  0
   16.3404   26.5640   -1.7378 C   0  0  1  0  0  0  0  0  0  0  0  0
   12.0685   25.3912    0.4664 C   0  0  1  0  0  0  0  0  0  0  0  0
   17.4522   26.1502   -2.2622 O   0  0  0  0  0  0  0  0  0  0  0  0
   10.9106   25.1326    0.0122 O   0  0  0  0  0  0  0  0  0  0  0  0
   15.2738   26.3968   -2.7955 C   0  0  1  0  0  0  0  0  0  0  0  0
   12.8206   24.0636    0.2450 C   0  0  1  0  0  0  0  0  0  0  0  0
   14.4599   27.4818   -2.7019 O   0  0  0  0  0  0  0  0  0  0  0  0
   13.7210   23.8457    1.2112 O   0  0  0  0  0  0  0  0  0  0  0  0
   16.0798   26.4350   -4.1406 C   0  0  1  0  0  0  0  0  0  0  0  0
   11.7558   22.9436    0.2102 C   0  0  1  0  0  0  0  0  0  0  0  0
   15.9485   27.7733   -4.7771 O   0  0  0  0  0  0  0  0  0  0  0  0
   11.7319   22.2019    1.5119 O   0  0  0  0  0  0  0  0  0  0  0  0
   17.3133   26.1812   -3.8412 C   0  0  2  0  0  0  0  0  0  0  0  0
   10.6345   23.5564    0.0418 C   0  0  2  0  0  0  0  0  0  0  0  0
   16.5410   21.1406   -5.5197 N   0  0  0  0  0  0  0  0  0  0  0  0
   15.5807   21.9670   -5.0176 C   0  0  0  0  0  0  0  0  0  0  0  0
   15.8813   23.2436   -4.6159 N   0  0  0  0  0  0  0  0  0  0  0  0
   17.1709   23.6863   -4.7221 C   0  0  0  0  0  0  0  0  0  0  0  0
   18.1276   22.8828   -5.2072 C   0  0  0  0  0  0  0  0  0  0  0  0
   17.8118   21.5902   -5.6220 C   0  0  0  0  0  0  0  0  0  0  0  0
   18.7200   20.6501   -6.1477 N   0  0  0  0  0  0  0  0  0  0  0  0
   19.2882   23.5723   -5.2033 N   0  0  0  0  0  0  0  0  0  0  0  0
   19.0358   24.8143   -4.7005 C   0  0  0  0  0  0  0  0  0  0  0  0
   17.7285   24.8927   -4.4196 N   0  0  0  0  0  0  0  0  0  0  0  0
   10.9980   21.6811   -4.8029 N   0  0  0  0  0  0  0  0  0  0  0  0
   12.0181   21.8774   -3.9271 C   0  0  0  0  0  0  0  0  0  0  0  0
   11.7542   22.3878   -2.6873 N   0  0  0  0  0  0  0  0  0  0  0  0
   10.4777   22.6925   -2.3292 C   0  0  0  0  0  0  0  0  0  0  0  0
    9.4598   22.4960   -3.1915 C   0  0  0  0  0  0  0  0  0  0  0  0
    9.7381   21.9795   -4.4537 C   0  0  0  0  0  0  0  0  0  0  0  0
    8.8191   21.7091   -5.5295 N   0  0  0  0  0  0  0  0  0  0  0  0
    8.3213   22.8864   -2.5699 N   0  0  0  0  0  0  0  0  0  0  0  0
    8.6448   23.3190   -1.3177 C   0  0  0  0  0  0  0  0  0  0  0  0
    9.9799   23.1923   -1.1776 N   0  0  0  0  0  0  0  0  0  0  0  0
  1  3  1  1  0  0  0
  1  5  2  0  0  0  0
  1  9  1  0  0  0  0
  1 18  1  0  0  0  0
  2  4  1  6  0  0  0
  2  6  2  0  0  0  0
  2 10  1  0  0  0  0
  2 17  1  0  0  0  0
  7  9  1  0  0  0  0
  8 10  1  0  0  0  0
 11  7  1  1  0  0  0
 11 13  1  0  0  0  0
 11 15  1  0  0  0  0
 12  8  1  6  0  0  0
 12 14  1  0  0  0  0
 12 16  1  0  0  0  0
 13 23  1  0  0  0  0
 14 24  1  0  0  0  0
 15 17  1  6  0  0  0
 15 19  1  0  0  0  0
 16 18  1  1  0  0  0
 16 20  1  0  0  0  0
 19 21  1  1  0  0  0
 19 23  1  0  0  0  0
 20 22  1  1  0  0  0
 20 24  1  0  0  0  0
 23 34  1  6  0  0  0
 24 44  1  6  0  0  0
 25 26  2  0  0  0  0
 25 30  1  0  0  0  0
 26 27  1  0  0  0  0
 27 28  2  0  0  0  0
 28 29  1  0  0  0  0
 28 34  1  0  0  0  0
 29 30  2  0  0  0  0
 29 32  1  0  0  0  0
 30 31  1  0  0  0  0
 32 33  2  0  0  0  0
 33 34  1  0  0  0  0
 35 36  2  0  0  0  0
 35 40  1  0  0  0  0
 36 37  1  0  0  0  0
 37 38  2  0  0  0  0
 38 39  1  0  0  0  0
 38 44  1  0  0  0  0
 39 40  2  0  0  0  0
 39 42  1  0  0  0  0
 40 41  1  0  0  0  0
 42 43  2  0  0  0  0
 43 44  1  0  0  0  0
M  CHG  2   3  -1   4  -1
M  END
>  <CHROM.1>
88.04643030,96.42487725,13.95214446,24.25743442,-2.44023870,-2.91307329,-0.32834454
-2.28131869

>  <Name>
ligand

>  <RI>
0

>  <Rbt.Current_Directory>
/home/itssahil/PROJECTS/Mol_Feturizer/New_Systems/rnas/4QLM

>  <Rbt.Executable>
rbdock ($Id: //depot/dev/client3/rdock/2013.1/src/exe/rbdock.cxx#4 $)

>  <Rbt.Library>
libRbt.so (2013.1, Build901 2013/11/27)

>  <Rbt.Parameter_File>
/export/apps/rDock/src/rDock_2013.1_src/data/scripts/dock_solv.prm

>  <Rbt.Receptor>
prm/blind_docking_80.prm

>  <SCORE>
38.7633

>  <SCORE.INTER>
32.4657

>  <SCORE.INTER.CONST>
1

>  <SCORE.INTER.POLAR>
0

>  <SCORE.INTER.ROT>
2

>  <SCORE.INTER.SOLV>
52.9603

>  <SCORE.INTER.VDW>
-0.943006

>  <SCORE.INTER.norm>
0.737856

>  <SCORE.INTRA>
-0.818369

>  <SCORE.INTRA.DIHEDRAL>
-0.0242888

>  <SCORE.INTRA.DIHEDRAL.0>
2.32994

>  <SCORE.INTRA.POLAR>
0

>  <SCORE.INTRA.POLAR.0>
0

>  <SCORE.INTRA.REPUL>
0

>  <SCORE.INTRA.REPUL.0>
0

>  <SCORE.INTRA.SOLV>
0.0271466

>  <SCORE.INTRA.SOLV.lig_0>
-117.703

>  <SCORE.INTRA.VDW>
-0.819798

>  <SCORE.INTRA.VDW.0>
-1.59997

>  <SCORE.INTRA.norm>
-0.0185993

>  <SCORE.RESTR>
7.11597

>  <SCORE.RESTR.CAVITY>
7.11597

>  <SCORE.RESTR.norm>
0.161727

>  <SCORE.SYSTEM>
0

>  <SCORE.SYSTEM.CONST>
0

>  <SCORE.SYSTEM.DIHEDRAL>
0

>  <SCORE.SYSTEM.SOLV>
0

>  <SCORE.SYSTEM.norm>
0

>  <SCORE.heavy>
44

>  <SCORE.norm>
0.880983

>  <RMSD>
26.599

$$$$
ligand
 OpenBabel11021811513D
libRbt.so/2013.1/901 2013/11/27
 44 50  0  0  0  0  0  0  0  0999 V2000
   15.1110   23.5385    0.3805 P   0  0  2  0  0  0  0  0  0  0  0  0
   12.8973   27.1841   -2.9383 P   0  0  1  0  0  0  0  0  0  0  0  0
   16.2159   23.8031    1.4002 O   0  5  0  0  0  0  0  0  0  0  0  0
   12.7808   26.4781   -4.2672 O   0  5  0  0  0  0  0  0  0  0  0  0
   15.2179   22.0771    0.0165 O   0  0  0  0  0  0  0  0  0  0  0  0
   12.0531   28.4758   -3.0268 O   0  0  0  0  0  0  0  0  0  0  0  0
   16.0695   25.7362   -0.4516 C   0  0  0  0  0  0  0  0  0  0  0  0
   12.6325   26.5186   -0.4572 C   0  0  0  0  0  0  0  0  0  0  0  0
   15.4128   24.5113   -0.8048 O   0  0  0  0  0  0  0  0  0  0  0  0
   12.4728   26.0495   -1.8259 O   0  0  0  0  0  0  0  0  0  0  0  0
   16.3443   26.5645   -1.7022 C   0  0  1  0  0  0  0  0  0  0  0  0
   12.0581   25.3803    0.4679 C   0  0  1  0  0  0  0  0  0  0  0  0
   17.4589   26.1533   -2.2226 O   0  0  0  0  0  0  0  0  0  0  0  0
   10.9028   25.1257    0.0049 O   0  0  0  0  0  0  0  0  0  0  0  0
   15.2841   26.4053   -2.7675 C   0  0  1  0  0  0  0  0  0  0  0  0
   12.8105   24.0536    0.2421 C   0  0  1  0  0  0  0  0  0  0  0  0
   14.4704   27.4902   -2.6716 O   0  0  0  0  0  0  0  0  0  0  0  0
   13.7048   23.8285    1.2124 O   0  0  0  0  0  0  0  0  0  0  0  0
   16.0982   26.4519   -4.1074 C   0  0  1  0  0  0  0  0  0  0  0  0
   11.7451   22.9348    0.1933 C   0  0  1  0  0  0  0  0  0  0  0  0
   15.9719   27.7945   -4.7356 O   0  0  0  0  0  0  0  0  0  0  0  0
   11.7127   22.1843    1.4899 O   0  0  0  0  0  0  0  0  0  0  0  0
   17.3298   26.1951   -3.8022 C   0  0  2  0  0  0  0  0  0  0  0  0
   10.6253   23.5495    0.0222 C   0  0  2  0  0  0  0  0  0  0  0  0
   16.5627   21.1683   -5.5239 N   0  0  0  0  0  0  0  0  0  0  0  0
   15.5998   21.9926   -5.0235 C   0  0  0  0  0  0  0  0  0  0  0  0
   15.8992   23.2657   -4.6100 N   0  0  0  0  0  0  0  0  0  0  0  0
   17.1903   23.7070   -4.7026 C   0  0  0  0  0  0  0  0  0  0  0  0
   18.1497   22.9054   -5.1859 C   0  0  0  0  0  0  0  0  0  0  0  0
   17.8351   21.6164   -5.6127 C   0  0  0  0  0  0  0  0  0  0  0  0
   18.7460   20.6787   -6.1380 N   0  0  0  0  0  0  0  0  0  0  0  0
   19.3113   23.5929   -5.1675 N   0  0  0  0  0  0  0  0  0  0  0  0
   19.0569   24.8316   -4.6576 C   0  0  0  0  0  0  0  0  0  0  0  0
   17.7475   24.9102   -4.3866 N   0  0  0  0  0  0  0  0  0  0  0  0
   11.0152   21.6949   -4.8284 N   0  0  0  0  0  0  0  0  0  0  0  0
   12.0298   21.8823   -3.9443 C   0  0  0  0  0  0  0  0  0  0  0  0
   11.7593   22.3883   -2.7041 N   0  0  0  0  0  0  0  0  0  0  0  0
   10.4817   22.6973   -2.3539 C   0  0  0  0  0  0  0  0  0  0  0  0
    9.4692   22.5097   -3.2245 C   0  0  0  0  0  0  0  0  0  0  0  0
    9.7542   21.9976   -4.4869 C   0  0  0  0  0  0  0  0  0  0  0  0
    8.8419   21.7366   -5.5707 N   0  0  0  0  0  0  0  0  0  0  0  0
    8.3281   22.9026   -2.6093 N   0  0  0  0  0  0  0  0  0  0  0  0
    8.6445   23.3279   -1.3528 C   0  0  0  0  0  0  0  0  0  0  0  0
    9.9779   23.1942   -1.2036 N   0  0  0  0  0  0  0  0  0  0  0  0
  1  3  1  1  0  0  0
  1  5  2  0  0  0  0
  1  9  1  0  0  0  0
  1 18  1  0  0  0  0
  2  4  1  6  0  0  0
  2  6  2  0  0  0  0
  2 10  1  0  0  0  0
  2 17  1  0  0  0  0
  7  9  1  0  0  0  0
  8 10  1  0  0  0  0
 11  7  1  1  0  0  0
 11 13  1  0  0  0  0
 11 15  1  0  0  0  0
 12  8  1  6  0  0  0
 12 14  1  0  0  0  0
 12 16  1  0  0  0  0
 13 23  1  0  0  0  0
 14 24  1  0  0  0  0
 15 17  1  6  0  0  0
 15 19  1  0  0  0  0
 16 18  1  1  0  0  0
 16 20  1  0  0  0  0
 19 21  1  1  0  0  0
 19 23  1  0  0  0  0
 20 22  1  1  0  0  0
 20 24  1  0  0  0  0
 23 34  1  6  0  0  0
 24 44  1  6  0  0  0
 25 26  2  0  0  0  0
 25 30  1  0  0  0  0
 26 27  1  0  0  0  0
 27 28  2  0  0  0  0
 28 29  1  0  0  0  0
 28 34  1  0  0  0  0
 29 30  2  0  0  0  0
 29 32  1  0  0  0  0
 30 31  1  0  0  0  0
 32 33  2  0  0  0  0
 33 34  1  0  0  0  0
 35 36  2  0  0  0  0
 35 40  1  0  0  0  0
 36 37  1  0  0  0  0
 37 38  2  0  0  0  0
 38 39  1  0  0  0  0
 38 44  1  0  0  0  0
 39 40  2  0  0  0  0
 39 42  1  0  0  0  0
 40 41  1  0  0  0  0
 42 43  2  0  0  0  0
 43 44  1  0  0  0  0
M  CHG  2   3  -1   4  -1
M  END
>  <CHROM.1>
88.17418412,96.69054174,13.95837884,24.26382472,-2.43473126,-2.91813241,-0.32439195
-2.27724560

>  <Name>
ligand

>  <RI>
0

>  <Rbt.Current_Directory>
/home/itssahil/PROJECTS/Mol_Feturizer/New_Systems/rnas/4QLM

>  <Rbt.Executable>
rbdock ($Id: //depot/dev/client3/rdock/2013.1/src/exe/rbdock.cxx#4 $)

>  <Rbt.Library>
libRbt.so (2013.1, Build901 2013/11/27)

>  <Rbt.Parameter_File>
/export/apps/rDock/src/rDock_2013.1_src/data/scripts/dock_solv.prm

>  <Rbt.Receptor>
prm/blind_docking_80.prm

>  <SCORE>
38.14

>  <SCORE.INTER>
31.6757

>  <SCORE.INTER.CONST>
1

>  <SCORE.INTER.POLAR>
0

>  <SCORE.INTER.ROT>
2

>  <SCORE.INTER.SOLV>
52.8038

>  <SCORE.INTER.VDW>
-1.41745

>  <SCORE.INTER.norm>
0.719902

>  <SCORE.INTRA>
-0.807862

>  <SCORE.INTRA.DIHEDRAL>
-0.0243465

>  <SCORE.INTRA.DIHEDRAL.0>
2.32994

>  <SCORE.INTRA.POLAR>
0

>  <SCORE.INTRA.POLAR.0>
0

>  <SCORE.INTRA.REPUL>
0

>  <SCORE.INTRA.REPUL.0>
0

>  <SCORE.INTRA.SOLV>
0.0274535

>  <SCORE.INTRA.SOLV.lig_0>
-117.703

>  <SCORE.INTRA.VDW>
-0.809415

>  <SCORE.INTRA.VDW.0>
-1.59997

>  <SCORE.INTRA.norm>
-0.0183605

>  <SCORE.RESTR>
7.27212

>  <SCORE.RESTR.CAVITY>
7.27212

>  <SCORE.RESTR.norm>
0.165275

>  <SCORE.SYSTEM>
0

>  <SCORE.SYSTEM.CONST>
0

>  <SCORE.SYSTEM.DIHEDRAL>
0

>  <SCORE.SYSTEM.SOLV>
0

>  <SCORE.SYSTEM.norm>
0

>  <SCORE.heavy>
44

>  <SCORE.norm>
0.866817

>  <RMSD>
26.604

$$$$
ligand
 OpenBabel11021811513D
libRbt.so/2013.1/901 2013/11/27
 44 50  0  0  0  0  0  0  0  0999 V2000
   15.1081   23.5125    0.4556 P   0  0  2  0  0  0  0  0  0  0  0  0
   12.9546   27.3363   -2.6981 P   0  0  1  0  0  0  0  0  0  0  0  0
   16.2536   23.7026    1.4467 O   0  5  0  0  0  0  0  0  0  0  0  0
   12.7677   26.6719   -4.0404 O   0  5  0  0  0  0  0  0  0  0  0  0
   15.1408   22.0582    0.0512 O   0  0  0  0  0  0  0  0  0  0  0  0
   12.1647   28.6646   -2.7273 O   0  0  0  0  0  0  0  0  0  0  0  0
   16.1349   25.6892   -0.3498 C   0  0  0  0  0  0  0  0  0  0  0  0
   12.7363   26.6163   -0.2279 C   0  0  0  0  0  0  0  0  0  0  0  0
   15.4156   24.5032   -0.7134 O   0  0  0  0  0  0  0  0  0  0  0  0
   12.5152   26.1913   -1.6023 O   0  0  0  0  0  0  0  0  0  0  0  0
   16.4073   26.5384   -1.5868 C   0  0  1  0  0  0  0  0  0  0  0  0
   12.1415   25.4789    0.6854 C   0  0  1  0  0  0  0  0  0  0  0  0
   17.4870   26.0945   -2.1521 O   0  0  0  0  0  0  0  0  0  0  0  0
   10.9628   25.2860    0.2524 O   0  0  0  0  0  0  0  0  0  0  0  0
   15.3096   26.4529   -2.6221 C   0  0  1  0  0  0  0  0  0  0  0  0
   12.8288   24.1281    0.4025 C   0  0  1  0  0  0  0  0  0  0  0  0
   14.5468   27.5683   -2.4731 O   0  0  0  0  0  0  0  0  0  0  0  0
   13.7414   23.8394    1.3382 O   0  0  0  0  0  0  0  0  0  0  0  0
   16.0842   26.5009   -3.9851 C   0  0  1  0  0  0  0  0  0  0  0  0
   11.7151   23.0571    0.3585 C   0  0  1  0  0  0  0  0  0  0  0  0
   15.9971   27.8641   -4.5747 O   0  0  0  0  0  0  0  0  0  0  0  0
   11.6895   22.2741    1.6358 O   0  0  0  0  0  0  0  0  0  0  0  0
   17.3122   26.1841   -3.7253 C   0  0  2  0  0  0  0  0  0  0  0  0
   10.6183   23.7230    0.2382 C   0  0  2  0  0  0  0  0  0  0  0  0
   16.3042   21.2024   -5.4538 N   0  0  0  0  0  0  0  0  0  0  0  0
   15.3994   22.0409   -4.8747 C   0  0  0  0  0  0  0  0  0  0  0  0
   15.7580   23.3006   -4.4670 N   0  0  0  0  0  0  0  0  0  0  0  0
   17.0494   23.7135   -4.6461 C   0  0  0  0  0  0  0  0  0  0  0  0
   17.9523   22.8975   -5.2076 C   0  0  0  0  0  0  0  0  0  0  0  0
   17.5773   21.6225   -5.6277 C   0  0  0  0  0  0  0  0  0  0  0  0
   18.4257   20.6721   -6.2294 N   0  0  0  0  0  0  0  0  0  0  0  0
   19.1283   23.5578   -5.2635 N   0  0  0  0  0  0  0  0  0  0  0  0
   18.9407   24.7943   -4.7204 C   0  0  0  0  0  0  0  0  0  0  0  0
   17.6563   24.8988   -4.3551 N   0  0  0  0  0  0  0  0  0  0  0  0
   10.6019   21.4009   -4.4231 N   0  0  0  0  0  0  0  0  0  0  0  0
   11.6195   21.4126   -3.5227 C   0  0  0  0  0  0  0  0  0  0  0  0
   11.4660   22.0789   -2.3396 N   0  0  0  0  0  0  0  0  0  0  0  0
   10.2999   22.7219   -2.0616 C   0  0  0  0  0  0  0  0  0  0  0  0
    9.2842   22.7106   -2.9483 C   0  0  0  0  0  0  0  0  0  0  0  0
    9.4505   22.0329   -4.1526 C   0  0  0  0  0  0  0  0  0  0  0  0
    8.5164   21.9071   -5.2420 N   0  0  0  0  0  0  0  0  0  0  0  0
    8.2675   23.4250   -2.4087 N   0  0  0  0  0  0  0  0  0  0  0  0
    8.6626   23.8710   -1.1820 C   0  0  0  0  0  0  0  0  0  0  0  0
    9.9194   23.4285   -0.9754 N   0  0  0  0  0  0  0  0  0  0  0  0
  1  3  1  1  0  0  0
  1  5  2  0  0  0  0
  1  9  1  0  0  0  0
  1 18  1  0  0  0  0
  2  4  1  6  0  0  0
  2  6  2  0  0  0  0
  2 10  1  0  0  0  0
  2 17  1  0  0  0  0
  7  9  1  0  0  0  0
  8 10  1  0  0  0  0
 11  7  1  1  0  0  0
 11 13  1  0  0  0  0
 11 15  1  0  0  0  0
 12  8  1  6  0  0  0
 12 14  1  0  0  0  0
 12 16  1  0  0  0  0
 13 23  1  0  0  0  0
 14 24  1  0  0  0  0
 15 17  1  6  0  0  0
 15 19  1  0  0  0  0
 16 18  1  1  0  0  0
 16 20  1  0  0  0  0
 19 21  1  1  0  0  0
 19 23  1  0  0  0  0
 20 22  1  1  0  0  0
 20 24  1  0  0  0  0
 23 34  1  6  0  0  0
 24 44  1  6  0  0  0
 25 26  2  0  0  0  0
 25 30  1  0  0  0  0
 26 27  1  0  0  0  0
 27 28  2  0  0  0  0
 28 29  1  0  0  0  0
 28 34  1  0  0  0  0
 29 30  2  0  0  0  0
 29 32  1  0  0  0  0
 30 31  1  0  0  0  0
 32 33  2  0  0  0  0
 33 34  1  0  0  0  0
 35 36  2  0  0  0  0
 35 40  1  0  0  0  0
 36 37  1  0  0  0  0
 37 38  2  0  0  0  0
 38 39  1  0  0  0  0
 38 44  1  0  0  0  0
 39 40  2  0  0  0  0
 39 42  1  0  0  0  0
 40 41  1  0  0  0  0
 42 43  2  0  0  0  0
 43 44  1  0  0  0  0
M  CHG  2   3  -1   4  -1
M  END
>  <CHROM.1>
85.48991416,110.56451163,13.89150418,24.31397035,-2.27746465,-0.21285760
0.34622306,0.80063543

>  <Name>
ligand

>  <RI>
0

>  <Rbt.Current_Directory>
/home/itssahil/PROJECTS/Mol_Feturizer/New_Systems/rnas/4QLM

>  <Rbt.Executable>
rbdock ($Id: //depot/dev/client3/rdock/2013.1/src/exe/rbdock.cxx#4 $)

>  <Rbt.Library>
libRbt.so (2013.1, Build901 2013/11/27)

>  <Rbt.Parameter_File>
/export/apps/rDock/src/rDock_2013.1_src/data/scripts/dock_solv.prm

>  <Rbt.Receptor>
prm/blind_docking_40.prm

>  <SCORE>
36.001

>  <SCORE.INTER>
30.6404

>  <SCORE.INTER.CONST>
1

>  <SCORE.INTER.POLAR>
0

>  <SCORE.INTER.ROT>
2

>  <SCORE.INTER.SOLV>
50.147

>  <SCORE.INTER.VDW>
-1.22203

>  <SCORE.INTER.norm>
0.696373

>  <SCORE.INTRA>
-0.315103

>  <SCORE.INTRA.DIHEDRAL>
-0.0281938

>  <SCORE.INTRA.DIHEDRAL.0>
2.32994

>  <SCORE.INTRA.POLAR>
0

>  <SCORE.INTRA.POLAR.0>
0

>  <SCORE.INTRA.REPUL>
0

>  <SCORE.INTRA.REPUL.0>
0

>  <SCORE.INTRA.SOLV>
0.0297754

>  <SCORE.INTRA.SOLV.lig_0>
-117.703

>  <SCORE.INTRA.VDW>
-0.315894

>  <SCORE.INTRA.VDW.0>
-1.59997

>  <SCORE.INTRA.norm>
-0.00716143

>  <SCORE.RESTR>
5.67571

>  <SCORE.RESTR.CAVITY>
5.67571

>  <SCORE.RESTR.norm>
0.128993

>  <SCORE.SYSTEM>
0

>  <SCORE.SYSTEM.CONST>
0

>  <SCORE.SYSTEM.DIHEDRAL>
0

>  <SCORE.SYSTEM.SOLV>
0

>  <SCORE.SYSTEM.norm>
0

>  <SCORE.heavy>
44

>  <SCORE.norm>
0.818205

>  <RMSD>
26.607

$$$$
ligand
 OpenBabel11021811513D
libRbt.so/2013.1/901 2013/11/27
 44 50  0  0  0  0  0  0  0  0999 V2000
   15.1137   23.5418    0.3872 P   0  0  2  0  0  0  0  0  0  0  0  0
   12.8933   27.1787   -2.9366 P   0  0  1  0  0  0  0  0  0  0  0  0
   16.2193   23.8095    1.4053 O   0  5  0  0  0  0  0  0  0  0  0  0
   12.7762   26.4700   -4.2641 O   0  5  0  0  0  0  0  0  0  0  0  0
   15.2216   22.0798    0.0260 O   0  0  0  0  0  0  0  0  0  0  0  0
   12.0479   28.4695   -3.0270 O   0  0  0  0  0  0  0  0  0  0  0  0
   16.0693   25.7387   -0.4503 C   0  0  0  0  0  0  0  0  0  0  0  0
   12.6316   26.5179   -0.4541 C   0  0  0  0  0  0  0  0  0  0  0  0
   15.4134   24.5126   -0.8004 O   0  0  0  0  0  0  0  0  0  0  0  0
   12.4709   26.0460   -1.8216 O   0  0  0  0  0  0  0  0  0  0  0  0
   16.3421   26.5648   -1.7028 C   0  0  1  0  0  0  0  0  0  0  0  0
   12.0592   25.3809    0.4739 C   0  0  1  0  0  0  0  0  0  0  0  0
   17.4566   26.1536   -2.2234 O   0  0  0  0  0  0  0  0  0  0  0  0
   10.9036   25.1243    0.0125 O   0  0  0  0  0  0  0  0  0  0  0  0
   15.2810   26.4025   -2.7667 C   0  0  1  0  0  0  0  0  0  0  0  0
   12.8125   24.0545    0.2501 C   0  0  1  0  0  0  0  0  0  0  0  0
   14.4664   27.4868   -2.6721 O   0  0  0  0  0  0  0  0  0  0  0  0
   13.7080   23.8322    1.2199 O   0  0  0  0  0  0  0  0  0  0  0  0
   16.0938   26.4471   -4.1074 C   0  0  1  0  0  0  0  0  0  0  0  0
   11.7481   22.9346    0.2046 C   0  0  1  0  0  0  0  0  0  0  0  0
   15.9656   27.7884   -4.7383 O   0  0  0  0  0  0  0  0  0  0  0  0
   11.7177   22.1866    1.5026 O   0  0  0  0  0  0  0  0  0  0  0  0
   17.3258   26.1921   -3.8029 C   0  0  2  0  0  0  0  0  0  0  0  0
   10.6276   23.5479    0.0333 C   0  0  2  0  0  0  0  0  0  0  0  0
   16.5590   21.1657   -5.5259 N   0  0  0  0  0  0  0  0  0  0  0  0
   15.5951   21.9914   -5.0297 C   0  0  0  0  0  0  0  0  0  0  0  0
   15.8946   23.2643   -4.6155 N   0  0  0  0  0  0  0  0  0  0  0  0
   17.1867   23.7038   -4.7030 C   0  0  0  0  0  0  0  0  0  0  0  0
   18.1469   22.9008   -5.1821 C   0  0  0  0  0  0  0  0  0  0  0  0
   17.8323   21.6121   -5.6097 C   0  0  0  0  0  0  0  0  0  0  0  0
   18.7440   20.6730   -6.1311 N   0  0  0  0  0  0  0  0  0  0  0  0
   19.3093   23.5867   -5.1593 N   0  0  0  0  0  0  0  0  0  0  0  0
   19.0546   24.8260   -4.6509 C   0  0  0  0  0  0  0  0  0  0  0  0
   17.7442   24.9064   -4.3853 N   0  0  0  0  0  0  0  0  0  0  0  0
   11.0156   21.6915   -4.8168 N   0  0  0  0  0  0  0  0  0  0  0  0
   12.0311   21.8830   -3.9345 C   0  0  0  0  0  0  0  0  0  0  0  0
   11.7609   22.3888   -2.6942 N   0  0  0  0  0  0  0  0  0  0  0  0
   10.4828   22.6937   -2.3420 C   0  0  0  0  0  0  0  0  0  0  0  0
    9.4696   22.5020   -3.2107 C   0  0  0  0  0  0  0  0  0  0  0  0
    9.7541   21.9901   -4.4733 C   0  0  0  0  0  0  0  0  0  0  0  0
    8.8409   21.7252   -5.5553 N   0  0  0  0  0  0  0  0  0  0  0  0
    8.3281   22.8913   -2.5939 N   0  0  0  0  0  0  0  0  0  0  0  0
    8.6452   23.3186   -1.3382 C   0  0  0  0  0  0  0  0  0  0  0  0
    9.9793   23.1896   -1.1912 N   0  0  0  0  0  0  0  0  0  0  0  0
  1  3  1  1  0  0  0
  1  5  2  0  0  0  0
  1  9  1  0  0  0  0
  1 18  1  0  0  0  0
  2  4  1  6  0  0  0
  2  6  2  0  0  0  0
  2 10  1  0  0  0  0
  2 17  1  0  0  0  0
  7  9  1  0  0  0  0
  8 10  1  0  0  0  0
 11  7  1  1  0  0  0
 11 13  1  0  0  0  0
 11 15  1  0  0  0  0
 12  8  1  6  0  0  0
 12 14  1  0  0  0  0
 12 16  1  0  0  0  0
 13 23  1  0  0  0  0
 14 24  1  0  0  0  0
 15 17  1  6  0  0  0
 15 19  1  0  0  0  0
 16 18  1  1  0  0  0
 16 20  1  0  0  0  0
 19 21  1  1  0  0  0
 19 23  1  0  0  0  0
 20 22  1  1  0  0  0
 20 24  1  0  0  0  0
 23 34  1  6  0  0  0
 24 44  1  6  0  0  0
 25 26  2  0  0  0  0
 25 30  1  0  0  0  0
 26 27  1  0  0  0  0
 27 28  2  0  0  0  0
 28 29  1  0  0  0  0
 28 34  1  0  0  0  0
 29 30  2  0  0  0  0
 29 32  1  0  0  0  0
 30 31  1  0  0  0  0
 32 33  2  0  0  0  0
 33 34  1  0  0  0  0
 35 36  2  0  0  0  0
 35 40  1  0  0  0  0
 36 37  1  0  0  0  0
 37 38  2  0  0  0  0
 38 39  1  0  0  0  0
 38 44  1  0  0  0  0
 39 40  2  0  0  0  0
 39 42  1  0  0  0  0
 40 41  1  0  0  0  0
 42 43  2  0  0  0  0
 43 44  1  0  0  0  0
M  CHG  2   3  -1   4  -1
M  END
>  <CHROM.1>
88.50264521,96.52056266,13.95747122,24.26130548,-2.42936185,-2.91645243,-0.32521907
-2.27619468

>  <Name>
ligand

>  <RI>
0

>  <Rbt.Current_Directory>
/home/itssahil/PROJECTS/Mol_Feturizer/New_Systems/rnas/4QLM

>  <Rbt.Executable>
rbdock ($Id: //depot/dev/client3/rdock/2013.1/src/exe/rbdock.cxx#4 $)

>  <Rbt.Library>
libRbt.so (2013.1, Build901 2013/11/27)

>  <Rbt.Parameter_File>
/export/apps/rDock/src/rDock_2013.1_src/data/scripts/dock_solv.prm

>  <Rbt.Receptor>
prm/blind_docking_80.prm

>  <SCORE>
38.2015

>  <SCORE.INTER>
31.7529

>  <SCORE.INTER.CONST>
1

>  <SCORE.INTER.POLAR>
0

>  <SCORE.INTER.ROT>
2

>  <SCORE.INTER.SOLV>
52.8188

>  <SCORE.INTER.VDW>
-1.37101

>  <SCORE.INTER.norm>
0.721657

>  <SCORE.INTRA>
-0.810081

>  <SCORE.INTRA.DIHEDRAL>
-0.024314

>  <SCORE.INTRA.DIHEDRAL.0>
2.32994

>  <SCORE.INTRA.POLAR>
0

>  <SCORE.INTRA.POLAR.0>
0

>  <SCORE.INTRA.REPUL>
0

>  <SCORE.INTRA.REPUL.0>
0

>  <SCORE.INTRA.SOLV>
0.0273282

>  <SCORE.INTRA.SOLV.lig_0>
-117.703

>  <SCORE.INTRA.VDW>
-0.811588

>  <SCORE.INTRA.VDW.0>
-1.59997

>  <SCORE.INTRA.norm>
-0.0184109

>  <SCORE.RESTR>
7.25863

>  <SCORE.RESTR.CAVITY>
7.25863

>  <SCORE.RESTR.norm>
0.164969

>  <SCORE.SYSTEM>
0

>  <SCORE.SYSTEM.CONST>
0

>  <SCORE.SYSTEM.DIHEDRAL>
0

>  <SCORE.SYSTEM.SOLV>
0

>  <SCORE.SYSTEM.norm>
0

>  <SCORE.heavy>
44

>  <SCORE.norm>
0.868215

>  <RMSD>
26.607

$$$$
ligand
 OpenBabel11021811513D
libRbt.so/2013.1/901 2013/11/27
 44 50  0  0  0  0  0  0  0  0999 V2000
   13.2707   27.5294   -2.0916 P   0  0  2  0  0  0  0  0  0  0  0  0
   15.2779   23.1234    0.3093 P   0  0  1  0  0  0  0  0  0  0  0  0
   12.5123   28.6624   -1.4048 O   0  5  0  0  0  0  0  0  0  0  0  0
   14.9374   21.9855   -0.6219 O   0  5  0  0  0  0  0  0  0  0  0  0
   12.8046   27.5231   -3.5276 O   0  0  0  0  0  0  0  0  0  0  0  0
   16.3058   22.5898    1.3329 O   0  0  0  0  0  0  0  0  0  0  0  0
   12.5762   26.4395    0.0927 C   0  0  0  0  0  0  0  0  0  0  0  0
   15.9965   25.5888    0.0369 C   0  0  0  0  0  0  0  0  0  0  0  0
   12.8848   26.2421   -1.2937 O   0  0  0  0  0  0  0  0  0  0  0  0
   15.7326   24.3524   -0.6846 O   0  0  0  0  0  0  0  0  0  0  0  0
   12.1730   25.1163    0.7347 C   0  0  1  0  0  0  0  0  0  0  0  0
   16.5484   26.6102   -1.0278 C   0  0  1  0  0  0  0  0  0  0  0  0
   10.9091   24.9277    0.5124 O   0  0  0  0  0  0  0  0  0  0  0  0
   17.4898   25.9971   -1.6211 O   0  0  0  0  0  0  0  0  0  0  0  0
   12.8980   23.9253    0.1514 C   0  0  1  0  0  0  0  0  0  0  0  0
   15.5263   26.8331   -2.1603 C   0  0  1  0  0  0  0  0  0  0  0  0
   13.9016   23.6194    1.0159 O   0  0  0  0  0  0  0  0  0  0  0  0
   14.8636   27.9851   -1.9999 O   0  0  0  0  0  0  0  0  0  0  0  0
   11.8114   22.7942    0.1561 C   0  0  1  0  0  0  0  0  0  0  0  0
   16.3169   26.8233   -3.4885 C   0  0  1  0  0  0  0  0  0  0  0  0
   12.0364   21.8742    1.3035 O   0  0  0  0  0  0  0  0  0  0  0  0
   16.5150   28.2208   -3.9915 O   0  0  0  0  0  0  0  0  0  0  0  0
   10.6628   23.3836    0.2507 C   0  0  2  0  0  0  0  0  0  0  0  0
   17.4590   26.3053   -3.1914 C   0  0  2  0  0  0  0  0  0  0  0  0
    8.4875   20.4848   -3.7099 N   0  0  0  0  0  0  0  0  0  0  0  0
    9.2064   19.9882   -2.6641 C   0  0  0  0  0  0  0  0  0  0  0  0
    9.7209   20.8162   -1.6991 N   0  0  0  0  0  0  0  0  0  0  0  0
    9.5061   22.1632   -1.7971 C   0  0  0  0  0  0  0  0  0  0  0  0
    8.8071   22.6672   -2.8237 C   0  0  0  0  0  0  0  0  0  0  0  0
    8.2798   21.8179   -3.7949 C   0  0  0  0  0  0  0  0  0  0  0  0
    7.5302   22.2185   -4.9186 N   0  0  0  0  0  0  0  0  0  0  0  0
    8.7477   24.0065   -2.6659 N   0  0  0  0  0  0  0  0  0  0  0  0
    9.4281   24.3248   -1.5279 C   0  0  0  0  0  0  0  0  0  0  0  0
    9.8814   23.1889   -0.9817 N   0  0  0  0  0  0  0  0  0  0  0  0
   15.6597   21.7714   -5.0152 N   0  0  0  0  0  0  0  0  0  0  0  0
   14.9592   22.7047   -4.3190 C   0  0  0  0  0  0  0  0  0  0  0  0
   15.5847   23.8461   -3.9028 N   0  0  0  0  0  0  0  0  0  0  0  0
   16.8990   24.0502   -4.1881 C   0  0  0  0  0  0  0  0  0  0  0  0
   17.5992   23.1305   -4.8825 C   0  0  0  0  0  0  0  0  0  0  0  0
   16.9553   21.9690   -5.2991 C   0  0  0  0  0  0  0  0  0  0  0  0
   17.5066   20.8558   -6.0284 N   0  0  0  0  0  0  0  0  0  0  0  0
   18.8643   23.5973   -5.0114 N   0  0  0  0  0  0  0  0  0  0  0  0
   18.9363   24.8125   -4.3966 C   0  0  0  0  0  0  0  0  0  0  0  0
   17.7153   25.0849   -3.8935 N   0  0  0  0  0  0  0  0  0  0  0  0
  1  3  1  1  0  0  0
  1  5  2  0  0  0  0
  1  9  1  0  0  0  0
  1 18  1  0  0  0  0
  2  4  1  6  0  0  0
  2  6  2  0  0  0  0
  2 10  1  0  0  0  0
  2 17  1  0  0  0  0
  7  9  1  0  0  0  0
  8 10  1  0  0  0  0
 11  7  1  6  0  0  0
 11 13  1  0  0  0  0
 11 15  1  0  0  0  0
 12  8  1  1  0  0  0
 12 14  1  0  0  0  0
 12 16  1  0  0  0  0
 13 23  1  0  0  0  0
 14 24  1  0  0  0  0
 15 17  1  1  0  0  0
 15 19  1  0  0  0  0
 16 18  1  1  0  0  0
 16 20  1  0  0  0  0
 19 21  1  1  0  0  0
 19 23  1  0  0  0  0
 20 22  1  1  0  0  0
 20 24  1  0  0  0  0
 23 34  1  6  0  0  0
 24 44  1  6  0  0  0
 25 26  2  0  0  0  0
 25 30  1  0  0  0  0
 26 27  1  0  0  0  0
 27 28  2  0  0  0  0
 28 29  1  0  0  0  0
 28 34  1  0  0  0  0
 29 30  2  0  0  0  0
 29 32  1  0  0  0  0
 30 31  1  0  0  0  0
 32 33  2  0  0  0  0
 33 34  1  0  0  0  0
 35 36  2  0  0  0  0
 35 40  1  0  0  0  0
 36 37  1  0  0  0  0
 37 38  2  0  0  0  0
 38 39  1  0  0  0  0
 38 44  1  0  0  0  0
 39 40  2  0  0  0  0
 39 42  1  0  0  0  0
 40 41  1  0  0  0  0
 42 43  2  0  0  0  0
 43 44  1  0  0  0  0
M  CHG  2   3  -1   4  -1
M  END
>  <CHROM.1>
169.80104603,79.88720793,13.74007280,24.27123456,-2.01019104,0.17729388,0.33910500
0.58921585

>  <Name>
ligand

>  <RI>
0

>  <Rbt.Current_Directory>
/home/itssahil/PROJECTS/Mol_Feturizer/New_Systems/rnas/4QLM

>  <Rbt.Executable>
rbdock ($Id: //depot/dev/client3/rdock/2013.1/src/exe/rbdock.cxx#4 $)

>  <Rbt.Library>
libRbt.so (2013.1, Build901 2013/11/27)

>  <Rbt.Parameter_File>
/export/apps/rDock/src/rDock_2013.1_src/data/scripts/dock_solv.prm

>  <Rbt.Receptor>
prm/blind_docking_60.prm

>  <SCORE>
16.1086

>  <SCORE.INTER>
8.57876

>  <SCORE.INTER.CONST>
1

>  <SCORE.INTER.POLAR>
0

>  <SCORE.INTER.ROT>
2

>  <SCORE.INTER.SOLV>
42.4311

>  <SCORE.INTER.VDW>
-13.3579

>  <SCORE.INTER.norm>
0.194972

>  <SCORE.INTRA>
-0.320949

>  <SCORE.INTRA.DIHEDRAL>
0.124595

>  <SCORE.INTRA.DIHEDRAL.0>
2.32994

>  <SCORE.INTRA.POLAR>
0

>  <SCORE.INTRA.POLAR.0>
0

>  <SCORE.INTRA.REPUL>
0

>  <SCORE.INTRA.REPUL.0>
0

>  <SCORE.INTRA.SOLV>
0.21562

>  <SCORE.INTRA.SOLV.lig_0>
-117.703

>  <SCORE.INTRA.VDW>
-0.491056

>  <SCORE.INTRA.VDW.0>
-1.59997

>  <SCORE.INTRA.norm>
-0.00729429

>  <SCORE.RESTR>
7.85075

>  <SCORE.RESTR.CAVITY>
7.85075

>  <SCORE.RESTR.norm>
0.178426

>  <SCORE.SYSTEM>
0

>  <SCORE.SYSTEM.CONST>
0

>  <SCORE.SYSTEM.DIHEDRAL>
0

>  <SCORE.SYSTEM.SOLV>
0

>  <SCORE.SYSTEM.norm>
0

>  <SCORE.heavy>
44

>  <SCORE.norm>
0.366104

>  <RMSD>
26.616

$$$$
ligand
 OpenBabel11021811513D
libRbt.so/2013.1/901 2013/11/27
 44 50  0  0  0  0  0  0  0  0999 V2000
   15.2048   23.5434    0.4117 P   0  0  2  0  0  0  0  0  0  0  0  0
   13.0685   27.3825   -2.7353 P   0  0  1  0  0  0  0  0  0  0  0  0
   16.3498   23.7270    1.4045 O   0  5  0  0  0  0  0  0  0  0  0  0
   12.8807   26.7219   -4.0793 O   0  5  0  0  0  0  0  0  0  0  0  0
   15.2326   22.0900    0.0039 O   0  0  0  0  0  0  0  0  0  0  0  0
   12.2835   28.7136   -2.7621 O   0  0  0  0  0  0  0  0  0  0  0  0
   16.2403   25.7183   -0.3874 C   0  0  0  0  0  0  0  0  0  0  0  0
   12.8449   26.6574   -0.2669 C   0  0  0  0  0  0  0  0  0  0  0  0
   15.5172   24.5357   -0.7546 O   0  0  0  0  0  0  0  0  0  0  0  0
   12.6239   26.2364   -1.6427 O   0  0  0  0  0  0  0  0  0  0  0  0
   16.5172   26.5694   -1.6221 C   0  0  1  0  0  0  0  0  0  0  0  0
   12.2451   25.5200    0.6430 C   0  0  1  0  0  0  0  0  0  0  0  0
   17.5959   26.1229   -2.1872 O   0  0  0  0  0  0  0  0  0  0  0  0
   11.0661   25.3323    0.2082 O   0  0  0  0  0  0  0  0  0  0  0  0
   15.4202   26.4903   -2.6588 C   0  0  1  0  0  0  0  0  0  0  0  0
   12.9277   24.1674    0.3575 C   0  0  1  0  0  0  0  0  0  0  0  0
   14.6613   27.6082   -2.5079 O   0  0  0  0  0  0  0  0  0  0  0  0
   13.8383   23.8731    1.2936 O   0  0  0  0  0  0  0  0  0  0  0  0
   16.1965   26.5388   -4.0208 C   0  0  1  0  0  0  0  0  0  0  0  0
   11.8103   23.1005    0.3098 C   0  0  1  0  0  0  0  0  0  0  0  0
   16.1150   27.9037   -4.6072 O   0  0  0  0  0  0  0  0  0  0  0  0
   11.7804   22.3145    1.5852 O   0  0  0  0  0  0  0  0  0  0  0  0
   17.4230   26.2169   -3.7604 C   0  0  2  0  0  0  0  0  0  0  0  0
   10.7160   23.7707    0.1899 C   0  0  2  0  0  0  0  0  0  0  0  0
   16.4054   21.2345   -5.4811 N   0  0  0  0  0  0  0  0  0  0  0  0
   15.5045   22.0723   -4.8949 C   0  0  0  0  0  0  0  0  0  0  0  0
   15.8653   23.3322   -4.4900 N   0  0  0  0  0  0  0  0  0  0  0  0
   17.1549   23.7462   -4.6792 C   0  0  0  0  0  0  0  0  0  0  0  0
   18.0540   22.9308   -5.2477 C   0  0  0  0  0  0  0  0  0  0  0  0
   17.6767   21.6556   -5.6649 C   0  0  0  0  0  0  0  0  0  0  0  0
   18.5211   20.7058   -6.2732 N   0  0  0  0  0  0  0  0  0  0  0  0
   19.2291   23.5920   -5.3128 N   0  0  0  0  0  0  0  0  0  0  0  0
   19.0448   24.8284   -4.7682 C   0  0  0  0  0  0  0  0  0  0  0  0
   17.7632   24.9319   -4.3930 N   0  0  0  0  0  0  0  0  0  0  0  0
    9.1489   20.2326   -3.2953 N   0  0  0  0  0  0  0  0  0  0  0  0
    9.8871   20.0034   -2.1777 C   0  0  0  0  0  0  0  0  0  0  0  0
   10.2234   21.0492   -1.3649 N   0  0  0  0  0  0  0  0  0  0  0  0
    9.8172   22.3114   -1.6689 C   0  0  0  0  0  0  0  0  0  0  0  0
    9.0807   22.5456   -2.7738 C   0  0  0  0  0  0  0  0  0  0  0  0
    8.7460   21.4753   -3.5982 C   0  0  0  0  0  0  0  0  0  0  0  0
    7.9917   21.4960   -4.8253 N   0  0  0  0  0  0  0  0  0  0  0  0
    8.8296   23.8760   -2.8187 N   0  0  0  0  0  0  0  0  0  0  0  0
    9.4119   24.4577   -1.7312 C   0  0  0  0  0  0  0  0  0  0  0  0
   10.0174   23.4816   -1.0251 N   0  0  0  0  0  0  0  0  0  0  0  0
  1  3  1  1  0  0  0
  1  5  2  0  0  0  0
  1  9  1  0  0  0  0
  1 18  1  0  0  0  0
  2  4  1  6  0  0  0
  2  6  2  0  0  0  0
  2 10  1  0  0  0  0
  2 17  1  0  0  0  0
  7  9  1  0  0  0  0
  8 10  1  0  0  0  0
 11  7  1  1  0  0  0
 11 13  1  0  0  0  0
 11 15  1  0  0  0  0
 12  8  1  6  0  0  0
 12 14  1  0  0  0  0
 12 16  1  0  0  0  0
 13 23  1  0  0  0  0
 14 24  1  0  0  0  0
 15 17  1  6  0  0  0
 15 19  1  0  0  0  0
 16 18  1  1  0  0  0
 16 20  1  0  0  0  0
 19 21  1  1  0  0  0
 19 23  1  0  0  0  0
 20 22  1  1  0  0  0
 20 24  1  0  0  0  0
 23 34  1  6  0  0  0
 24 44  1  6  0  0  0
 25 26  2  0  0  0  0
 25 30  1  0  0  0  0
 26 27  1  0  0  0  0
 27 28  2  0  0  0  0
 28 29  1  0  0  0  0
 28 34  1  0  0  0  0
 29 30  2  0  0  0  0
 29 32  1  0  0  0  0
 30 31  1  0  0  0  0
 32 33  2  0  0  0  0
 33 34  1  0  0  0  0
 35 36  2  0  0  0  0
 35 40  1  0  0  0  0
 36 37  1  0  0  0  0
 37 38  2  0  0  0  0
 38 39  1  0  0  0  0
 38 44  1  0  0  0  0
 39 40  2  0  0  0  0
 39 42  1  0  0  0  0
 40 41  1  0  0  0  0
 42 43  2  0  0  0  0
 43 44  1  0  0  0  0
M  CHG  2   3  -1   4  -1
M  END
>  <CHROM.1>
84.90572264,160.55259791,13.87547655,24.26152300,-2.22862754,-0.01268105
0.40146685,0.62095900

>  <Name>
ligand

>  <RI>
0

>  <Rbt.Current_Directory>
/home/itssahil/PROJECTS/Mol_Feturizer/New_Systems/rnas/4QLM

>  <Rbt.Executable>
rbdock ($Id: //depot/dev/client3/rdock/2013.1/src/exe/rbdock.cxx#4 $)

>  <Rbt.Library>
libRbt.so (2013.1, Build901 2013/11/27)

>  <Rbt.Parameter_File>
/export/apps/rDock/src/rDock_2013.1_src/data/scripts/dock_solv.prm

>  <Rbt.Receptor>
prm/blind_docking_80.prm

>  <SCORE>
34.8044

>  <SCORE.INTER>
27.1494

>  <SCORE.INTER.CONST>
1

>  <SCORE.INTER.POLAR>
0

>  <SCORE.INTER.ROT>
2

>  <SCORE.INTER.SOLV>
45.9542

>  <SCORE.INTER.VDW>
-2.15179

>  <SCORE.INTER.norm>
0.617032

>  <SCORE.INTRA>
-0.200555

>  <SCORE.INTRA.DIHEDRAL>
-0.0422106

>  <SCORE.INTRA.DIHEDRAL.0>
2.32994

>  <SCORE.INTRA.POLAR>
0

>  <SCORE.INTRA.POLAR.0>
0

>  <SCORE.INTRA.REPUL>
0

>  <SCORE.INTRA.REPUL.0>
0

>  <SCORE.INTRA.SOLV>
0.0710627

>  <SCORE.INTRA.SOLV.lig_0>
-117.703

>  <SCORE.INTRA.VDW>
-0.214981

>  <SCORE.INTRA.VDW.0>
-1.59997

>  <SCORE.INTRA.norm>
-0.00455807

>  <SCORE.RESTR>
7.85556

>  <SCORE.RESTR.CAVITY>
7.85556

>  <SCORE.RESTR.norm>
0.178536

>  <SCORE.SYSTEM>
0

>  <SCORE.SYSTEM.CONST>
0

>  <SCORE.SYSTEM.DIHEDRAL>
0

>  <SCORE.SYSTEM.SOLV>
0

>  <SCORE.SYSTEM.norm>
0

>  <SCORE.heavy>
44

>  <SCORE.norm>
0.79101

>  <RMSD>
26.616

$$$$
ligand
 OpenBabel11021811513D
libRbt.so/2013.1/901 2013/11/27
 44 50  0  0  0  0  0  0  0  0999 V2000
   15.0015   23.4343    0.4672 P   0  0  2  0  0  0  0  0  0  0  0  0
   12.8759   27.1188   -2.8663 P   0  0  1  0  0  0  0  0  0  0  0  0
   16.0786   23.6869    1.5191 O   0  5  0  0  0  0  0  0  0  0  0  0
   12.7953   26.4286   -4.2061 O   0  5  0  0  0  0  0  0  0  0  0  0
   15.1186   21.9774    0.0888 O   0  0  0  0  0  0  0  0  0  0  0  0
   12.0340   28.4115   -2.9621 O   0  0  0  0  0  0  0  0  0  0  0  0
   15.9811   25.6418   -0.3131 C   0  0  0  0  0  0  0  0  0  0  0  0
   12.5451   26.4240   -0.4013 C   0  0  0  0  0  0  0  0  0  0  0  0
   15.3345   24.4212   -0.6981 O   0  0  0  0  0  0  0  0  0  0  0  0
   12.4222   25.9712   -1.7792 O   0  0  0  0  0  0  0  0  0  0  0  0
   16.2889   26.4848   -1.5460 C   0  0  1  0  0  0  0  0  0  0  0  0
   11.9467   25.2748    0.4946 C   0  0  1  0  0  0  0  0  0  0  0  0
   17.4172   26.0799   -2.0412 O   0  0  0  0  0  0  0  0  0  0  0  0
   10.8042   25.0257   -0.0021 O   0  0  0  0  0  0  0  0  0  0  0  0
   15.2576   26.3382   -2.6411 C   0  0  1  0  0  0  0  0  0  0  0  0
   12.7053   23.9509    0.2734 C   0  0  1  0  0  0  0  0  0  0  0  0
   14.4413   27.4219   -2.5541 O   0  0  0  0  0  0  0  0  0  0  0  0
   13.5734   23.7144    1.2645 O   0  0  0  0  0  0  0  0  0  0  0  0
   16.1072   26.4007   -3.9580 C   0  0  1  0  0  0  0  0  0  0  0  0
   11.6420   22.8327    0.1829 C   0  0  1  0  0  0  0  0  0  0  0  0
   15.9973   27.7506   -4.5735 O   0  0  0  0  0  0  0  0  0  0  0  0
   11.5752   22.0669    1.4691 O   0  0  0  0  0  0  0  0  0  0  0  0
   17.3303   26.1403   -3.6230 C   0  0  2  0  0  0  0  0  0  0  0  0
   10.5270   23.4494   -0.0108 C   0  0  2  0  0  0  0  0  0  0  0  0
   16.5966   21.1652   -5.5021 N   0  0  0  0  0  0  0  0  0  0  0  0
   15.6173   21.9928   -5.0405 C   0  0  0  0  0  0  0  0  0  0  0  0
   15.9095   23.2517   -4.5809 N   0  0  0  0  0  0  0  0  0  0  0  0
   17.2098   23.6752   -4.5871 C   0  0  0  0  0  0  0  0  0  0  0  0
   18.1848   22.8700   -5.0313 C   0  0  0  0  0  0  0  0  0  0  0  0
   17.8781   21.5957   -5.5055 C   0  0  0  0  0  0  0  0  0  0  0  0
   18.8054   20.6561   -5.9977 N   0  0  0  0  0  0  0  0  0  0  0  0
   19.3528   23.5390   -4.9287 N   0  0  0  0  0  0  0  0  0  0  0  0
   19.0859   24.7699   -4.4064 C   0  0  0  0  0  0  0  0  0  0  0  0
   17.7640   24.8624   -4.2113 N   0  0  0  0  0  0  0  0  0  0  0  0
   11.0576   21.7241   -4.8957 N   0  0  0  0  0  0  0  0  0  0  0  0
   12.0498   21.9145   -3.9871 C   0  0  0  0  0  0  0  0  0  0  0  0
   11.7426   22.3832   -2.7407 N   0  0  0  0  0  0  0  0  0  0  0  0
   10.4511   22.6524   -2.4091 C   0  0  0  0  0  0  0  0  0  0  0  0
    9.4608   22.4616   -3.3042 C   0  0  0  0  0  0  0  0  0  0  0  0
    9.7831   21.9877   -4.5726 C   0  0  0  0  0  0  0  0  0  0  0  0
    8.8989   21.7311   -5.6805 N   0  0  0  0  0  0  0  0  0  0  0  0
    8.2984   22.8114   -2.7029 N   0  0  0  0  0  0  0  0  0  0  0  0
    8.5796   23.2134   -1.4304 C   0  0  0  0  0  0  0  0  0  0  0  0
    9.9127   23.1085   -1.2576 N   0  0  0  0  0  0  0  0  0  0  0  0
  1  3  1  1  0  0  0
  1  5  2  0  0  0  0
  1  9  1  0  0  0  0
  1 18  1  0  0  0  0
  2  4  1  6  0  0  0
  2  6  2  0  0  0  0
  2 10  1  0  0  0  0
  2 17  1  0  0  0  0
  7  9  1  0  0  0  0
  8 10  1  0  0  0  0
 11  7  1  1  0  0  0
 11 13  1  0  0  0  0
 11 15  1  0  0  0  0
 12  8  1  6  0  0  0
 12 14  1  0  0  0  0
 12 16  1  0  0  0  0
 13 23  1  0  0  0  0
 14 24  1  0  0  0  0
 15 17  1  6  0  0  0
 15 19  1  0  0  0  0
 16 18  1  1  0  0  0
 16 20  1  0  0  0  0
 19 21  1  1  0  0  0
 19 23  1  0  0  0  0
 20 22  1  1  0  0  0
 20 24  1  0  0  0  0
 23 34  1  6  0  0  0
 24 44  1  6  0  0  0
 25 26  2  0  0  0  0
 25 30  1  0  0  0  0
 26 27  1  0  0  0  0
 27 28  2  0  0  0  0
 28 29  1  0  0  0  0
 28 34  1  0  0  0  0
 29 30  2  0  0  0  0
 29 32  1  0  0  0  0
 30 31  1  0  0  0  0
 32 33  2  0  0  0  0
 33 34  1  0  0  0  0
 35 36  2  0  0  0  0
 35 40  1  0  0  0  0
 36 37  1  0  0  0  0
 37 38  2  0  0  0  0
 38 39  1  0  0  0  0
 38 44  1  0  0  0  0
 39 40  2  0  0  0  0
 39 42  1  0  0  0  0
 40 41  1  0  0  0  0
 42 43  2  0  0  0  0
 43 44  1  0  0  0  0
M  CHG  2   3  -1   4  -1
M  END
>  <CHROM.1>
90.30504630,95.07491459,13.92391254,24.20040150,-2.37632973,-2.92826662,-0.30297901
-2.24894730

>  <Name>
ligand

>  <RI>
0

>  <Rbt.Current_Directory>
/home/itssahil/PROJECTS/Mol_Feturizer/New_Systems/rnas/4QLM

>  <Rbt.Executable>
rbdock ($Id: //depot/dev/client3/rdock/2013.1/src/exe/rbdock.cxx#4 $)

>  <Rbt.Library>
libRbt.so (2013.1, Build901 2013/11/27)

>  <Rbt.Parameter_File>
/export/apps/rDock/src/rDock_2013.1_src/data/scripts/dock_solv.prm

>  <Rbt.Receptor>
prm/blind_docking_60.prm

>  <SCORE>
35.2031

>  <SCORE.INTER>
31.0296

>  <SCORE.INTER.CONST>
1

>  <SCORE.INTER.POLAR>
0

>  <SCORE.INTER.ROT>
2

>  <SCORE.INTER.SOLV>
53.3268

>  <SCORE.INTER.VDW>
-2.02253

>  <SCORE.INTER.norm>
0.705218

>  <SCORE.INTRA>
-0.839538

>  <SCORE.INTRA.DIHEDRAL>
-0.0235217

>  <SCORE.INTRA.DIHEDRAL.0>
2.32994

>  <SCORE.INTRA.POLAR>
0

>  <SCORE.INTRA.POLAR.0>
0

>  <SCORE.INTRA.REPUL>
0

>  <SCORE.INTRA.REPUL.0>
0

>  <SCORE.INTRA.SOLV>
0.0258842

>  <SCORE.INTRA.SOLV.lig_0>
-117.703

>  <SCORE.INTRA.VDW>
-0.840719

>  <SCORE.INTRA.VDW.0>
-1.59997

>  <SCORE.INTRA.norm>
-0.0190804

>  <SCORE.RESTR>
5.01303

>  <SCORE.RESTR.CAVITY>
5.01303

>  <SCORE.RESTR.norm>
0.113933

>  <SCORE.SYSTEM>
0

>  <SCORE.SYSTEM.CONST>
0

>  <SCORE.SYSTEM.DIHEDRAL>
0

>  <SCORE.SYSTEM.SOLV>
0

>  <SCORE.SYSTEM.norm>
0

>  <SCORE.heavy>
44

>  <SCORE.norm>
0.80007

>  <RMSD>
26.632

$$$$
ligand
 OpenBabel11021811513D
libRbt.so/2013.1/901 2013/11/27
 44 50  0  0  0  0  0  0  0  0999 V2000
   15.3907   23.2655    0.1641 P   0  0  2  0  0  0  0  0  0  0  0  0
   13.0302   26.5849   -3.3878 P   0  0  1  0  0  0  0  0  0  0  0  0
   16.3653   23.6724    1.2664 O   0  5  0  0  0  0  0  0  0  0  0  0
   13.1133   25.8607   -4.7094 O   0  5  0  0  0  0  0  0  0  0  0  0
   15.7070   21.8263   -0.1647 O   0  0  0  0  0  0  0  0  0  0  0  0
   12.0437   27.7611   -3.5677 O   0  0  0  0  0  0  0  0  0  0  0  0
   16.1373   25.5595   -0.6242 C   0  0  0  0  0  0  0  0  0  0  0  0
   12.6427   25.9088   -0.9259 C   0  0  0  0  0  0  0  0  0  0  0  0
   15.6685   24.2602   -1.0091 O   0  0  0  0  0  0  0  0  0  0  0  0
   12.6571   25.4140   -2.2947 O   0  0  0  0  0  0  0  0  0  0  0  0
   16.4116   26.4069   -1.8621 C   0  0  1  0  0  0  0  0  0  0  0  0
   12.1376   24.7143   -0.0316 C   0  0  1  0  0  0  0  0  0  0  0  0
   17.6081   26.1338   -2.2819 O   0  0  0  0  0  0  0  0  0  0  0  0
   11.0653   24.3150   -0.5836 O   0  0  0  0  0  0  0  0  0  0  0  0
   15.4720   26.1099   -3.0081 C   0  0  1  0  0  0  0  0  0  0  0  0
   13.0639   23.4899   -0.1718 C   0  0  1  0  0  0  0  0  0  0  0  0
   14.5257   27.0859   -2.9980 O   0  0  0  0  0  0  0  0  0  0  0  0
   13.8948   23.3843    0.8724 O   0  0  0  0  0  0  0  0  0  0  0  0
   16.3835   26.2480   -4.2770 C   0  0  1  0  0  0  0  0  0  0  0  0
   12.1524   22.2470   -0.2888 C   0  0  1  0  0  0  0  0  0  0  0  0
   16.1458   27.5602   -4.9366 O   0  0  0  0  0  0  0  0  0  0  0  0
   12.1044   21.5073    1.0134 O   0  0  0  0  0  0  0  0  0  0  0  0
   17.6074   26.1483   -3.8672 C   0  0  2  0  0  0  0  0  0  0  0  0
   10.9837   22.7167   -0.5620 C   0  0  2  0  0  0  0  0  0  0  0  0
   17.5910   21.0999   -5.6932 N   0  0  0  0  0  0  0  0  0  0  0  0
   16.4910   21.8158   -5.3263 C   0  0  0  0  0  0  0  0  0  0  0  0
   16.6020   23.1053   -4.8719 N   0  0  0  0  0  0  0  0  0  0  0  0
   17.8426   23.6742   -4.7859 C   0  0  0  0  0  0  0  0  0  0  0  0
   18.9344   22.9801   -5.1362 C   0  0  0  0  0  0  0  0  0  0  0  0
   18.8120   21.6736   -5.6060 C   0  0  0  0  0  0  0  0  0  0  0  0
   19.8754   20.8400   -6.0049 N   0  0  0  0  0  0  0  0  0  0  0  0
   20.0076   23.7791   -4.9572 N   0  0  0  0  0  0  0  0  0  0  0  0
   19.5630   24.9777   -4.4830 C   0  0  0  0  0  0  0  0  0  0  0  0
   18.2278   24.9212   -4.3931 N   0  0  0  0  0  0  0  0  0  0  0  0
    7.0386   22.4860   -3.9536 N   0  0  0  0  0  0  0  0  0  0  0  0
    7.0260   23.0737   -2.7285 C   0  0  0  0  0  0  0  0  0  0  0  0
    8.1502   23.0402   -1.9524 N   0  0  0  0  0  0  0  0  0  0  0  0
    9.2771   22.4272   -2.4049 C   0  0  0  0  0  0  0  0  0  0  0  0
    9.2984   21.8459   -3.6214 C   0  0  0  0  0  0  0  0  0  0  0  0
    8.1477   21.8813   -4.4037 C   0  0  0  0  0  0  0  0  0  0  0  0
    7.9404   21.3152   -5.7119 N   0  0  0  0  0  0  0  0  0  0  0  0
   10.5347   21.3212   -3.7980 N   0  0  0  0  0  0  0  0  0  0  0  0
   11.2754   21.5884   -2.6846 C   0  0  0  0  0  0  0  0  0  0  0  0
   10.4899   22.2752   -1.8305 N   0  0  0  0  0  0  0  0  0  0  0  0
  1  3  1  1  0  0  0
  1  5  2  0  0  0  0
  1  9  1  0  0  0  0
  1 18  1  0  0  0  0
  2  4  1  6  0  0  0
  2  6  2  0  0  0  0
  2 10  1  0  0  0  0
  2 17  1  0  0  0  0
  7  9  1  0  0  0  0
  8 10  1  0  0  0  0
 11  7  1  1  0  0  0
 11 13  1  0  0  0  0
 11 15  1  0  0  0  0
 12  8  1  6  0  0  0
 12 14  1  0  0  0  0
 12 16  1  0  0  0  0
 13 23  1  0  0  0  0
 14 24  1  0  0  0  0
 15 17  1  6  0  0  0
 15 19  1  0  0  0  0
 16 18  1  1  0  0  0
 16 20  1  0  0  0  0
 19 21  1  1  0  0  0
 19 23  1  0  0  0  0
 20 22  1  1  0  0  0
 20 24  1  0  0  0  0
 23 34  1  6  0  0  0
 24 44  1  6  0  0  0
 25 26  2  0  0  0  0
 25 30  1  0  0  0  0
 26 27  1  0  0  0  0
 27 28  2  0  0  0  0
 28 29  1  0  0  0  0
 28 34  1  0  0  0  0
 29 30  2  0  0  0  0
 29 32  1  0  0  0  0
 30 31  1  0  0  0  0
 32 33  2  0  0  0  0
 33 34  1  0  0  0  0
 35 36  2  0  0  0  0
 35 40  1  0  0  0  0
 36 37  1  0  0  0  0
 37 38  2  0  0  0  0
 38 39  1  0  0  0  0
 38 44  1  0  0  0  0
 39 40  2  0  0  0  0
 39 42  1  0  0  0  0
 40 41  1  0  0  0  0
 42 43  2  0  0  0  0
 43 44  1  0  0  0  0
M  CHG  2   3  -1   4  -1
M  END
>  <CHROM.1>
91.75173032,-67.37169633,14.01473513,23.94923232,-2.65234800,-0.10893943
0.22262464,1.17066106

>  <Name>
ligand

>  <RI>
0

>  <Rbt.Current_Directory>
/home/itssahil/PROJECTS/Mol_Feturizer/New_Systems/rnas/4QLM

>  <Rbt.Executable>
rbdock ($Id: //depot/dev/client3/rdock/2013.1/src/exe/rbdock.cxx#4 $)

>  <Rbt.Library>
libRbt.so (2013.1, Build901 2013/11/27)

>  <Rbt.Parameter_File>
/export/apps/rDock/src/rDock_2013.1_src/data/scripts/dock_solv.prm

>  <Rbt.Receptor>
prm/blind_docking_40.prm

>  <SCORE>
45.4228

>  <SCORE.INTER>
36.6115

>  <SCORE.INTER.CONST>
1

>  <SCORE.INTER.POLAR>
0

>  <SCORE.INTER.ROT>
2

>  <SCORE.INTER.SOLV>
52.6343

>  <SCORE.INTER.VDW>
1.9296

>  <SCORE.INTER.norm>
0.832081

>  <SCORE.INTRA>
1.37002

>  <SCORE.INTRA.DIHEDRAL>
-0.0370988

>  <SCORE.INTRA.DIHEDRAL.0>
2.32994

>  <SCORE.INTRA.POLAR>
0

>  <SCORE.INTRA.POLAR.0>
0

>  <SCORE.INTRA.REPUL>
0

>  <SCORE.INTRA.REPUL.0>
0

>  <SCORE.INTRA.SOLV>
0.0487654

>  <SCORE.INTRA.SOLV.lig_0>
-117.703

>  <SCORE.INTRA.VDW>
1.36419

>  <SCORE.INTRA.VDW.0>
-1.59997

>  <SCORE.INTRA.norm>
0.0311369

>  <SCORE.RESTR>
7.44118

>  <SCORE.RESTR.CAVITY>
7.44118

>  <SCORE.RESTR.norm>
0.169118

>  <SCORE.SYSTEM>
0

>  <SCORE.SYSTEM.CONST>
0

>  <SCORE.SYSTEM.DIHEDRAL>
0

>  <SCORE.SYSTEM.SOLV>
0

>  <SCORE.SYSTEM.norm>
0

>  <SCORE.heavy>
44

>  <SCORE.norm>
1.03234

>  <RMSD>
26.640

$$$$
ligand
 OpenBabel11021811513D
libRbt.so/2013.1/901 2013/11/27
 44 50  0  0  0  0  0  0  0  0999 V2000
   15.2394   23.1422    0.1187 P   0  0  2  0  0  0  0  0  0  0  0  0
   12.9097   27.0206   -2.8370 P   0  0  1  0  0  0  0  0  0  0  0  0
   16.3522   23.3385    1.1452 O   0  5  0  0  0  0  0  0  0  0  0  0
   12.7896   26.4331   -4.2220 O   0  5  0  0  0  0  0  0  0  0  0  0
   15.3704   21.7215   -0.3751 O   0  0  0  0  0  0  0  0  0  0  0  0
   12.0389   28.2971   -2.8006 O   0  0  0  0  0  0  0  0  0  0  0  0
   16.1428   25.4247   -0.5256 C   0  0  0  0  0  0  0  0  0  0  0  0
   12.6912   26.1323   -0.4221 C   0  0  0  0  0  0  0  0  0  0  0  0
   15.5060   24.2225   -0.9788 O   0  0  0  0  0  0  0  0  0  0  0  0
   12.5226   25.7832   -1.8251 O   0  0  0  0  0  0  0  0  0  0  0  0
   16.3844   26.3663   -1.7006 C   0  0  1  0  0  0  0  0  0  0  0  0
   12.1519   24.9046    0.4045 C   0  0  1  0  0  0  0  0  0  0  0  0
   17.5000   26.0263   -2.2682 O   0  0  0  0  0  0  0  0  0  0  0  0
   10.9958   24.6679   -0.0660 O   0  0  0  0  0  0  0  0  0  0  0  0
   15.3135   26.2800   -2.7636 C   0  0  1  0  0  0  0  0  0  0  0  0
   12.9274   23.6192    0.0531 C   0  0  1  0  0  0  0  0  0  0  0  0
   14.4798   27.3349   -2.5622 O   0  0  0  0  0  0  0  0  0  0  0  0
   13.8388   23.3277    0.9891 O   0  0  0  0  0  0  0  0  0  0  0  0
   16.1087   26.4624   -4.1032 C   0  0  1  0  0  0  0  0  0  0  0  0
   11.8839   22.4870   -0.0829 C   0  0  1  0  0  0  0  0  0  0  0  0
   15.9474   27.8525   -4.6080 O   0  0  0  0  0  0  0  0  0  0  0  0
   11.8837   21.6239    1.1420 O   0  0  0  0  0  0  0  0  0  0  0  0
   17.3491   26.2054   -3.8362 C   0  0  2  0  0  0  0  0  0  0  0  0
   10.7500   23.0909   -0.1858 C   0  0  2  0  0  0  0  0  0  0  0  0
   16.8499   21.1296   -5.5119 N   0  0  0  0  0  0  0  0  0  0  0  0
   15.9249   21.8228   -4.7901 C   0  0  0  0  0  0  0  0  0  0  0  0
   16.1483   23.1217   -4.4104 N   0  0  0  0  0  0  0  0  0  0  0  0
   17.3242   23.7237   -4.7643 C   0  0  0  0  0  0  0  0  0  0  0  0
   18.2466   23.0525   -5.4679 C   0  0  0  0  0  0  0  0  0  0  0  0
   18.0076   21.7359   -5.8579 C   0  0  0  0  0  0  0  0  0  0  0  0
   18.8907   20.9236   -6.5963 N   0  0  0  0  0  0  0  0  0  0  0  0
   19.2909   23.8817   -5.6778 N   0  0  0  0  0  0  0  0  0  0  0  0
   19.0032   25.0759   -5.0860 C   0  0  0  0  0  0  0  0  0  0  0  0
   17.7845   24.9864   -4.5374 N   0  0  0  0  0  0  0  0  0  0  0  0
   11.1233   21.7893   -5.2144 N   0  0  0  0  0  0  0  0  0  0  0  0
   12.1472   21.9385   -4.3337 C   0  0  0  0  0  0  0  0  0  0  0  0
   11.8795   22.2932   -3.0414 N   0  0  0  0  0  0  0  0  0  0  0  0
   10.5957   22.4902   -2.6369 C   0  0  0  0  0  0  0  0  0  0  0  0
    9.5743   22.3394   -3.5042 C   0  0  0  0  0  0  0  0  0  0  0  0
    9.8563   21.9819   -4.8195 C   0  0  0  0  0  0  0  0  0  0  0  0
    8.9337   21.7867   -5.9084 N   0  0  0  0  0  0  0  0  0  0  0  0
    8.4286   22.5992   -2.8297 N   0  0  0  0  0  0  0  0  0  0  0  0
    8.7516   22.9053   -1.5406 C   0  0  0  0  0  0  0  0  0  0  0  0
   10.0935   22.8322   -1.4308 N   0  0  0  0  0  0  0  0  0  0  0  0
  1  3  1  1  0  0  0
  1  5  2  0  0  0  0
  1  9  1  0  0  0  0
  1 18  1  0  0  0  0
  2  4  1  6  0  0  0
  2  6  2  0  0  0  0
  2 10  1  0  0  0  0
  2 17  1  0  0  0  0
  7  9  1  0  0  0  0
  8 10  1  0  0  0  0
 11  7  1  1  0  0  0
 11 13  1  0  0  0  0
 11 15  1  0  0  0  0
 12  8  1  6  0  0  0
 12 14  1  0  0  0  0
 12 16  1  0  0  0  0
 13 23  1  0  0  0  0
 14 24  1  0  0  0  0
 15 17  1  1  0  0  0
 15 19  1  0  0  0  0
 16 18  1  1  0  0  0
 16 20  1  0  0  0  0
 19 21  1  1  0  0  0
 19 23  1  0  0  0  0
 20 22  1  1  0  0  0
 20 24  1  0  0  0  0
 23 34  1  6  0  0  0
 24 44  1  6  0  0  0
 25 26  2  0  0  0  0
 25 30  1  0  0  0  0
 26 27  1  0  0  0  0
 27 28  2  0  0  0  0
 28 29  1  0  0  0  0
 28 34  1  0  0  0  0
 29 30  2  0  0  0  0
 29 32  1  0  0  0  0
 30 31  1  0  0  0  0
 32 33  2  0  0  0  0
 33 34  1  0  0  0  0
 35 36  2  0  0  0  0
 35 40  1  0  0  0  0
 36 37  1  0  0  0  0
 37 38  2  0  0  0  0
 38 39  1  0  0  0  0
 38 44  1  0  0  0  0
 39 40  2  0  0  0  0
 39 42  1  0  0  0  0
 40 41  1  0  0  0  0
 42 43  2  0  0  0  0
 43 44  1  0  0  0  0
M  CHG  2   3  -1   4  -1
M  END
>  <CHROM.1>
74.30161403,94.35648015,14.05000958,24.08487387,-2.57762245,-0.19550216,0.34506119
0.89634304

>  <Name>
ligand

>  <RI>
0

>  <Rbt.Current_Directory>
/home/itssahil/PROJECTS/Mol_Feturizer/New_Systems/rnas/4QLM

>  <Rbt.Executable>
rbdock ($Id: //depot/dev/client3/rdock/2013.1/src/exe/rbdock.cxx#4 $)

>  <Rbt.Library>
libRbt.so (2013.1, Build901 2013/11/27)

>  <Rbt.Parameter_File>
/export/apps/rDock/src/rDock_2013.1_src/data/scripts/dock_solv.prm

>  <Rbt.Receptor>
prm/blind_docking_60.prm

>  <SCORE>
49.7824

>  <SCORE.INTER>
47.1859

>  <SCORE.INTER.CONST>
1

>  <SCORE.INTER.POLAR>
0

>  <SCORE.INTER.ROT>
2

>  <SCORE.INTER.SOLV>
52.844

>  <SCORE.INTER.VDW>
8.90926

>  <SCORE.INTER.norm>
1.07241

>  <SCORE.INTRA>
-1.12336

>  <SCORE.INTRA.DIHEDRAL>
0.00300932

>  <SCORE.INTRA.DIHEDRAL.0>
2.32994

>  <SCORE.INTRA.POLAR>
0

>  <SCORE.INTRA.POLAR.0>
0

>  <SCORE.INTRA.REPUL>
0

>  <SCORE.INTRA.REPUL.0>
0

>  <SCORE.INTRA.SOLV>
0.0185132

>  <SCORE.INTRA.SOLV.lig_0>
-117.703

>  <SCORE.INTRA.VDW>
-1.13412

>  <SCORE.INTRA.VDW.0>
-1.59997

>  <SCORE.INTRA.norm>
-0.025531

>  <SCORE.RESTR>
3.71993

>  <SCORE.RESTR.CAVITY>
3.71993

>  <SCORE.RESTR.norm>
0.0845439

>  <SCORE.SYSTEM>
0

>  <SCORE.SYSTEM.CONST>
0

>  <SCORE.SYSTEM.DIHEDRAL>
0

>  <SCORE.SYSTEM.SOLV>
0

>  <SCORE.SYSTEM.norm>
0

>  <SCORE.heavy>
44

>  <SCORE.norm>
1.13142

>  <RMSD>
26.666

$$$$
ligand
 OpenBabel11021811513D
libRbt.so/2013.1/901 2013/11/27
 44 50  0  0  0  0  0  0  0  0999 V2000
   12.9273   27.0979   -2.8917 P   0  0  2  0  0  0  0  0  0  0  0  0
   15.0596   23.0439   -0.0240 P   0  0  1  0  0  0  0  0  0  0  0  0
   12.1185   28.2667   -2.3347 O   0  5  0  0  0  0  0  0  0  0  0  0
   14.7739   21.8034   -0.8348 O   0  5  0  0  0  0  0  0  0  0  0  0
   12.4821   26.9250   -4.3240 O   0  0  0  0  0  0  0  0  0  0  0  0
   16.0917   22.6586    1.0602 O   0  0  0  0  0  0  0  0  0  0  0  0
   12.2422   26.2154   -0.6129 C   0  0  0  0  0  0  0  0  0  0  0  0
   15.6917   25.4930   -0.5447 C   0  0  0  0  0  0  0  0  0  0  0  0
   12.5773   25.8868   -1.9679 O   0  0  0  0  0  0  0  0  0  0  0  0
   15.4832   24.1793   -1.1359 O   0  0  0  0  0  0  0  0  0  0  0  0
   11.8784   24.9518    0.1594 C   0  0  1  0  0  0  0  0  0  0  0  0
   16.2210   26.4184   -1.7044 C   0  0  1  0  0  0  0  0  0  0  0  0
   10.6255   24.6936   -0.0550 O   0  0  0  0  0  0  0  0  0  0  0  0
   17.1923   25.7829   -2.2209 O   0  0  0  0  0  0  0  0  0  0  0  0
   12.6544   23.7348   -0.2890 C   0  0  1  0  0  0  0  0  0  0  0  0
   15.2075   26.4838   -2.8643 C   0  0  1  0  0  0  0  0  0  0  0  0
   13.6563   23.5584    0.6129 O   0  0  0  0  0  0  0  0  0  0  0  0
   14.5011   27.6204   -2.8318 O   0  0  0  0  0  0  0  0  0  0  0  0
   11.6098   22.5701   -0.1775 C   0  0  1  0  0  0  0  0  0  0  0  0
   16.0166   26.3659   -4.1761 C   0  0  1  0  0  0  0  0  0  0  0  0
   11.8519   21.7835    1.0619 O   0  0  0  0  0  0  0  0  0  0  0  0
   16.1707   27.7100   -4.8201 O   0  0  0  0  0  0  0  0  0  0  0  0
   10.4393   23.1225   -0.1566 C   0  0  2  0  0  0  0  0  0  0  0  0
   17.1725   25.9250   -3.8149 C   0  0  2  0  0  0  0  0  0  0  0  0
    9.9144   21.6777   -5.3004 N   0  0  0  0  0  0  0  0  0  0  0  0
   11.0937   21.8454   -4.6384 C   0  0  0  0  0  0  0  0  0  0  0  0
   11.1206   22.2166   -3.3182 N   0  0  0  0  0  0  0  0  0  0  0  0
    9.9382   22.4226   -2.6626 C   0  0  0  0  0  0  0  0  0  0  0  0
    8.7705   22.2685   -3.3022 C   0  0  0  0  0  0  0  0  0  0  0  0
    8.7519   21.8820   -4.6412 C   0  0  0  0  0  0  0  0  0  0  0  0
    7.5975   21.6862   -5.4248 N   0  0  0  0  0  0  0  0  0  0  0  0
    7.7797   22.5281   -2.4228 N   0  0  0  0  0  0  0  0  0  0  0  0
    8.3535   22.8529   -1.2293 C   0  0  0  0  0  0  0  0  0  0  0  0
    9.6830   22.7716   -1.3699 N   0  0  0  0  0  0  0  0  0  0  0  0
   18.6156   20.9744   -3.0872 N   0  0  0  0  0  0  0  0  0  0  0  0
   18.4428   21.9216   -2.1284 C   0  0  0  0  0  0  0  0  0  0  0  0
   18.0660   23.1849   -2.4880 N   0  0  0  0  0  0  0  0  0  0  0  0
   17.8594   23.4918   -3.7971 C   0  0  0  0  0  0  0  0  0  0  0  0
   18.0245   22.5558   -4.7536 C   0  0  0  0  0  0  0  0  0  0  0  0
   18.4123   21.2726   -4.3788 C   0  0  0  0  0  0  0  0  0  0  0  0
   18.6633   20.1336   -5.2243 N   0  0  0  0  0  0  0  0  0  0  0  0
   17.7558   23.1421   -5.9448 N   0  0  0  0  0  0  0  0  0  0  0  0
   17.4188   24.4433   -5.7143 C   0  0  0  0  0  0  0  0  0  0  0  0
   17.4830   24.6488   -4.3832 N   0  0  0  0  0  0  0  0  0  0  0  0
  1  3  1  1  0  0  0
  1  5  2  0  0  0  0
  1  9  1  0  0  0  0
  1 18  1  0  0  0  0
  2  4  1  6  0  0  0
  2  6  2  0  0  0  0
  2 10  1  0  0  0  0
  2 17  1  0  0  0  0
  7  9  1  0  0  0  0
  8 10  1  0  0  0  0
 11  7  1  6  0  0  0
 11 13  1  0  0  0  0
 11 15  1  0  0  0  0
 12  8  1  1  0  0  0
 12 14  1  0  0  0  0
 12 16  1  0  0  0  0
 13 23  1  0  0  0  0
 14 24  1  0  0  0  0
 15 17  1  1  0  0  0
 15 19  1  0  0  0  0
 16 18  1  6  0  0  0
 16 20  1  0  0  0  0
 19 21  1  1  0  0  0
 19 23  1  0  0  0  0
 20 22  1  1  0  0  0
 20 24  1  0  0  0  0
 23 34  1  6  0  0  0
 24 44  1  6  0  0  0
 25 26  2  0  0  0  0
 25 30  1  0  0  0  0
 26 27  1  0  0  0  0
 27 28  2  0  0  0  0
 28 29  1  0  0  0  0
 28 34  1  0  0  0  0
 29 30  2  0  0  0  0
 29 32  1  0  0  0  0
 30 31  1  0  0  0  0
 32 33  2  0  0  0  0
 33 34  1  0  0  0  0
 35 36  2  0  0  0  0
 35 40  1  0  0  0  0
 36 37  1  0  0  0  0
 37 38  2  0  0  0  0
 38 39  1  0  0  0  0
 38 44  1  0  0  0  0
 39 40  2  0  0  0  0
 39 42  1  0  0  0  0
 40 41  1  0  0  0  0
 42 43  2  0  0  0  0
 43 44  1  0  0  0  0
M  CHG  2   3  -1   4  -1
M  END
>  <CHROM.1>
92.91702340,-5.71049166,13.84353436,24.00546158,-2.40411728,3.06414102,-0.17271636
-3.02842247

>  <Name>
ligand

>  <RI>
0

>  <Rbt.Current_Directory>
/home/itssahil/PROJECTS/Mol_Feturizer/New_Systems/rnas/4QLM

>  <Rbt.Executable>
rbdock ($Id: //depot/dev/client3/rdock/2013.1/src/exe/rbdock.cxx#4 $)

>  <Rbt.Library>
libRbt.so (2013.1, Build901 2013/11/27)

>  <Rbt.Parameter_File>
/export/apps/rDock/src/rDock_2013.1_src/data/scripts/dock_solv.prm

>  <Rbt.Receptor>
prm/blind_docking_60.prm

>  <SCORE>
31.5327

>  <SCORE.INTER>
27.659

>  <SCORE.INTER.CONST>
1

>  <SCORE.INTER.POLAR>
0

>  <SCORE.INTER.ROT>
2

>  <SCORE.INTER.SOLV>
52.0917

>  <SCORE.INTER.VDW>
-3.85789

>  <SCORE.INTER.norm>
0.628614

>  <SCORE.INTRA>
-0.69532

>  <SCORE.INTRA.DIHEDRAL>
-0.0282942

>  <SCORE.INTRA.DIHEDRAL.0>
2.32994

>  <SCORE.INTRA.POLAR>
0

>  <SCORE.INTRA.POLAR.0>
0

>  <SCORE.INTRA.REPUL>
0

>  <SCORE.INTRA.REPUL.0>
0

>  <SCORE.INTRA.SOLV>
0.324489

>  <SCORE.INTRA.SOLV.lig_0>
-117.703

>  <SCORE.INTRA.VDW>
-0.843417

>  <SCORE.INTRA.VDW.0>
-1.59997

>  <SCORE.INTRA.norm>
-0.0158027

>  <SCORE.RESTR>
4.56899

>  <SCORE.RESTR.CAVITY>
4.56899

>  <SCORE.RESTR.norm>
0.103841

>  <SCORE.SYSTEM>
0

>  <SCORE.SYSTEM.CONST>
0

>  <SCORE.SYSTEM.DIHEDRAL>
0

>  <SCORE.SYSTEM.SOLV>
0

>  <SCORE.SYSTEM.norm>
0

>  <SCORE.heavy>
44

>  <SCORE.norm>
0.716652

>  <RMSD>
26.668

$$$$
ligand
 OpenBabel11021811513D
libRbt.so/2013.1/901 2013/11/27
 44 50  0  0  0  0  0  0  0  0999 V2000
   12.9416   27.1046   -2.8635 P   0  0  2  0  0  0  0  0  0  0  0  0
   15.0712   23.0303   -0.0226 P   0  0  1  0  0  0  0  0  0  0  0  0
   12.1330   28.2698   -2.2988 O   0  5  0  0  0  0  0  0  0  0  0  0
   14.7855   21.7954   -0.8421 O   0  5  0  0  0  0  0  0  0  0  0  0
   12.4971   26.9417   -4.2971 O   0  0  0  0  0  0  0  0  0  0  0  0
   16.1026   22.6371    1.0593 O   0  0  0  0  0  0  0  0  0  0  0  0
   12.2552   26.2066   -0.5911 C   0  0  0  0  0  0  0  0  0  0  0  0
   15.7043   25.4826   -0.5261 C   0  0  0  0  0  0  0  0  0  0  0  0
   12.5908   25.8873   -1.9482 O   0  0  0  0  0  0  0  0  0  0  0  0
   15.4957   24.1731   -1.1265 O   0  0  0  0  0  0  0  0  0  0  0  0
   11.8906   24.9378    0.1723 C   0  0  1  0  0  0  0  0  0  0  0  0
   16.2345   26.4158   -1.6792 C   0  0  1  0  0  0  0  0  0  0  0  0
   10.6377   24.6816   -0.0444 O   0  0  0  0  0  0  0  0  0  0  0  0
   17.2059   25.7836   -2.1995 O   0  0  0  0  0  0  0  0  0  0  0  0
   12.6664   23.7237   -0.2841 C   0  0  1  0  0  0  0  0  0  0  0  0
   15.2216   26.4895   -2.8392 C   0  0  1  0  0  0  0  0  0  0  0  0
   13.6678   23.5408    0.6171 O   0  0  0  0  0  0  0  0  0  0  0  0
   14.5156   27.6261   -2.7991 O   0  0  0  0  0  0  0  0  0  0  0  0
   11.6214   22.5586   -0.1811 C   0  0  1  0  0  0  0  0  0  0  0  0
   16.0313   26.3804   -4.1513 C   0  0  1  0  0  0  0  0  0  0  0  0
   11.8626   21.7634    1.0529 O   0  0  0  0  0  0  0  0  0  0  0  0
   16.1862   27.7289   -4.7859 O   0  0  0  0  0  0  0  0  0  0  0  0
   10.4510   23.1112   -0.1570 C   0  0  2  0  0  0  0  0  0  0  0  0
   17.1869   25.9366   -3.7926 C   0  0  2  0  0  0  0  0  0  0  0  0
    9.9284   21.6828   -5.3055 N   0  0  0  0  0  0  0  0  0  0  0  0
   11.1073   21.8401   -4.6402 C   0  0  0  0  0  0  0  0  0  0  0  0
   11.1335   22.2078   -3.3190 N   0  0  0  0  0  0  0  0  0  0  0  0
    9.9511   22.4211   -2.6659 C   0  0  0  0  0  0  0  0  0  0  0  0
    8.7839   22.2774   -3.3088 C   0  0  0  0  0  0  0  0  0  0  0  0
    8.7658   21.8942   -4.6488 C   0  0  0  0  0  0  0  0  0  0  0  0
    7.6120   21.7089   -5.4358 N   0  0  0  0  0  0  0  0  0  0  0  0
    7.7929   22.5422   -2.4314 N   0  0  0  0  0  0  0  0  0  0  0  0
    8.3660   22.8598   -1.2356 C   0  0  0  0  0  0  0  0  0  0  0  0
    9.6952   22.7689   -1.3730 N   0  0  0  0  0  0  0  0  0  0  0  0
   18.5621   20.9626   -3.0939 N   0  0  0  0  0  0  0  0  0  0  0  0
   18.3770   21.8998   -2.1275 C   0  0  0  0  0  0  0  0  0  0  0  0
   18.0215   23.1713   -2.4799 N   0  0  0  0  0  0  0  0  0  0  0  0
   17.8483   23.4963   -3.7894 C   0  0  0  0  0  0  0  0  0  0  0  0
   18.0257   22.5703   -4.7534 C   0  0  0  0  0  0  0  0  0  0  0  0
   18.3916   21.2787   -4.3859 C   0  0  0  0  0  0  0  0  0  0  0  0
   18.6502   20.1476   -5.2396 N   0  0  0  0  0  0  0  0  0  0  0  0
   17.7904   23.1740   -5.9431 N   0  0  0  0  0  0  0  0  0  0  0  0
   17.4616   24.4758   -5.7041 C   0  0  0  0  0  0  0  0  0  0  0  0
   17.4973   24.6642   -4.3695 N   0  0  0  0  0  0  0  0  0  0  0  0
  1  3  1  1  0  0  0
  1  5  2  0  0  0  0
  1  9  1  0  0  0  0
  1 18  1  0  0  0  0
  2  4  1  6  0  0  0
  2  6  2  0  0  0  0
  2 10  1  0  0  0  0
  2 17  1  0  0  0  0
  7  9  1  0  0  0  0
  8 10  1  0  0  0  0
 11  7  1  6  0  0  0
 11 13  1  0  0  0  0
 11 15  1  0  0  0  0
 12  8  1  1  0  0  0
 12 14  1  0  0  0  0
 12 16  1  0  0  0  0
 13 23  1  0  0  0  0
 14 24  1  0  0  0  0
 15 17  1  1  0  0  0
 15 19  1  0  0  0  0
 16 18  1  6  0  0  0
 16 20  1  0  0  0  0
 19 21  1  1  0  0  0
 19 23  1  0  0  0  0
 20 22  1  1  0  0  0
 20 24  1  0  0  0  0
 23 34  1  6  0  0  0
 24 44  1  6  0  0  0
 25 26  2  0  0  0  0
 25 30  1  0  0  0  0
 26 27  1  0  0  0  0
 27 28  2  0  0  0  0
 28 29  1  0  0  0  0
 28 34  1  0  0  0  0
 29 30  2  0  0  0  0
 29 32  1  0  0  0  0
 30 31  1  0  0  0  0
 32 33  2  0  0  0  0
 33 34  1  0  0  0  0
 35 36  2  0  0  0  0
 35 40  1  0  0  0  0
 36 37  1  0  0  0  0
 37 38  2  0  0  0  0
 38 39  1  0  0  0  0
 38 44  1  0  0  0  0
 39 40  2  0  0  0  0
 39 42  1  0  0  0  0
 40 41  1  0  0  0  0
 42 43  2  0  0  0  0
 43 44  1  0  0  0  0
M  CHG  2   3  -1   4  -1
M  END
>  <CHROM.1>
93.41499378,-4.26776333,13.85163735,24.00583857,-2.39602533,3.06268286,-0.17343019
-3.01793331

>  <Name>
ligand

>  <RI>
0

>  <Rbt.Current_Directory>
/home/itssahil/PROJECTS/Mol_Feturizer/New_Systems/rnas/4QLM

>  <Rbt.Executable>
rbdock ($Id: //depot/dev/client3/rdock/2013.1/src/exe/rbdock.cxx#4 $)

>  <Rbt.Library>
libRbt.so (2013.1, Build901 2013/11/27)

>  <Rbt.Parameter_File>
/export/apps/rDock/src/rDock_2013.1_src/data/scripts/dock_solv.prm

>  <Rbt.Receptor>
prm/blind_docking_60.prm

>  <SCORE>
31.3672

>  <SCORE.INTER>
27.4574

>  <SCORE.INTER.CONST>
1

>  <SCORE.INTER.POLAR>
0

>  <SCORE.INTER.ROT>
2

>  <SCORE.INTER.SOLV>
51.8386

>  <SCORE.INTER.VDW>
-3.9079

>  <SCORE.INTER.norm>
0.624032

>  <SCORE.INTRA>
-0.720855

>  <SCORE.INTRA.DIHEDRAL>
-0.0284019

>  <SCORE.INTRA.DIHEDRAL.0>
2.32994

>  <SCORE.INTRA.POLAR>
0

>  <SCORE.INTRA.POLAR.0>
0

>  <SCORE.INTRA.REPUL>
0

>  <SCORE.INTRA.REPUL.0>
0

>  <SCORE.INTRA.SOLV>
0.420941

>  <SCORE.INTRA.SOLV.lig_0>
-117.703

>  <SCORE.INTRA.VDW>
-0.917125

>  <SCORE.INTRA.VDW.0>
-1.59997

>  <SCORE.INTRA.norm>
-0.0163831

>  <SCORE.RESTR>
4.63061

>  <SCORE.RESTR.CAVITY>
4.63061

>  <SCORE.RESTR.norm>
0.105241

>  <SCORE.SYSTEM>
0

>  <SCORE.SYSTEM.CONST>
0

>  <SCORE.SYSTEM.DIHEDRAL>
0

>  <SCORE.SYSTEM.SOLV>
0

>  <SCORE.SYSTEM.norm>
0

>  <SCORE.heavy>
44

>  <SCORE.norm>
0.71289

>  <RMSD>
26.678

$$$$
ligand
 OpenBabel11021811513D
libRbt.so/2013.1/901 2013/11/27
 44 50  0  0  0  0  0  0  0  0999 V2000
   14.9845   23.3773    0.5291 P   0  0  2  0  0  0  0  0  0  0  0  0
   12.9215   27.1243   -2.7739 P   0  0  1  0  0  0  0  0  0  0  0  0
   16.0540   23.6065    1.5942 O   0  5  0  0  0  0  0  0  0  0  0  0
   12.8474   26.4527   -4.1235 O   0  5  0  0  0  0  0  0  0  0  0  0
   15.0926   21.9246    0.1324 O   0  0  0  0  0  0  0  0  0  0  0  0
   12.0916   28.4253   -2.8601 O   0  0  0  0  0  0  0  0  0  0  0  0
   15.9901   25.5864   -0.2124 C   0  0  0  0  0  0  0  0  0  0  0  0
   12.5620   26.3996   -0.3216 C   0  0  0  0  0  0  0  0  0  0  0  0
   15.3367   24.3767   -0.6197 O   0  0  0  0  0  0  0  0  0  0  0  0
   12.4480   25.9662   -1.7064 O   0  0  0  0  0  0  0  0  0  0  0  0
   16.3165   26.4431   -1.4310 C   0  0  1  0  0  0  0  0  0  0  0  0
   11.9454   25.2437    0.5533 C   0  0  1  0  0  0  0  0  0  0  0  0
   17.4459   26.0350   -1.9213 O   0  0  0  0  0  0  0  0  0  0  0  0
   10.8055   25.0111    0.0429 O   0  0  0  0  0  0  0  0  0  0  0  0
   15.2942   26.3200   -2.5374 C   0  0  1  0  0  0  0  0  0  0  0  0
   12.6947   23.9164    0.3213 C   0  0  1  0  0  0  0  0  0  0  0  0
   14.4864   27.4095   -2.4433 O   0  0  0  0  0  0  0  0  0  0  0  0
   13.5516   23.6591    1.3171 O   0  0  0  0  0  0  0  0  0  0  0  0
   16.1565   26.3927   -3.8455 C   0  0  1  0  0  0  0  0  0  0  0  0
   11.6227   22.8087    0.2061 C   0  0  1  0  0  0  0  0  0  0  0  0
   16.0638   27.7517   -4.4438 O   0  0  0  0  0  0  0  0  0  0  0  0
   11.5375   22.0264    1.4813 O   0  0  0  0  0  0  0  0  0  0  0  0
   17.3741   26.1173   -3.5029 C   0  0  2  0  0  0  0  0  0  0  0  0
   10.5149   23.4376    0.0105 C   0  0  2  0  0  0  0  0  0  0  0  0
   16.6105   21.1880   -5.4879 N   0  0  0  0  0  0  0  0  0  0  0  0
   15.6331   22.0219   -5.0335 C   0  0  0  0  0  0  0  0  0  0  0  0
   15.9332   23.2680   -4.5447 N   0  0  0  0  0  0  0  0  0  0  0  0
   17.2394   23.6718   -4.5139 C   0  0  0  0  0  0  0  0  0  0  0  0
   18.2124   22.8600   -4.9506 C   0  0  0  0  0  0  0  0  0  0  0  0
   17.8979   21.5991   -5.4545 C   0  0  0  0  0  0  0  0  0  0  0  0
   18.8222   20.6544   -5.9426 N   0  0  0  0  0  0  0  0  0  0  0  0
   19.3874   23.5093   -4.8095 N   0  0  0  0  0  0  0  0  0  0  0  0
   19.1268   24.7346   -4.2711 C   0  0  0  0  0  0  0  0  0  0  0  0
   17.8023   24.8436   -4.1043 N   0  0  0  0  0  0  0  0  0  0  0  0
   11.0641   21.6988   -4.8675 N   0  0  0  0  0  0  0  0  0  0  0  0
   12.0476   21.8546   -3.9429 C   0  0  0  0  0  0  0  0  0  0  0  0
   11.7368   22.3325   -2.7011 N   0  0  0  0  0  0  0  0  0  0  0  0
   10.4501   22.6454   -2.3897 C   0  0  0  0  0  0  0  0  0  0  0  0
    9.4682   22.4890   -3.3006 C   0  0  0  0  0  0  0  0  0  0  0  0
    9.7943   22.0053   -4.5643 C   0  0  0  0  0  0  0  0  0  0  0  0
    8.9197   21.7798   -5.6864 N   0  0  0  0  0  0  0  0  0  0  0  0
    8.3090   22.8778   -2.7174 N   0  0  0  0  0  0  0  0  0  0  0  0
    8.5834   23.2691   -1.4401 C   0  0  0  0  0  0  0  0  0  0  0  0
    9.9093   23.1187   -1.2463 N   0  0  0  0  0  0  0  0  0  0  0  0
  1  3  1  1  0  0  0
  1  5  2  0  0  0  0
  1  9  1  0  0  0  0
  1 18  1  0  0  0  0
  2  4  1  6  0  0  0
  2  6  2  0  0  0  0
  2 10  1  0  0  0  0
  2 17  1  0  0  0  0
  7  9  1  0  0  0  0
  8 10  1  0  0  0  0
 11  7  1  1  0  0  0
 11 13  1  0  0  0  0
 11 15  1  0  0  0  0
 12  8  1  6  0  0  0
 12 14  1  0  0  0  0
 12 16  1  0  0  0  0
 13 23  1  0  0  0  0
 14 24  1  0  0  0  0
 15 17  1  6  0  0  0
 15 19  1  0  0  0  0
 16 18  1  1  0  0  0
 16 20  1  0  0  0  0
 19 21  1  1  0  0  0
 19 23  1  0  0  0  0
 20 22  1  1  0  0  0
 20 24  1  0  0  0  0
 23 34  1  6  0  0  0
 24 44  1  6  0  0  0
 25 26  2  0  0  0  0
 25 30  1  0  0  0  0
 26 27  1  0  0  0  0
 27 28  2  0  0  0  0
 28 29  1  0  0  0  0
 28 34  1  0  0  0  0
 29 30  2  0  0  0  0
 29 32  1  0  0  0  0
 30 31  1  0  0  0  0
 32 33  2  0  0  0  0
 33 34  1  0  0  0  0
 35 36  2  0  0  0  0
 35 40  1  0  0  0  0
 36 37  1  0  0  0  0
 37 38  2  0  0  0  0
 38 39  1  0  0  0  0
 38 44  1  0  0  0  0
 39 40  2  0  0  0  0
 39 42  1  0  0  0  0
 40 41  1  0  0  0  0
 42 43  2  0  0  0  0
 43 44  1  0  0  0  0
M  CHG  2   3  -1   4  -1
M  END
>  <CHROM.1>
91.19803994,96.74113456,13.93856028,24.18577063,-2.31385986,-2.93391159,-0.29426983
-2.24359337

>  <Name>
ligand

>  <RI>
0

>  <Rbt.Current_Directory>
/home/itssahil/PROJECTS/Mol_Feturizer/New_Systems/rnas/4QLM

>  <Rbt.Executable>
rbdock ($Id: //depot/dev/client3/rdock/2013.1/src/exe/rbdock.cxx#4 $)

>  <Rbt.Library>
libRbt.so (2013.1, Build901 2013/11/27)

>  <Rbt.Parameter_File>
/export/apps/rDock/src/rDock_2013.1_src/data/scripts/dock_solv.prm

>  <Rbt.Receptor>
prm/blind_docking_60.prm

>  <SCORE>
34.8591

>  <SCORE.INTER>
30.5164

>  <SCORE.INTER.CONST>
1

>  <SCORE.INTER.POLAR>
0

>  <SCORE.INTER.ROT>
2

>  <SCORE.INTER.SOLV>
52.9166

>  <SCORE.INTER.VDW>
-2.22793

>  <SCORE.INTER.norm>
0.693555

>  <SCORE.INTRA>
-0.755461

>  <SCORE.INTRA.DIHEDRAL>
-0.0231839

>  <SCORE.INTRA.DIHEDRAL.0>
2.32994

>  <SCORE.INTRA.POLAR>
0

>  <SCORE.INTRA.POLAR.0>
0

>  <SCORE.INTRA.REPUL>
0

>  <SCORE.INTRA.REPUL.0>
0

>  <SCORE.INTRA.SOLV>
0.0280335

>  <SCORE.INTRA.SOLV.lig_0>
-117.703

>  <SCORE.INTRA.VDW>
-0.757885

>  <SCORE.INTRA.VDW.0>
-1.59997

>  <SCORE.INTRA.norm>
-0.0171696

>  <SCORE.RESTR>
5.09812

>  <SCORE.RESTR.CAVITY>
5.09812

>  <SCORE.RESTR.norm>
0.115866

>  <SCORE.SYSTEM>
0

>  <SCORE.SYSTEM.CONST>
0

>  <SCORE.SYSTEM.DIHEDRAL>
0

>  <SCORE.SYSTEM.SOLV>
0

>  <SCORE.SYSTEM.norm>
0

>  <SCORE.heavy>
44

>  <SCORE.norm>
0.792251

>  <RMSD>
26.680

$$$$
ligand
 OpenBabel11021811513D
libRbt.so/2013.1/901 2013/11/27
 44 50  0  0  0  0  0  0  0  0999 V2000
   13.2659   26.8930   -3.0975 P   0  0  2  0  0  0  0  0  0  0  0  0
   15.0669   22.9966    0.1858 P   0  0  1  0  0  0  0  0  0  0  0  0
   12.6049   28.1997   -2.6660 O   0  5  0  0  0  0  0  0  0  0  0  0
   14.6234   21.7078   -0.4625 O   0  5  0  0  0  0  0  0  0  0  0  0
   12.7525   26.6025   -4.4873 O   0  0  0  0  0  0  0  0  0  0  0  0
   16.0924   22.6317    1.2832 O   0  0  0  0  0  0  0  0  0  0  0  0
   12.5768   26.3632   -0.7130 C   0  0  0  0  0  0  0  0  0  0  0  0
   15.9320   25.2848   -0.6415 C   0  0  0  0  0  0  0  0  0  0  0  0
   12.8255   25.8436   -2.0262 O   0  0  0  0  0  0  0  0  0  0  0  0
   15.5657   23.9412   -1.0648 O   0  0  0  0  0  0  0  0  0  0  0  0
   12.1116   25.2457    0.2146 C   0  0  1  0  0  0  0  0  0  0  0  0
   16.5120   26.0050   -1.9167 C   0  0  1  0  0  0  0  0  0  0  0  0
   10.8315   25.1013    0.0632 O   0  0  0  0  0  0  0  0  0  0  0  0
   17.3919   25.2120   -2.3761 O   0  0  0  0  0  0  0  0  0  0  0  0
   12.7391   23.9078   -0.1025 C   0  0  1  0  0  0  0  0  0  0  0  0
   15.4688   26.0432   -3.0513 C   0  0  1  0  0  0  0  0  0  0  0  0
   13.7496   23.7310    0.7897 O   0  0  0  0  0  0  0  0  0  0  0  0
   14.8869   27.2455   -3.1389 O   0  0  0  0  0  0  0  0  0  0  0  0
   11.5832   22.8841    0.1738 C   0  0  1  0  0  0  0  0  0  0  0  0
   16.2122   25.6854   -4.3584 C   0  0  1  0  0  0  0  0  0  0  0  0
   11.7873   22.2267    1.4927 O   0  0  0  0  0  0  0  0  0  0  0  0
   16.4823   26.9201   -5.1632 O   0  0  0  0  0  0  0  0  0  0  0  0
   10.4784   23.5585    0.1562 C   0  0  2  0  0  0  0  0  0  0  0  0
   17.3283   25.1675   -3.9747 C   0  0  2  0  0  0  0  0  0  0  0  0
    9.6190   21.6264   -4.7784 N   0  0  0  0  0  0  0  0  0  0  0  0
   10.8345   21.7536   -4.1752 C   0  0  0  0  0  0  0  0  0  0  0  0
   10.9477   22.2599   -2.9054 N   0  0  0  0  0  0  0  0  0  0  0  0
    9.8159   22.6440   -2.2408 C   0  0  0  0  0  0  0  0  0  0  0  0
    8.6142   22.5317   -2.8236 C   0  0  0  0  0  0  0  0  0  0  0  0
    8.5071   22.0074   -4.1106 C   0  0  0  0  0  0  0  0  0  0  0  0
    7.3091   21.8371   -4.8322 N   0  0  0  0  0  0  0  0  0  0  0  0
    7.6870   22.9750   -1.9484 N   0  0  0  0  0  0  0  0  0  0  0  0
    8.3352   23.3708   -0.8160 C   0  0  0  0  0  0  0  0  0  0  0  0
    9.6454   23.1516   -0.9873 N   0  0  0  0  0  0  0  0  0  0  0  0
   19.8614   21.6821   -6.8998 N   0  0  0  0  0  0  0  0  0  0  0  0
   20.0949   23.0194   -6.8412 C   0  0  0  0  0  0  0  0  0  0  0  0
   19.3311   23.8025   -6.0223 N   0  0  0  0  0  0  0  0  0  0  0  0
   18.3466   23.2468   -5.2658 C   0  0  0  0  0  0  0  0  0  0  0  0
   18.1122   21.9199   -5.3154 C   0  0  0  0  0  0  0  0  0  0  0  0
   18.8922   21.1302   -6.1551 C   0  0  0  0  0  0  0  0  0  0  0  0
   18.8059   19.7097   -6.3784 N   0  0  0  0  0  0  0  0  0  0  0  0
   17.0866   21.6579   -4.4700 N   0  0  0  0  0  0  0  0  0  0  0  0
   16.6954   22.8315   -3.8961 C   0  0  0  0  0  0  0  0  0  0  0  0
   17.4825   23.8074   -4.3923 N   0  0  0  0  0  0  0  0  0  0  0  0
  1  3  1  1  0  0  0
  1  5  2  0  0  0  0
  1  9  1  0  0  0  0
  1 18  1  0  0  0  0
  2  4  1  6  0  0  0
  2  6  2  0  0  0  0
  2 10  1  0  0  0  0
  2 17  1  0  0  0  0
  7  9  1  0  0  0  0
  8 10  1  0  0  0  0
 11  7  1  6  0  0  0
 11 13  1  0  0  0  0
 11 15  1  0  0  0  0
 12  8  1  1  0  0  0
 12 14  1  0  0  0  0
 12 16  1  0  0  0  0
 13 23  1  0  0  0  0
 14 24  1  0  0  0  0
 15 17  1  1  0  0  0
 15 19  1  0  0  0  0
 16 18  1  6  0  0  0
 16 20  1  0  0  0  0
 19 21  1  1  0  0  0
 19 23  1  0  0  0  0
 20 22  1  6  0  0  0
 20 24  1  0  0  0  0
 23 34  1  6  0  0  0
 24 44  1  1  0  0  0
 25 26  2  0  0  0  0
 25 30  1  0  0  0  0
 26 27  1  0  0  0  0
 27 28  2  0  0  0  0
 28 29  1  0  0  0  0
 28 34  1  0  0  0  0
 29 30  2  0  0  0  0
 29 32  1  0  0  0  0
 30 31  1  0  0  0  0
 32 33  2  0  0  0  0
 33 34  1  0  0  0  0
 35 36  2  0  0  0  0
 35 40  1  0  0  0  0
 36 37  1  0  0  0  0
 37 38  2  0  0  0  0
 38 39  1  0  0  0  0
 38 44  1  0  0  0  0
 39 40  2  0  0  0  0
 39 42  1  0  0  0  0
 40 41  1  0  0  0  0
 42 43  2  0  0  0  0
 43 44  1  0  0  0  0
M  CHG  2   3  -1   4  -1
M  END
>  <CHROM.1>
91.81527281,-126.44355201,13.99442311,23.91397359,-2.58649447,-2.83220626
-0.26184475,-2.28407065

>  <Name>
ligand

>  <RI>
0

>  <Rbt.Current_Directory>
/home/itssahil/PROJECTS/Mol_Feturizer/New_Systems/rnas/4QLM

>  <Rbt.Executable>
rbdock ($Id: //depot/dev/client3/rdock/2013.1/src/exe/rbdock.cxx#4 $)

>  <Rbt.Library>
libRbt.so (2013.1, Build901 2013/11/27)

>  <Rbt.Parameter_File>
/export/apps/rDock/src/rDock_2013.1_src/data/scripts/dock_solv.prm

>  <Rbt.Receptor>
prm/blind_docking_60.prm

>  <SCORE>
17.3451

>  <SCORE.INTER>
11.0161

>  <SCORE.INTER.CONST>
1

>  <SCORE.INTER.POLAR>
0

>  <SCORE.INTER.ROT>
2

>  <SCORE.INTER.SOLV>
51.0985

>  <SCORE.INTER.VDW>
-14.6221

>  <SCORE.INTER.norm>
0.250366

>  <SCORE.INTRA>
-0.474255

>  <SCORE.INTRA.DIHEDRAL>
-0.0291647

>  <SCORE.INTRA.DIHEDRAL.0>
2.32994

>  <SCORE.INTRA.POLAR>
0

>  <SCORE.INTRA.POLAR.0>
0

>  <SCORE.INTRA.REPUL>
0

>  <SCORE.INTRA.REPUL.0>
0

>  <SCORE.INTRA.SOLV>
0.00244452

>  <SCORE.INTRA.SOLV.lig_0>
-117.703

>  <SCORE.INTRA.VDW>
-0.460895

>  <SCORE.INTRA.VDW.0>
-1.59997

>  <SCORE.INTRA.norm>
-0.0107785

>  <SCORE.RESTR>
6.80328

>  <SCORE.RESTR.CAVITY>
6.80328

>  <SCORE.RESTR.norm>
0.15462

>  <SCORE.SYSTEM>
0

>  <SCORE.SYSTEM.CONST>
0

>  <SCORE.SYSTEM.DIHEDRAL>
0

>  <SCORE.SYSTEM.SOLV>
0

>  <SCORE.SYSTEM.norm>
0

>  <SCORE.heavy>
44

>  <SCORE.norm>
0.394207

>  <RMSD>
26.693

$$$$
ligand
 OpenBabel11021811513D
libRbt.so/2013.1/901 2013/11/27
 44 50  0  0  0  0  0  0  0  0999 V2000
   12.9439   27.0997   -2.8820 P   0  0  2  0  0  0  0  0  0  0  0  0
   15.0685   23.0584    0.0093 P   0  0  1  0  0  0  0  0  0  0  0  0
   12.1238   28.2647   -2.3337 O   0  5  0  0  0  0  0  0  0  0  0  0
   14.7972   21.8159   -0.8036 O   0  5  0  0  0  0  0  0  0  0  0  0
   12.5137   26.9237   -4.3185 O   0  0  0  0  0  0  0  0  0  0  0  0
   16.0919   22.6790    1.1037 O   0  0  0  0  0  0  0  0  0  0  0  0
   12.2410   26.2150   -0.6095 C   0  0  0  0  0  0  0  0  0  0  0  0
   15.6932   25.5103   -0.5068 C   0  0  0  0  0  0  0  0  0  0  0  0
   12.5910   25.8874   -1.9609 O   0  0  0  0  0  0  0  0  0  0  0  0
   15.4973   24.1952   -1.0992 O   0  0  0  0  0  0  0  0  0  0  0  0
   11.8760   24.9501    0.1601 C   0  0  1  0  0  0  0  0  0  0  0  0
   16.2292   26.4377   -1.6618 C   0  0  1  0  0  0  0  0  0  0  0  0
   10.6266   24.6854   -0.0664 O   0  0  0  0  0  0  0  0  0  0  0  0
   17.2088   25.8069   -2.1683 O   0  0  0  0  0  0  0  0  0  0  0  0
   12.6626   23.7368   -0.2799 C   0  0  1  0  0  0  0  0  0  0  0  0
   15.2268   26.4973   -2.8318 C   0  0  1  0  0  0  0  0  0  0  0  0
   13.6564   23.5660    0.6320 O   0  0  0  0  0  0  0  0  0  0  0  0
   14.5144   27.6303   -2.8069 O   0  0  0  0  0  0  0  0  0  0  0  0
   11.6229   22.5669   -0.1779 C   0  0  1  0  0  0  0  0  0  0  0  0
   16.0494   26.3827   -4.1354 C   0  0  1  0  0  0  0  0  0  0  0  0
   11.8568   21.7822    1.0643 O   0  0  0  0  0  0  0  0  0  0  0  0
   16.2030   27.7272   -4.7787 O   0  0  0  0  0  0  0  0  0  0  0  0
   10.4494   23.1132   -0.1689 C   0  0  2  0  0  0  0  0  0  0  0  0
   17.2039   25.9479   -3.7626 C   0  0  2  0  0  0  0  0  0  0  0  0
    9.9822   21.6771   -5.3207 N   0  0  0  0  0  0  0  0  0  0  0  0
   11.1542   21.8554   -4.6485 C   0  0  0  0  0  0  0  0  0  0  0  0
   11.1663   22.2232   -3.3271 N   0  0  0  0  0  0  0  0  0  0  0  0
    9.9765   22.4150   -2.6808 C   0  0  0  0  0  0  0  0  0  0  0  0
    8.8158   22.2505   -3.3305 C   0  0  0  0  0  0  0  0  0  0  0  0
    8.8123   21.8674   -4.6706 C   0  0  0  0  0  0  0  0  0  0  0  0
    7.6665   21.6616   -5.4642 N   0  0  0  0  0  0  0  0  0  0  0  0
    7.8151   22.4972   -2.4587 N   0  0  0  0  0  0  0  0  0  0  0  0
    8.3755   22.8247   -1.2595 C   0  0  0  0  0  0  0  0  0  0  0  0
    9.7069   22.7578   -1.3894 N   0  0  0  0  0  0  0  0  0  0  0  0
   18.5873   20.9835   -3.0131 N   0  0  0  0  0  0  0  0  0  0  0  0
   18.3860   21.9263   -2.0554 C   0  0  0  0  0  0  0  0  0  0  0  0
   18.0307   23.1942   -2.4208 N   0  0  0  0  0  0  0  0  0  0  0  0
   17.8738   23.5100   -3.7346 C   0  0  0  0  0  0  0  0  0  0  0  0
   18.0675   22.5785   -4.6901 C   0  0  0  0  0  0  0  0  0  0  0  0
   18.4330   21.2906   -4.3093 C   0  0  0  0  0  0  0  0  0  0  0  0
   18.7070   20.1549   -5.1520 N   0  0  0  0  0  0  0  0  0  0  0  0
   17.8460   23.1736   -5.8867 N   0  0  0  0  0  0  0  0  0  0  0  0
   17.5094   24.4757   -5.6607 C   0  0  0  0  0  0  0  0  0  0  0  0
   17.5265   24.6729   -4.3270 N   0  0  0  0  0  0  0  0  0  0  0  0
  1  3  1  1  0  0  0
  1  5  2  0  0  0  0
  1  9  1  0  0  0  0
  1 18  1  0  0  0  0
  2  4  1  6  0  0  0
  2  6  2  0  0  0  0
  2 10  1  0  0  0  0
  2 17  1  0  0  0  0
  7  9  1  0  0  0  0
  8 10  1  0  0  0  0
 11  7  1  6  0  0  0
 11 13  1  0  0  0  0
 11 15  1  0  0  0  0
 12  8  1  1  0  0  0
 12 14  1  0  0  0  0
 12 16  1  0  0  0  0
 13 23  1  0  0  0  0
 14 24  1  0  0  0  0
 15 17  1  1  0  0  0
 15 19  1  0  0  0  0
 16 18  1  6  0  0  0
 16 20  1  0  0  0  0
 19 21  1  1  0  0  0
 19 23  1  0  0  0  0
 20 22  1  1  0  0  0
 20 24  1  0  0  0  0
 23 34  1  6  0  0  0
 24 44  1  6  0  0  0
 25 26  2  0  0  0  0
 25 30  1  0  0  0  0
 26 27  1  0  0  0  0
 27 28  2  0  0  0  0
 28 29  1  0  0  0  0
 28 34  1  0  0  0  0
 29 30  2  0  0  0  0
 29 32  1  0  0  0  0
 30 31  1  0  0  0  0
 32 33  2  0  0  0  0
 33 34  1  0  0  0  0
 35 36  2  0  0  0  0
 35 40  1  0  0  0  0
 36 37  1  0  0  0  0
 37 38  2  0  0  0  0
 38 39  1  0  0  0  0
 38 44  1  0  0  0  0
 39 40  2  0  0  0  0
 39 42  1  0  0  0  0
 40 41  1  0  0  0  0
 42 43  2  0  0  0  0
 43 44  1  0  0  0  0
M  CHG  2   3  -1   4  -1
M  END
>  <CHROM.1>
92.54263995,-4.00952028,13.86506915,24.01157247,-2.38330633,3.05593972,-0.16426776
-3.03196771

>  <Name>
ligand

>  <RI>
0

>  <Rbt.Current_Directory>
/home/itssahil/PROJECTS/Mol_Feturizer/New_Systems/rnas/4QLM

>  <Rbt.Executable>
rbdock ($Id: //depot/dev/client3/rdock/2013.1/src/exe/rbdock.cxx#4 $)

>  <Rbt.Library>
libRbt.so (2013.1, Build901 2013/11/27)

>  <Rbt.Parameter_File>
/export/apps/rDock/src/rDock_2013.1_src/data/scripts/dock_solv.prm

>  <Rbt.Receptor>
prm/blind_docking_60.prm

>  <SCORE>
31.373

>  <SCORE.INTER>
27.5014

>  <SCORE.INTER.CONST>
1

>  <SCORE.INTER.POLAR>
0

>  <SCORE.INTER.ROT>
2

>  <SCORE.INTER.SOLV>
52.2731

>  <SCORE.INTER.VDW>
-4.02342

>  <SCORE.INTER.norm>
0.625032

>  <SCORE.INTRA>
-0.735826

>  <SCORE.INTRA.DIHEDRAL>
-0.0296965

>  <SCORE.INTRA.DIHEDRAL.0>
2.32994

>  <SCORE.INTRA.POLAR>
0

>  <SCORE.INTRA.POLAR.0>
0

>  <SCORE.INTRA.REPUL>
0

>  <SCORE.INTRA.REPUL.0>
0

>  <SCORE.INTRA.SOLV>
0.437731

>  <SCORE.INTRA.SOLV.lig_0>
-117.703

>  <SCORE.INTRA.VDW>
-0.939844

>  <SCORE.INTRA.VDW.0>
-1.59997

>  <SCORE.INTRA.norm>
-0.0167233

>  <SCORE.RESTR>
4.60741

>  <SCORE.RESTR.CAVITY>
4.60741

>  <SCORE.RESTR.norm>
0.104714

>  <SCORE.SYSTEM>
0

>  <SCORE.SYSTEM.CONST>
0

>  <SCORE.SYSTEM.DIHEDRAL>
0

>  <SCORE.SYSTEM.SOLV>
0

>  <SCORE.SYSTEM.norm>
0

>  <SCORE.heavy>
44

>  <SCORE.norm>
0.713022

>  <RMSD>
26.694

$$$$
ligand
 OpenBabel11021811513D
libRbt.so/2013.1/901 2013/11/27
 44 50  0  0  0  0  0  0  0  0999 V2000
   12.9496   27.1184   -2.8538 P   0  0  2  0  0  0  0  0  0  0  0  0
   15.0967   23.0671    0.0067 P   0  0  1  0  0  0  0  0  0  0  0  0
   12.1400   28.2854   -2.2942 O   0  5  0  0  0  0  0  0  0  0  0  0
   14.8113   21.8264   -0.8040 O   0  5  0  0  0  0  0  0  0  0  0  0
   12.5011   26.9454   -4.2851 O   0  0  0  0  0  0  0  0  0  0  0  0
   16.1322   22.6832    1.0881 O   0  0  0  0  0  0  0  0  0  0  0  0
   12.2718   26.2335   -0.5737 C   0  0  0  0  0  0  0  0  0  0  0  0
   15.7228   25.5176   -0.5144 C   0  0  0  0  0  0  0  0  0  0  0  0
   12.6042   25.9062   -1.9297 O   0  0  0  0  0  0  0  0  0  0  0  0
   15.5154   24.2038   -1.1057 O   0  0  0  0  0  0  0  0  0  0  0  0
   11.9124   24.9688    0.1989 C   0  0  1  0  0  0  0  0  0  0  0  0
   16.2475   26.4446   -1.6749 C   0  0  1  0  0  0  0  0  0  0  0  0
   10.6594   24.7084   -0.0125 O   0  0  0  0  0  0  0  0  0  0  0  0
   17.2188   25.8112   -2.1941 O   0  0  0  0  0  0  0  0  0  0  0  0
   12.6896   23.7535   -0.2520 C   0  0  1  0  0  0  0  0  0  0  0  0
   15.2310   26.5086   -2.8323 C   0  0  1  0  0  0  0  0  0  0  0  0
   13.6940   23.5786    0.6474 O   0  0  0  0  0  0  0  0  0  0  0  0
   14.5226   27.6439   -2.7975 O   0  0  0  0  0  0  0  0  0  0  0  0
   11.6474   22.5868   -0.1385 C   0  0  1  0  0  0  0  0  0  0  0  0
   16.0370   26.3928   -4.1462 C   0  0  1  0  0  0  0  0  0  0  0  0
   11.8942   21.8001    1.0999 O   0  0  0  0  0  0  0  0  0  0  0  0
   16.1871   27.7376   -4.7899 O   0  0  0  0  0  0  0  0  0  0  0  0
   10.4759   23.1369   -0.1144 C   0  0  2  0  0  0  0  0  0  0  0  0
   17.1947   25.9540   -3.7881 C   0  0  2  0  0  0  0  0  0  0  0  0
    9.9413   21.6753   -5.2524 N   0  0  0  0  0  0  0  0  0  0  0  0
   11.1218   21.8398   -4.5917 C   0  0  0  0  0  0  0  0  0  0  0  0
   11.1511   22.2158   -3.2729 N   0  0  0  0  0  0  0  0  0  0  0  0
    9.9701   22.4300   -2.6175 C   0  0  0  0  0  0  0  0  0  0  0  0
    8.8014   22.2793   -3.2559 C   0  0  0  0  0  0  0  0  0  0  0  0
    8.7802   21.8878   -4.5934 C   0  0  0  0  0  0  0  0  0  0  0  0
    7.6245   21.6947   -5.3757 N   0  0  0  0  0  0  0  0  0  0  0  0
    7.8123   22.5471   -2.3771 N   0  0  0  0  0  0  0  0  0  0  0  0
    8.3883   22.8735   -1.1850 C   0  0  0  0  0  0  0  0  0  0  0  0
    9.7173   22.7852   -1.3260 N   0  0  0  0  0  0  0  0  0  0  0  0
   18.5675   20.9834   -3.0607 N   0  0  0  0  0  0  0  0  0  0  0  0
   18.3804   21.9255   -2.0996 C   0  0  0  0  0  0  0  0  0  0  0  0
   18.0259   23.1953   -2.4593 N   0  0  0  0  0  0  0  0  0  0  0  0
   17.8557   23.5136   -3.7709 C   0  0  0  0  0  0  0  0  0  0  0  0
   18.0352   22.5827   -4.7297 C   0  0  0  0  0  0  0  0  0  0  0  0
   18.4001   21.2929   -4.3548 C   0  0  0  0  0  0  0  0  0  0  0  0
   18.6605   20.1574   -5.2020 N   0  0  0  0  0  0  0  0  0  0  0  0
   17.8027   23.1803   -5.9230 N   0  0  0  0  0  0  0  0  0  0  0  0
   17.4736   24.4833   -5.6915 C   0  0  0  0  0  0  0  0  0  0  0  0
   17.5062   24.6786   -4.3577 N   0  0  0  0  0  0  0  0  0  0  0  0
  1  3  1  1  0  0  0
  1  5  2  0  0  0  0
  1  9  1  0  0  0  0
  1 18  1  0  0  0  0
  2  4  1  6  0  0  0
  2  6  2  0  0  0  0
  2 10  1  0  0  0  0
  2 17  1  0  0  0  0
  7  9  1  0  0  0  0
  8 10  1  0  0  0  0
 11  7  1  6  0  0  0
 11 13  1  0  0  0  0
 11 15  1  0  0  0  0
 12  8  1  1  0  0  0
 12 14  1  0  0  0  0
 12 16  1  0  0  0  0
 13 23  1  0  0  0  0
 14 24  1  0  0  0  0
 15 17  1  1  0  0  0
 15 19  1  0  0  0  0
 16 18  1  6  0  0  0
 16 20  1  0  0  0  0
 19 21  1  1  0  0  0
 19 23  1  0  0  0  0
 20 22  1  1  0  0  0
 20 24  1  0  0  0  0
 23 34  1  6  0  0  0
 24 44  1  6  0  0  0
 25 26  2  0  0  0  0
 25 30  1  0  0  0  0
 26 27  1  0  0  0  0
 27 28  2  0  0  0  0
 28 29  1  0  0  0  0
 28 34  1  0  0  0  0
 29 30  2  0  0  0  0
 29 32  1  0  0  0  0
 30 31  1  0  0  0  0
 32 33  2  0  0  0  0
 33 34  1  0  0  0  0
 35 36  2  0  0  0  0
 35 40  1  0  0  0  0
 36 37  1  0  0  0  0
 37 38  2  0  0  0  0
 38 39  1  0  0  0  0
 38 44  1  0  0  0  0
 39 40  2  0  0  0  0
 39 42  1  0  0  0  0
 40 41  1  0  0  0  0
 42 43  2  0  0  0  0
 43 44  1  0  0  0  0
M  CHG  2   3  -1   4  -1
M  END
>  <CHROM.1>
93.39074500,-3.92876587,13.86671385,24.02451466,-2.36920120,3.06040305,-0.17684929
-3.02463805

>  <Name>
ligand

>  <RI>
0

>  <Rbt.Current_Directory>
/home/itssahil/PROJECTS/Mol_Feturizer/New_Systems/rnas/4QLM

>  <Rbt.Executable>
rbdock ($Id: //depot/dev/client3/rdock/2013.1/src/exe/rbdock.cxx#4 $)

>  <Rbt.Library>
libRbt.so (2013.1, Build901 2013/11/27)

>  <Rbt.Parameter_File>
/export/apps/rDock/src/rDock_2013.1_src/data/scripts/dock_solv.prm

>  <Rbt.Receptor>
prm/blind_docking_60.prm

>  <SCORE>
30.8742

>  <SCORE.INTER>
26.8472

>  <SCORE.INTER.CONST>
1

>  <SCORE.INTER.POLAR>
0

>  <SCORE.INTER.ROT>
2

>  <SCORE.INTER.SOLV>
51.6075

>  <SCORE.INTER.VDW>
-4.23772

>  <SCORE.INTER.norm>
0.610163

>  <SCORE.INTRA>
-0.728383

>  <SCORE.INTRA.DIHEDRAL>
-0.0286248

>  <SCORE.INTRA.DIHEDRAL.0>
2.32994

>  <SCORE.INTRA.POLAR>
0

>  <SCORE.INTRA.POLAR.0>
0

>  <SCORE.INTRA.REPUL>
0

>  <SCORE.INTRA.REPUL.0>
0

>  <SCORE.INTRA.SOLV>
0.443132

>  <SCORE.INTRA.SOLV.lig_0>
-117.703

>  <SCORE.INTRA.VDW>
-0.935637

>  <SCORE.INTRA.VDW.0>
-1.59997

>  <SCORE.INTRA.norm>
-0.0165542

>  <SCORE.RESTR>
4.75538

>  <SCORE.RESTR.CAVITY>
4.75538

>  <SCORE.RESTR.norm>
0.108077

>  <SCORE.SYSTEM>
0

>  <SCORE.SYSTEM.CONST>
0

>  <SCORE.SYSTEM.DIHEDRAL>
0

>  <SCORE.SYSTEM.SOLV>
0

>  <SCORE.SYSTEM.norm>
0

>  <SCORE.heavy>
44

>  <SCORE.norm>
0.701685

>  <RMSD>
26.695

$$$$
ligand
 OpenBabel11021811513D
libRbt.so/2013.1/901 2013/11/27
 44 50  0  0  0  0  0  0  0  0999 V2000
   14.8634   23.2502    0.5223 P   0  0  2  0  0  0  0  0  0  0  0  0
   12.9635   26.9544   -2.9236 P   0  0  1  0  0  0  0  0  0  0  0  0
   16.0390   23.4301    1.4794 O   0  5  0  0  0  0  0  0  0  0  0  0
   12.6986   26.1956   -4.2012 O   0  5  0  0  0  0  0  0  0  0  0  0
   14.7719   21.7690    0.2446 O   0  0  0  0  0  0  0  0  0  0  0  0
   12.2819   28.3352   -3.0578 O   0  0  0  0  0  0  0  0  0  0  0  0
   16.0457   25.2598   -0.4802 C   0  0  0  0  0  0  0  0  0  0  0  0
   12.7350   26.4672   -0.3980 C   0  0  0  0  0  0  0  0  0  0  0  0
   15.2270   24.1095   -0.7314 O   0  0  0  0  0  0  0  0  0  0  0  0
   12.4547   25.9463   -1.7279 O   0  0  0  0  0  0  0  0  0  0  0  0
   16.3617   25.9757   -1.7891 C   0  0  1  0  0  0  0  0  0  0  0  0
   12.0686   25.4638    0.6171 C   0  0  1  0  0  0  0  0  0  0  0  0
   17.3915   25.3989   -2.3269 O   0  0  0  0  0  0  0  0  0  0  0  0
   10.8702   25.3313    0.2166 O   0  0  0  0  0  0  0  0  0  0  0  0
   15.2412   25.8920   -2.7999 C   0  0  1  0  0  0  0  0  0  0  0  0
   12.6400   24.0424    0.4436 C   0  0  1  0  0  0  0  0  0  0  0  0
   14.5731   27.0744   -2.7386 O   0  0  0  0  0  0  0  0  0  0  0  0
   13.5442   23.7610    1.3897 O   0  0  0  0  0  0  0  0  0  0  0  0
   15.9913   25.7607   -4.1712 C   0  0  1  0  0  0  0  0  0  0  0  0
   11.4436   23.0657    0.5056 C   0  0  1  0  0  0  0  0  0  0  0  0
   16.0023   27.0714   -4.8751 O   0  0  0  0  0  0  0  0  0  0  0  0
   11.3796   22.3989    1.8459 O   0  0  0  0  0  0  0  0  0  0  0  0
   17.1946   25.3683   -3.8997 C   0  0  2  0  0  0  0  0  0  0  0  0
   10.4015   23.8060    0.3414 C   0  0  2  0  0  0  0  0  0  0  0  0
   19.7476   21.6540   -6.8165 N   0  0  0  0  0  0  0  0  0  0  0  0
   20.1022   22.9658   -6.7139 C   0  0  0  0  0  0  0  0  0  0  0  0
   19.3817   23.8378   -5.9379 N   0  0  0  0  0  0  0  0  0  0  0  0
   18.2877   23.3748   -5.2605 C   0  0  0  0  0  0  0  0  0  0  0  0
   17.9223   22.0889   -5.3573 C   0  0  0  0  0  0  0  0  0  0  0  0
   18.6655   21.2074   -6.1404 C   0  0  0  0  0  0  0  0  0  0  0  0
   18.3894   19.8382   -6.3252 N   0  0  0  0  0  0  0  0  0  0  0  0
   16.8255   21.9116   -4.5905 N   0  0  0  0  0  0  0  0  0  0  0  0
   16.5130   23.1113   -4.0227 C   0  0  0  0  0  0  0  0  0  0  0  0
   17.4228   24.0104   -4.4204 N   0  0  0  0  0  0  0  0  0  0  0  0
   10.2429   21.3810   -4.2645 N   0  0  0  0  0  0  0  0  0  0  0  0
   11.2981   21.4383   -3.4103 C   0  0  0  0  0  0  0  0  0  0  0  0
   11.1789   22.1267   -2.2359 N   0  0  0  0  0  0  0  0  0  0  0  0
   10.0097   22.7463   -1.9205 C   0  0  0  0  0  0  0  0  0  0  0  0
    8.9570   22.6899   -2.7612 C   0  0  0  0  0  0  0  0  0  0  0  0
    9.0883   21.9900   -3.9571 C   0  0  0  0  0  0  0  0  0  0  0  0
    8.1114   21.8166   -5.0014 N   0  0  0  0  0  0  0  0  0  0  0  0
    7.9465   23.3904   -2.1926 N   0  0  0  0  0  0  0  0  0  0  0  0
    8.3828   23.8733   -0.9941 C   0  0  0  0  0  0  0  0  0  0  0  0
    9.6585   23.4671   -0.8338 N   0  0  0  0  0  0  0  0  0  0  0  0
  1  3  1  1  0  0  0
  1  5  2  0  0  0  0
  1  9  1  0  0  0  0
  1 18  1  0  0  0  0
  2  4  1  6  0  0  0
  2  6  2  0  0  0  0
  2 10  1  0  0  0  0
  2 17  1  0  0  0  0
  7  9  1  0  0  0  0
  8 10  1  0  0  0  0
 11  7  1  1  0  0  0
 11 13  1  0  0  0  0
 11 15  1  0  0  0  0
 12  8  1  6  0  0  0
 12 14  1  0  0  0  0
 12 16  1  0  0  0  0
 13 23  1  0  0  0  0
 14 24  1  0  0  0  0
 15 17  1  6  0  0  0
 15 19  1  0  0  0  0
 16 18  1  1  0  0  0
 16 20  1  0  0  0  0
 19 21  1  1  0  0  0
 19 23  1  0  0  0  0
 20 22  1  1  0  0  0
 20 24  1  0  0  0  0
 23 34  1  1  0  0  0
 24 44  1  6  0  0  0
 25 26  2  0  0  0  0
 25 30  1  0  0  0  0
 26 27  1  0  0  0  0
 27 28  2  0  0  0  0
 28 29  1  0  0  0  0
 28 34  1  0  0  0  0
 29 30  2  0  0  0  0
 29 32  1  0  0  0  0
 30 31  1  0  0  0  0
 32 33  2  0  0  0  0
 33 34  1  0  0  0  0
 35 36  2  0  0  0  0
 35 40  1  0  0  0  0
 36 37  1  0  0  0  0
 37 38  2  0  0  0  0
 38 39  1  0  0  0  0
 38 44  1  0  0  0  0
 39 40  2  0  0  0  0
 39 42  1  0  0  0  0
 40 41  1  0  0  0  0
 42 43  2  0  0  0  0
 43 44  1  0  0  0  0
M  CHG  2   3  -1   4  -1
M  END
>  <CHROM.1>
-116.77401614,103.26456764,13.93835047,24.02374542,-2.38616884,-2.73094918
-0.25557763,-2.20193966

>  <Name>
ligand

>  <RI>
0

>  <Rbt.Current_Directory>
/home/itssahil/PROJECTS/Mol_Feturizer/New_Systems/rnas/4QLM

>  <Rbt.Executable>
rbdock ($Id: //depot/dev/client3/rdock/2013.1/src/exe/rbdock.cxx#4 $)

>  <Rbt.Library>
libRbt.so (2013.1, Build901 2013/11/27)

>  <Rbt.Parameter_File>
/export/apps/rDock/src/rDock_2013.1_src/data/scripts/dock_solv.prm

>  <Rbt.Receptor>
prm/blind_docking_60.prm

>  <SCORE>
26.0841

>  <SCORE.INTER>
18.5553

>  <SCORE.INTER.CONST>
1

>  <SCORE.INTER.POLAR>
0

>  <SCORE.INTER.ROT>
2

>  <SCORE.INTER.SOLV>
53.5755

>  <SCORE.INTER.VDW>
-10.4216

>  <SCORE.INTER.norm>
0.421712

>  <SCORE.INTRA>
1.16821

>  <SCORE.INTRA.DIHEDRAL>
0.104993

>  <SCORE.INTRA.DIHEDRAL.0>
2.32994

>  <SCORE.INTRA.POLAR>
0

>  <SCORE.INTRA.POLAR.0>
0

>  <SCORE.INTRA.REPUL>
0

>  <SCORE.INTRA.REPUL.0>
0

>  <SCORE.INTRA.SOLV>
0.025808

>  <SCORE.INTRA.SOLV.lig_0>
-117.703

>  <SCORE.INTRA.VDW>
1.10281

>  <SCORE.INTRA.VDW.0>
-1.59997

>  <SCORE.INTRA.norm>
0.0265502

>  <SCORE.RESTR>
6.36056

>  <SCORE.RESTR.CAVITY>
6.36056

>  <SCORE.RESTR.norm>
0.144558

>  <SCORE.SYSTEM>
0

>  <SCORE.SYSTEM.CONST>
0

>  <SCORE.SYSTEM.DIHEDRAL>
0

>  <SCORE.SYSTEM.SOLV>
0

>  <SCORE.SYSTEM.norm>
0

>  <SCORE.heavy>
44

>  <SCORE.norm>
0.592821

>  <RMSD>
26.698

$$$$
ligand
 OpenBabel11021811513D
libRbt.so/2013.1/901 2013/11/27
 44 50  0  0  0  0  0  0  0  0999 V2000
   13.2752   26.8974   -3.1062 P   0  0  2  0  0  0  0  0  0  0  0  0
   15.0849   23.0243    0.1998 P   0  0  1  0  0  0  0  0  0  0  0  0
   12.6171   28.2080   -2.6822 O   0  5  0  0  0  0  0  0  0  0  0  0
   14.6377   21.7310   -0.4370 O   0  5  0  0  0  0  0  0  0  0  0  0
   12.7563   26.5969   -4.4918 O   0  0  0  0  0  0  0  0  0  0  0  0
   16.1141   22.6667    1.2961 O   0  0  0  0  0  0  0  0  0  0  0  0
   12.5946   26.3864   -0.7152 C   0  0  0  0  0  0  0  0  0  0  0  0
   15.9490   25.3053   -0.6481 C   0  0  0  0  0  0  0  0  0  0  0  0
   12.8378   25.8567   -2.0253 O   0  0  0  0  0  0  0  0  0  0  0  0
   15.5798   23.9588   -1.0598 O   0  0  0  0  0  0  0  0  0  0  0  0
   12.1318   25.2765    0.2226 C   0  0  1  0  0  0  0  0  0  0  0  0
   16.5249   26.0152   -1.9310 C   0  0  1  0  0  0  0  0  0  0  0  0
   10.8511   25.1322    0.0772 O   0  0  0  0  0  0  0  0  0  0  0  0
   17.4022   25.2179   -2.3876 O   0  0  0  0  0  0  0  0  0  0  0  0
   12.7568   23.9356   -0.0866 C   0  0  1  0  0  0  0  0  0  0  0  0
   15.4774   26.0459   -3.0619 C   0  0  1  0  0  0  0  0  0  0  0  0
   13.7705   23.7646    0.8031 O   0  0  0  0  0  0  0  0  0  0  0  0
   14.8963   27.2480   -3.1564 O   0  0  0  0  0  0  0  0  0  0  0  0
   11.6010   22.9152    0.2018 C   0  0  1  0  0  0  0  0  0  0  0  0
   16.2156   25.6774   -4.3690 C   0  0  1  0  0  0  0  0  0  0  0  0
   11.8095   22.2676    1.5249 O   0  0  0  0  0  0  0  0  0  0  0  0
   16.4837   26.9057   -5.1842 O   0  0  0  0  0  0  0  0  0  0  0  0
   10.4968   23.5905    0.1833 C   0  0  2  0  0  0  0  0  0  0  0  0
   17.3325   25.1612   -3.9856 C   0  0  2  0  0  0  0  0  0  0  0  0
    9.6171   21.6251   -4.7345 N   0  0  0  0  0  0  0  0  0  0  0  0
   10.8350   21.7566   -4.1374 C   0  0  0  0  0  0  0  0  0  0  0  0
   10.9535   22.2714   -2.8715 N   0  0  0  0  0  0  0  0  0  0  0  0
    9.8245   22.6598   -2.2047 C   0  0  0  0  0  0  0  0  0  0  0  0
    8.6203   22.5433   -2.7817 C   0  0  0  0  0  0  0  0  0  0  0  0
    8.5079   22.0103   -4.0646 C   0  0  0  0  0  0  0  0  0  0  0  0
    7.3069   21.8350   -4.7800 N   0  0  0  0  0  0  0  0  0  0  0  0
    7.6967   22.9923   -1.9056 N   0  0  0  0  0  0  0  0  0  0  0  0
    8.3496   23.3959   -0.7787 C   0  0  0  0  0  0  0  0  0  0  0  0
    9.6591   23.1758   -0.9540 N   0  0  0  0  0  0  0  0  0  0  0  0
   19.8640   21.6482   -6.8788 N   0  0  0  0  0  0  0  0  0  0  0  0
   20.1015   22.9852   -6.8287 C   0  0  0  0  0  0  0  0  0  0  0  0
   19.3375   23.7762   -6.0175 N   0  0  0  0  0  0  0  0  0  0  0  0
   18.3489   23.2287   -5.2604 C   0  0  0  0  0  0  0  0  0  0  0  0
   18.1106   21.9022   -5.3016 C   0  0  0  0  0  0  0  0  0  0  0  0
   18.8908   21.1044   -6.1335 C   0  0  0  0  0  0  0  0  0  0  0  0
   18.8008   19.6827   -6.3474 N   0  0  0  0  0  0  0  0  0  0  0  0
   17.0815   21.6491   -4.4578 N   0  0  0  0  0  0  0  0  0  0  0  0
   16.6922   22.8278   -3.8930 C   0  0  0  0  0  0  0  0  0  0  0  0
   17.4838   23.7979   -4.3935 N   0  0  0  0  0  0  0  0  0  0  0  0
  1  3  1  1  0  0  0
  1  5  2  0  0  0  0
  1  9  1  0  0  0  0
  1 18  1  0  0  0  0
  2  4  1  6  0  0  0
  2  6  2  0  0  0  0
  2 10  1  0  0  0  0
  2 17  1  0  0  0  0
  7  9  1  0  0  0  0
  8 10  1  0  0  0  0
 11  7  1  6  0  0  0
 11 13  1  0  0  0  0
 11 15  1  0  0  0  0
 12  8  1  1  0  0  0
 12 14  1  0  0  0  0
 12 16  1  0  0  0  0
 13 23  1  0  0  0  0
 14 24  1  0  0  0  0
 15 17  1  1  0  0  0
 15 19  1  0  0  0  0
 16 18  1  6  0  0  0
 16 20  1  0  0  0  0
 19 21  1  1  0  0  0
 19 23  1  0  0  0  0
 20 22  1  6  0  0  0
 20 24  1  0  0  0  0
 23 34  1  6  0  0  0
 24 44  1  1  0  0  0
 25 26  2  0  0  0  0
 25 30  1  0  0  0  0
 26 27  1  0  0  0  0
 27 28  2  0  0  0  0
 28 29  1  0  0  0  0
 28 34  1  0  0  0  0
 29 30  2  0  0  0  0
 29 32  1  0  0  0  0
 30 31  1  0  0  0  0
 32 33  2  0  0  0  0
 33 34  1  0  0  0  0
 35 36  2  0  0  0  0
 35 40  1  0  0  0  0
 36 37  1  0  0  0  0
 37 38  2  0  0  0  0
 38 39  1  0  0  0  0
 38 44  1  0  0  0  0
 39 40  2  0  0  0  0
 39 42  1  0  0  0  0
 40 41  1  0  0  0  0
 42 43  2  0  0  0  0
 43 44  1  0  0  0  0
M  CHG  2   3  -1   4  -1
M  END
>  <CHROM.1>
91.72851917,-126.02654583,14.00373589,23.92164499,-2.57427349,-2.82964523
-0.26322469,-2.29257821

>  <Name>
ligand

>  <RI>
0

>  <Rbt.Current_Directory>
/home/itssahil/PROJECTS/Mol_Feturizer/New_Systems/rnas/4QLM

>  <Rbt.Executable>
rbdock ($Id: //depot/dev/client3/rdock/2013.1/src/exe/rbdock.cxx#4 $)

>  <Rbt.Library>
libRbt.so (2013.1, Build901 2013/11/27)

>  <Rbt.Parameter_File>
/export/apps/rDock/src/rDock_2013.1_src/data/scripts/dock_solv.prm

>  <Rbt.Receptor>
prm/blind_docking_60.prm

>  <SCORE>
16.5812

>  <SCORE.INTER>
10.049

>  <SCORE.INTER.CONST>
1

>  <SCORE.INTER.POLAR>
0

>  <SCORE.INTER.ROT>
2

>  <SCORE.INTER.SOLV>
51.1074

>  <SCORE.INTER.VDW>
-15.2698

>  <SCORE.INTER.norm>
0.228387

>  <SCORE.INTRA>
-0.469394

>  <SCORE.INTRA.DIHEDRAL>
-0.0294739

>  <SCORE.INTRA.DIHEDRAL.0>
2.32994

>  <SCORE.INTRA.POLAR>
0

>  <SCORE.INTRA.POLAR.0>
0

>  <SCORE.INTRA.REPUL>
0

>  <SCORE.INTRA.REPUL.0>
0

>  <SCORE.INTRA.SOLV>
0.00242004

>  <SCORE.INTRA.SOLV.lig_0>
-117.703

>  <SCORE.INTRA.VDW>
-0.455867

>  <SCORE.INTRA.VDW.0>
-1.59997

>  <SCORE.INTRA.norm>
-0.010668

>  <SCORE.RESTR>
7.00154

>  <SCORE.RESTR.CAVITY>
7.00154

>  <SCORE.RESTR.norm>
0.159126

>  <SCORE.SYSTEM>
0

>  <SCORE.SYSTEM.CONST>
0

>  <SCORE.SYSTEM.DIHEDRAL>
0

>  <SCORE.SYSTEM.SOLV>
0

>  <SCORE.SYSTEM.norm>
0

>  <SCORE.heavy>
44

>  <SCORE.norm>
0.376845

>  <RMSD>
26.704

$$$$
ligand
 OpenBabel11021811513D
libRbt.so/2013.1/901 2013/11/27
 44 50  0  0  0  0  0  0  0  0999 V2000
   13.3475   26.9654   -3.0512 P   0  0  2  0  0  0  0  0  0  0  0  0
   15.0873   22.9830    0.1612 P   0  0  1  0  0  0  0  0  0  0  0  0
   12.7228   28.2817   -2.5955 O   0  5  0  0  0  0  0  0  0  0  0  0
   14.6061   21.7140   -0.4993 O   0  5  0  0  0  0  0  0  0  0  0  0
   12.8130   26.7061   -4.4392 O   0  0  0  0  0  0  0  0  0  0  0  0
   16.1148   22.5788    1.2428 O   0  0  0  0  0  0  0  0  0  0  0  0
   12.6703   26.4203   -0.6667 C   0  0  0  0  0  0  0  0  0  0  0  0
   15.9989   25.2606   -0.6449 C   0  0  0  0  0  0  0  0  0  0  0  0
   12.8929   25.9126   -1.9893 O   0  0  0  0  0  0  0  0  0  0  0  0
   15.5959   23.9320   -1.0820 O   0  0  0  0  0  0  0  0  0  0  0  0
   12.1877   25.3020    0.2509 C   0  0  1  0  0  0  0  0  0  0  0  0
   16.5831   25.9838   -1.9166 C   0  0  1  0  0  0  0  0  0  0  0  0
   10.9030   25.1904    0.1112 O   0  0  0  0  0  0  0  0  0  0  0  0
   17.4388   25.1761   -2.3957 O   0  0  0  0  0  0  0  0  0  0  0  0
   12.7793   23.9537   -0.0904 C   0  0  1  0  0  0  0  0  0  0  0  0
   15.5296   26.0623   -3.0395 C   0  0  1  0  0  0  0  0  0  0  0  0
   13.7943   23.7407    0.7886 O   0  0  0  0  0  0  0  0  0  0  0  0
   14.9760   27.2794   -3.1051 O   0  0  0  0  0  0  0  0  0  0  0  0
   11.6019   22.9545    0.1846 C   0  0  1  0  0  0  0  0  0  0  0  0
   16.2507   25.7043   -4.3590 C   0  0  1  0  0  0  0  0  0  0  0  0
   11.8036   22.2747    1.4925 O   0  0  0  0  0  0  0  0  0  0  0  0
   16.5422   26.9429   -5.1503 O   0  0  0  0  0  0  0  0  0  0  0  0
   10.5137   23.6555    0.1875 C   0  0  2  0  0  0  0  0  0  0  0  0
   17.3577   25.1546   -3.9940 C   0  0  2  0  0  0  0  0  0  0  0  0
    8.5243   20.2924   -3.4939 N   0  0  0  0  0  0  0  0  0  0  0  0
    9.4285   19.9680   -2.5273 C   0  0  0  0  0  0  0  0  0  0  0  0
    9.8751   20.9040   -1.6296 N   0  0  0  0  0  0  0  0  0  0  0  0
    9.4014   22.1841   -1.7147 C   0  0  0  0  0  0  0  0  0  0  0  0
    8.5173   22.5200   -2.6644 C   0  0  0  0  0  0  0  0  0  0  0  0
    8.0614   21.5604   -3.5668 C   0  0  0  0  0  0  0  0  0  0  0  0
    7.1373   21.7828   -4.6067 N   0  0  0  0  0  0  0  0  0  0  0  0
    8.2233   23.8286   -2.5118 N   0  0  0  0  0  0  0  0  0  0  0  0
    8.9460   24.2999   -1.4559 C   0  0  0  0  0  0  0  0  0  0  0  0
    9.6594   23.2842   -0.9524 N   0  0  0  0  0  0  0  0  0  0  0  0
   19.8569   21.6248   -6.8949 N   0  0  0  0  0  0  0  0  0  0  0  0
   20.1388   22.9509   -6.8038 C   0  0  0  0  0  0  0  0  0  0  0  0
   19.3773   23.7488   -5.9970 N   0  0  0  0  0  0  0  0  0  0  0  0
   18.3467   23.2185   -5.2849 C   0  0  0  0  0  0  0  0  0  0  0  0
   18.0640   21.9026   -5.3669 C   0  0  0  0  0  0  0  0  0  0  0  0
   18.8423   21.0980   -6.1940 C   0  0  0  0  0  0  0  0  0  0  0  0
   18.7100   19.6859   -6.4463 N   0  0  0  0  0  0  0  0  0  0  0  0
   17.0005   21.6659   -4.5619 N   0  0  0  0  0  0  0  0  0  0  0  0
   16.6344   22.8437   -3.9801 C   0  0  0  0  0  0  0  0  0  0  0  0
   17.4747   23.7969   -4.4311 N   0  0  0  0  0  0  0  0  0  0  0  0
  1  3  1  1  0  0  0
  1  5  2  0  0  0  0
  1  9  1  0  0  0  0
  1 18  1  0  0  0  0
  2  4  1  6  0  0  0
  2  6  2  0  0  0  0
  2 10  1  0  0  0  0
  2 17  1  0  0  0  0
  7  9  1  0  0  0  0
  8 10  1  0  0  0  0
 11  7  1  6  0  0  0
 11 13  1  0  0  0  0
 11 15  1  0  0  0  0
 12  8  1  1  0  0  0
 12 14  1  0  0  0  0
 12 16  1  0  0  0  0
 13 23  1  0  0  0  0
 14 24  1  0  0  0  0
 15 17  1  1  0  0  0
 15 19  1  0  0  0  0
 16 18  1  6  0  0  0
 16 20  1  0  0  0  0
 19 21  1  1  0  0  0
 19 23  1  0  0  0  0
 20 22  1  1  0  0  0
 20 24  1  0  0  0  0
 23 34  1  6  0  0  0
 24 44  1  1  0  0  0
 25 26  2  0  0  0  0
 25 30  1  0  0  0  0
 26 27  1  0  0  0  0
 27 28  2  0  0  0  0
 28 29  1  0  0  0  0
 28 34  1  0  0  0  0
 29 30  2  0  0  0  0
 29 32  1  0  0  0  0
 30 31  1  0  0  0  0
 32 33  2  0  0  0  0
 33 34  1  0  0  0  0
 35 36  2  0  0  0  0
 35 40  1  0  0  0  0
 36 37  1  0  0  0  0
 37 38  2  0  0  0  0
 38 39  1  0  0  0  0
 38 44  1  0  0  0  0
 39 40  2  0  0  0  0
 39 42  1  0  0  0  0
 40 41  1  0  0  0  0
 42 43  2  0  0  0  0
 43 44  1  0  0  0  0
M  CHG  2   3  -1   4  -1
M  END
>  <CHROM.1>
150.03197509,-123.73948203,13.94865642,23.85552742,-2.49558318,-2.98126009
-0.36341200,-2.60588232

>  <Name>
ligand

>  <RI>
0

>  <Rbt.Current_Directory>
/home/itssahil/PROJECTS/Mol_Feturizer/New_Systems/rnas/4QLM

>  <Rbt.Executable>
rbdock ($Id: //depot/dev/client3/rdock/2013.1/src/exe/rbdock.cxx#4 $)

>  <Rbt.Library>
libRbt.so (2013.1, Build901 2013/11/27)

>  <Rbt.Parameter_File>
/export/apps/rDock/src/rDock_2013.1_src/data/scripts/dock_solv.prm

>  <Rbt.Receptor>
prm/blind_docking_60.prm

>  <SCORE>
11.9658

>  <SCORE.INTER>
4.59321

>  <SCORE.INTER.CONST>
1

>  <SCORE.INTER.POLAR>
0

>  <SCORE.INTER.ROT>
2

>  <SCORE.INTER.SOLV>
48.2446

>  <SCORE.INTER.VDW>
-17.9527

>  <SCORE.INTER.norm>
0.104391

>  <SCORE.INTRA>
0.349149

>  <SCORE.INTRA.DIHEDRAL>
0.176505

>  <SCORE.INTRA.DIHEDRAL.0>
2.32994

>  <SCORE.INTRA.POLAR>
0

>  <SCORE.INTRA.POLAR.0>
0

>  <SCORE.INTRA.REPUL>
0

>  <SCORE.INTRA.REPUL.0>
0

>  <SCORE.INTRA.SOLV>
0.00988494

>  <SCORE.INTRA.SOLV.lig_0>
-117.703

>  <SCORE.INTRA.VDW>
0.255954

>  <SCORE.INTRA.VDW.0>
-1.59997

>  <SCORE.INTRA.norm>
0.00793521

>  <SCORE.RESTR>
7.02342

>  <SCORE.RESTR.CAVITY>
7.02342

>  <SCORE.RESTR.norm>
0.159623

>  <SCORE.SYSTEM>
0

>  <SCORE.SYSTEM.CONST>
0

>  <SCORE.SYSTEM.DIHEDRAL>
0

>  <SCORE.SYSTEM.SOLV>
0

>  <SCORE.SYSTEM.norm>
0

>  <SCORE.heavy>
44

>  <SCORE.norm>
0.271949

>  <RMSD>
26.706

$$$$
ligand
 OpenBabel11021811513D
libRbt.so/2013.1/901 2013/11/27
 44 50  0  0  0  0  0  0  0  0999 V2000
   15.2151   23.5401    0.4128 P   0  0  2  0  0  0  0  0  0  0  0  0
   13.0332   27.1723   -2.9416 P   0  0  1  0  0  0  0  0  0  0  0  0
   16.2954   23.8132    1.4562 O   0  5  0  0  0  0  0  0  0  0  0  0
   12.9521   26.4691   -4.2747 O   0  5  0  0  0  0  0  0  0  0  0  0
   15.3451   22.0810    0.0470 O   0  0  0  0  0  0  0  0  0  0  0  0
   12.1774   28.4553   -3.0443 O   0  0  0  0  0  0  0  0  0  0  0  0
   16.1675   25.7503   -0.3928 C   0  0  0  0  0  0  0  0  0  0  0  0
   12.7233   26.4965   -0.4686 C   0  0  0  0  0  0  0  0  0  0  0  0
   15.5314   24.5197   -0.7632 O   0  0  0  0  0  0  0  0  0  0  0  0
   12.5974   26.0299   -1.8416 O   0  0  0  0  0  0  0  0  0  0  0  0
   16.4598   26.5852   -1.6350 C   0  0  1  0  0  0  0  0  0  0  0  0
   12.1417   25.3494    0.4410 C   0  0  1  0  0  0  0  0  0  0  0  0
   17.5894   26.1873   -2.1330 O   0  0  0  0  0  0  0  0  0  0  0  0
   10.9991   25.0841   -0.0469 O   0  0  0  0  0  0  0  0  0  0  0  0
   15.4239   26.4181   -2.7229 C   0  0  1  0  0  0  0  0  0  0  0  0
   12.9126   24.0314    0.2274 C   0  0  1  0  0  0  0  0  0  0  0  0
   14.5970   27.4941   -2.6410 O   0  0  0  0  0  0  0  0  0  0  0  0
   13.7887   23.8128    1.2157 O   0  0  0  0  0  0  0  0  0  0  0  0
   16.2655   26.4773   -4.0451 C   0  0  1  0  0  0  0  0  0  0  0  0
   11.8604   22.9016    0.1531 C   0  0  1  0  0  0  0  0  0  0  0  0
   16.1383   27.8205   -4.6721 O   0  0  0  0  0  0  0  0  0  0  0  0
   11.8087   22.1468    1.4465 O   0  0  0  0  0  0  0  0  0  0  0  0
   17.4930   26.2326   -3.7148 C   0  0  2  0  0  0  0  0  0  0  0  0
   10.7381   23.5050   -0.0399 C   0  0  2  0  0  0  0  0  0  0  0  0
   16.8037   21.2257   -5.5251 N   0  0  0  0  0  0  0  0  0  0  0  0
   15.8192   22.0451   -5.0597 C   0  0  0  0  0  0  0  0  0  0  0  0
   16.0999   23.3133   -4.6190 N   0  0  0  0  0  0  0  0  0  0  0  0
   17.3940   23.7547   -4.6481 C   0  0  0  0  0  0  0  0  0  0  0  0
   18.3741   22.9579   -5.0963 C   0  0  0  0  0  0  0  0  0  0  0  0
   18.0788   21.6739   -5.5512 C   0  0  0  0  0  0  0  0  0  0  0  0
   19.0124   20.7414   -6.0451 N   0  0  0  0  0  0  0  0  0  0  0  0
   19.5338   23.6442   -5.0177 N   0  0  0  0  0  0  0  0  0  0  0  0
   19.2569   24.8774   -4.5062 C   0  0  0  0  0  0  0  0  0  0  0  0
   17.9365   24.9539   -4.2939 N   0  0  0  0  0  0  0  0  0  0  0  0
   11.2609   21.7570   -4.9175 N   0  0  0  0  0  0  0  0  0  0  0  0
   12.2564   21.9687   -4.0172 C   0  0  0  0  0  0  0  0  0  0  0  0
   11.9508   22.4405   -2.7717 N   0  0  0  0  0  0  0  0  0  0  0  0
   10.6576   22.6916   -2.4325 C   0  0  0  0  0  0  0  0  0  0  0  0
    9.6641   22.4796   -3.3192 C   0  0  0  0  0  0  0  0  0  0  0  0
    9.9848   22.0027   -4.5868 C   0  0  0  0  0  0  0  0  0  0  0  0
    9.0968   21.7252   -5.6867 N   0  0  0  0  0  0  0  0  0  0  0  0
    8.5007   22.8150   -2.7118 N   0  0  0  0  0  0  0  0  0  0  0  0
    8.7845   23.2295   -1.4439 C   0  0  0  0  0  0  0  0  0  0  0  0
   10.1203   23.1466   -1.2800 N   0  0  0  0  0  0  0  0  0  0  0  0
  1  3  1  1  0  0  0
  1  5  2  0  0  0  0
  1  9  1  0  0  0  0
  1 18  1  0  0  0  0
  2  4  1  6  0  0  0
  2  6  2  0  0  0  0
  2 10  1  0  0  0  0
  2 17  1  0  0  0  0
  7  9  1  0  0  0  0
  8 10  1  0  0  0  0
 11  7  1  1  0  0  0
 11 13  1  0  0  0  0
 11 15  1  0  0  0  0
 12  8  1  6  0  0  0
 12 14  1  0  0  0  0
 12 16  1  0  0  0  0
 13 23  1  0  0  0  0
 14 24  1  0  0  0  0
 15 17  1  6  0  0  0
 15 19  1  0  0  0  0
 16 18  1  1  0  0  0
 16 20  1  0  0  0  0
 19 21  1  1  0  0  0
 19 23  1  0  0  0  0
 20 22  1  1  0  0  0
 20 24  1  0  0  0  0
 23 34  1  6  0  0  0
 24 44  1  6  0  0  0
 25 26  2  0  0  0  0
 25 30  1  0  0  0  0
 26 27  1  0  0  0  0
 27 28  2  0  0  0  0
 28 29  1  0  0  0  0
 28 34  1  0  0  0  0
 29 30  2  0  0  0  0
 29 32  1  0  0  0  0
 30 31  1  0  0  0  0
 32 33  2  0  0  0  0
 33 34  1  0  0  0  0
 35 36  2  0  0  0  0
 35 40  1  0  0  0  0
 36 37  1  0  0  0  0
 37 38  2  0  0  0  0
 38 39  1  0  0  0  0
 38 44  1  0  0  0  0
 39 40  2  0  0  0  0
 39 42  1  0  0  0  0
 40 41  1  0  0  0  0
 42 43  2  0  0  0  0
 43 44  1  0  0  0  0
M  CHG  2   3  -1   4  -1
M  END
>  <CHROM.1>
89.77138854,94.71764154,14.11424754,24.27000179,-2.43042211,-2.93054318,-0.31375104
-2.25881456

>  <Name>
ligand

>  <RI>
0

>  <Rbt.Current_Directory>
/home/itssahil/PROJECTS/Mol_Feturizer/New_Systems/rnas/4QLM

>  <Rbt.Executable>
rbdock ($Id: //depot/dev/client3/rdock/2013.1/src/exe/rbdock.cxx#4 $)

>  <Rbt.Library>
libRbt.so (2013.1, Build901 2013/11/27)

>  <Rbt.Parameter_File>
/export/apps/rDock/src/rDock_2013.1_src/data/scripts/dock_solv.prm

>  <Rbt.Receptor>
prm/blind_docking_100.prm

>  <SCORE>
51.9211

>  <SCORE.INTER>
34.2388

>  <SCORE.INTER.CONST>
1

>  <SCORE.INTER.POLAR>
0

>  <SCORE.INTER.ROT>
2

>  <SCORE.INTER.SOLV>
52.9073

>  <SCORE.INTER.VDW>
0.256785

>  <SCORE.INTER.norm>
0.778155

>  <SCORE.INTRA>
-0.875856

>  <SCORE.INTRA.DIHEDRAL>
-0.0237328

>  <SCORE.INTRA.DIHEDRAL.0>
2.32994

>  <SCORE.INTRA.POLAR>
0

>  <SCORE.INTRA.POLAR.0>
0

>  <SCORE.INTRA.REPUL>
0

>  <SCORE.INTRA.REPUL.0>
0

>  <SCORE.INTRA.SOLV>
0.0255548

>  <SCORE.INTRA.SOLV.lig_0>
-117.703

>  <SCORE.INTRA.VDW>
-0.876767

>  <SCORE.INTRA.VDW.0>
-1.59997

>  <SCORE.INTRA.norm>
-0.0199058

>  <SCORE.RESTR>
18.5581

>  <SCORE.RESTR.CAVITY>
18.5581

>  <SCORE.RESTR.norm>
0.421775

>  <SCORE.SYSTEM>
0

>  <SCORE.SYSTEM.CONST>
0

>  <SCORE.SYSTEM.DIHEDRAL>
0

>  <SCORE.SYSTEM.SOLV>
0

>  <SCORE.SYSTEM.norm>
0

>  <SCORE.heavy>
44

>  <SCORE.norm>
1.18002

>  <RMSD>
26.727

$$$$
ligand
 OpenBabel11021811513D
libRbt.so/2013.1/901 2013/11/27
 44 50  0  0  0  0  0  0  0  0999 V2000
   15.0105   23.2892    0.6771 P   0  0  2  0  0  0  0  0  0  0  0  0
   13.2961   27.4323   -2.3398 P   0  0  1  0  0  0  0  0  0  0  0  0
   16.1280   23.3339    1.7161 O   0  5  0  0  0  0  0  0  0  0  0  0
   13.1089   26.8543   -3.7214 O   0  5  0  0  0  0  0  0  0  0  0  0
   14.9418   21.8595    0.1966 O   0  0  0  0  0  0  0  0  0  0  0  0
   12.6174   28.8208   -2.3250 O   0  0  0  0  0  0  0  0  0  0  0  0
   16.2397   25.4120    0.0259 C   0  0  0  0  0  0  0  0  0  0  0  0
   12.9245   26.6084    0.0792 C   0  0  0  0  0  0  0  0  0  0  0  0
   15.4421   24.3091   -0.4257 O   0  0  0  0  0  0  0  0  0  0  0  0
   12.7237   26.2733   -1.3230 O   0  0  0  0  0  0  0  0  0  0  0  0
   16.6275   26.2974   -1.1536 C   0  0  1  0  0  0  0  0  0  0  0  0
   12.2050   25.4791    0.9089 C   0  0  1  0  0  0  0  0  0  0  0  0
   17.6893   25.7953   -1.7041 O   0  0  0  0  0  0  0  0  0  0  0  0
   11.0324   25.4061    0.4255 O   0  0  0  0  0  0  0  0  0  0  0  0
   15.5677   26.3552   -2.2296 C   0  0  1  0  0  0  0  0  0  0  0  0
   12.7918   24.0923    0.5779 C   0  0  1  0  0  0  0  0  0  0  0  0
   14.8919   27.5207   -2.0474 O   0  0  0  0  0  0  0  0  0  0  0  0
   13.6411   23.6824    1.5279 O   0  0  0  0  0  0  0  0  0  0  0  0
   16.3962   26.4082   -3.5603 C   0  0  1  0  0  0  0  0  0  0  0  0
   11.5982   23.1203    0.4378 C   0  0  1  0  0  0  0  0  0  0  0  0
   16.4421   27.8020   -4.0785 O   0  0  0  0  0  0  0  0  0  0  0  0
   11.4599   22.2783    1.6696 O   0  0  0  0  0  0  0  0  0  0  0  0
   17.5837   25.9786   -3.2753 C   0  0  2  0  0  0  0  0  0  0  0  0
   10.5640   23.8796    0.3154 C   0  0  2  0  0  0  0  0  0  0  0  0
   16.2155   21.2723   -5.4662 N   0  0  0  0  0  0  0  0  0  0  0  0
   15.3530   22.1761   -4.9219 C   0  0  0  0  0  0  0  0  0  0  0  0
   15.8046   23.3555   -4.3864 N   0  0  0  0  0  0  0  0  0  0  0  0
   17.1463   23.6199   -4.4006 C   0  0  0  0  0  0  0  0  0  0  0  0
   18.0075   22.7375   -4.9258 C   0  0  0  0  0  0  0  0  0  0  0  0
   17.5393   21.5457   -5.4765 C   0  0  0  0  0  0  0  0  0  0  0  0
   18.3360   20.5392   -6.0573 N   0  0  0  0  0  0  0  0  0  0  0  0
   19.2497   23.2532   -4.8111 N   0  0  0  0  0  0  0  0  0  0  0  0
   19.1444   24.4671   -4.1991 C   0  0  0  0  0  0  0  0  0  0  0  0
   17.8476   24.7029   -3.9609 N   0  0  0  0  0  0  0  0  0  0  0  0
    8.8511   20.6475   -3.3913 N   0  0  0  0  0  0  0  0  0  0  0  0
    9.5248   20.3068   -2.2615 C   0  0  0  0  0  0  0  0  0  0  0  0
    9.9130   21.2826   -1.3872 N   0  0  0  0  0  0  0  0  0  0  0  0
    9.6224   22.5867   -1.6428 C   0  0  0  0  0  0  0  0  0  0  0  0
    8.9502   22.9317   -2.7596 C   0  0  0  0  0  0  0  0  0  0  0  0
    8.5621   21.9318   -3.6466 C   0  0  0  0  0  0  0  0  0  0  0  0
    7.8597   22.0713   -4.8965 N   0  0  0  0  0  0  0  0  0  0  0  0
    8.8096   24.2790   -2.7478 N   0  0  0  0  0  0  0  0  0  0  0  0
    9.3947   24.7598   -1.6137 C   0  0  0  0  0  0  0  0  0  0  0  0
    9.8916   23.7054   -0.9358 N   0  0  0  0  0  0  0  0  0  0  0  0
  1  3  1  1  0  0  0
  1  5  2  0  0  0  0
  1  9  1  0  0  0  0
  1 18  1  0  0  0  0
  2  4  1  6  0  0  0
  2  6  2  0  0  0  0
  2 10  1  0  0  0  0
  2 17  1  0  0  0  0
  7  9  1  0  0  0  0
  8 10  1  0  0  0  0
 11  7  1  1  0  0  0
 11 13  1  0  0  0  0
 11 15  1  0  0  0  0
 12  8  1  6  0  0  0
 12 14  1  0  0  0  0
 12 16  1  0  0  0  0
 13 23  1  0  0  0  0
 14 24  1  0  0  0  0
 15 17  1  1  0  0  0
 15 19  1  0  0  0  0
 16 18  1  1  0  0  0
 16 20  1  0  0  0  0
 19 21  1  1  0  0  0
 19 23  1  0  0  0  0
 20 22  1  1  0  0  0
 20 24  1  0  0  0  0
 23 34  1  6  0  0  0
 24 44  1  6  0  0  0
 25 26  2  0  0  0  0
 25 30  1  0  0  0  0
 26 27  1  0  0  0  0
 27 28  2  0  0  0  0
 28 29  1  0  0  0  0
 28 34  1  0  0  0  0
 29 30  2  0  0  0  0
 29 32  1  0  0  0  0
 30 31  1  0  0  0  0
 32 33  2  0  0  0  0
 33 34  1  0  0  0  0
 35 36  2  0  0  0  0
 35 40  1  0  0  0  0
 36 37  1  0  0  0  0
 37 38  2  0  0  0  0
 38 39  1  0  0  0  0
 38 44  1  0  0  0  0
 39 40  2  0  0  0  0
 39 42  1  0  0  0  0
 40 41  1  0  0  0  0
 42 43  2  0  0  0  0
 43 44  1  0  0  0  0
M  CHG  2   3  -1   4  -1
M  END
>  <CHROM.1>
90.11509678,160.81689922,13.83723957,24.24261708,-1.97845251,-0.06722101
0.32750304,0.71639191

>  <Name>
ligand

>  <RI>
0

>  <Rbt.Current_Directory>
/home/itssahil/PROJECTS/Mol_Feturizer/New_Systems/rnas/4QLM

>  <Rbt.Executable>
rbdock ($Id: //depot/dev/client3/rdock/2013.1/src/exe/rbdock.cxx#4 $)

>  <Rbt.Library>
libRbt.so (2013.1, Build901 2013/11/27)

>  <Rbt.Parameter_File>
/export/apps/rDock/src/rDock_2013.1_src/data/scripts/dock_solv.prm

>  <Rbt.Receptor>
prm/blind_docking_60.prm

>  <SCORE>
21.9618

>  <SCORE.INTER>
15.6643

>  <SCORE.INTER.CONST>
1

>  <SCORE.INTER.POLAR>
0

>  <SCORE.INTER.ROT>
2

>  <SCORE.INTER.SOLV>
44.9681

>  <SCORE.INTER.VDW>
-9.47986

>  <SCORE.INTER.norm>
0.356006

>  <SCORE.INTRA>
-0.101021

>  <SCORE.INTRA.DIHEDRAL>
-0.0433562

>  <SCORE.INTRA.DIHEDRAL.0>
2.32994

>  <SCORE.INTRA.POLAR>
0

>  <SCORE.INTRA.POLAR.0>
0

>  <SCORE.INTRA.REPUL>
0

>  <SCORE.INTRA.REPUL.0>
0

>  <SCORE.INTRA.SOLV>
0.0719183

>  <SCORE.INTRA.SOLV.lig_0>
-117.703

>  <SCORE.INTRA.VDW>
-0.115302

>  <SCORE.INTRA.VDW.0>
-1.59997

>  <SCORE.INTRA.norm>
-0.00229594

>  <SCORE.RESTR>
6.39855

>  <SCORE.RESTR.CAVITY>
6.39855

>  <SCORE.RESTR.norm>
0.145422

>  <SCORE.SYSTEM>
0

>  <SCORE.SYSTEM.CONST>
0

>  <SCORE.SYSTEM.DIHEDRAL>
0

>  <SCORE.SYSTEM.SOLV>
0

>  <SCORE.SYSTEM.norm>
0

>  <SCORE.heavy>
44

>  <SCORE.norm>
0.499132

>  <RMSD>
26.730

$$$$
ligand
 OpenBabel11021811513D
libRbt.so/2013.1/901 2013/11/27
 44 50  0  0  0  0  0  0  0  0999 V2000
   15.0138   23.2784    0.6801 P   0  0  2  0  0  0  0  0  0  0  0  0
   13.2745   27.4352   -2.3034 P   0  0  1  0  0  0  0  0  0  0  0  0
   16.1314   23.3214    1.7192 O   0  5  0  0  0  0  0  0  0  0  0  0
   13.0903   26.8671   -3.6895 O   0  5  0  0  0  0  0  0  0  0  0  0
   14.9533   21.8522    0.1883 O   0  0  0  0  0  0  0  0  0  0  0  0
   12.5877   28.8196   -2.2775 O   0  0  0  0  0  0  0  0  0  0  0  0
   16.2305   25.4134    0.0454 C   0  0  0  0  0  0  0  0  0  0  0  0
   12.9083   26.5901    0.1091 C   0  0  0  0  0  0  0  0  0  0  0  0
   15.4391   24.3095   -0.4146 O   0  0  0  0  0  0  0  0  0  0  0  0
   12.7092   26.2649   -1.2957 O   0  0  0  0  0  0  0  0  0  0  0  0
   16.6128   26.3104   -1.1271 C   0  0  1  0  0  0  0  0  0  0  0  0
   12.1957   25.4500    0.9300 C   0  0  1  0  0  0  0  0  0  0  0  0
   17.6773   25.8188   -1.6817 O   0  0  0  0  0  0  0  0  0  0  0  0
   11.0234   25.3740    0.4463 O   0  0  0  0  0  0  0  0  0  0  0  0
   15.5523   26.3705   -2.2023 C   0  0  1  0  0  0  0  0  0  0  0  0
   12.7905   24.0694    0.5878 C   0  0  1  0  0  0  0  0  0  0  0  0
   14.8698   27.5305   -2.0108 O   0  0  0  0  0  0  0  0  0  0  0  0
   13.6425   23.6569    1.5344 O   0  0  0  0  0  0  0  0  0  0  0  0
   16.3802   26.4389   -3.5327 C   0  0  1  0  0  0  0  0  0  0  0  0
   11.6025   23.0915    0.4404 C   0  0  1  0  0  0  0  0  0  0  0  0
   16.4177   27.8370   -4.0399 O   0  0  0  0  0  0  0  0  0  0  0  0
   11.4695   22.2391    1.6655 O   0  0  0  0  0  0  0  0  0  0  0  0
   17.5701   26.0139   -3.2515 C   0  0  2  0  0  0  0  0  0  0  0  0
   10.5639   23.8457    0.3243 C   0  0  2  0  0  0  0  0  0  0  0  0
   16.2324   21.3049   -5.4553 N   0  0  0  0  0  0  0  0  0  0  0  0
   15.3655   22.1958   -4.8968 C   0  0  0  0  0  0  0  0  0  0  0  0
   15.8093   23.3771   -4.3592 N   0  0  0  0  0  0  0  0  0  0  0  0
   17.1477   23.6569   -4.3858 C   0  0  0  0  0  0  0  0  0  0  0  0
   18.0133   22.7873   -4.9252 C   0  0  0  0  0  0  0  0  0  0  0  0
   17.5529   21.5935   -5.4778 C   0  0  0  0  0  0  0  0  0  0  0  0
   18.3548   20.5995   -6.0728 N   0  0  0  0  0  0  0  0  0  0  0  0
   19.2508   23.3166   -4.8205 N   0  0  0  0  0  0  0  0  0  0  0  0
   19.1381   24.5257   -4.2003 C   0  0  0  0  0  0  0  0  0  0  0  0
   17.8413   24.7452   -3.9472 N   0  0  0  0  0  0  0  0  0  0  0  0
    8.8678   20.6330   -3.4070 N   0  0  0  0  0  0  0  0  0  0  0  0
    9.5436   20.2873   -2.2799 C   0  0  0  0  0  0  0  0  0  0  0  0
    9.9267   21.2585   -1.3982 N   0  0  0  0  0  0  0  0  0  0  0  0
    9.6289   22.5629   -1.6437 C   0  0  0  0  0  0  0  0  0  0  0  0
    8.9546   22.9128   -2.7577 C   0  0  0  0  0  0  0  0  0  0  0  0
    8.5716   21.9177   -3.6523 C   0  0  0  0  0  0  0  0  0  0  0  0
    7.8682   22.0630   -4.9010 N   0  0  0  0  0  0  0  0  0  0  0  0
    8.8066   24.2592   -2.7354 N   0  0  0  0  0  0  0  0  0  0  0  0
    9.3894   24.7344   -1.5977 C   0  0  0  0  0  0  0  0  0  0  0  0
    9.8922   23.6776   -0.9281 N   0  0  0  0  0  0  0  0  0  0  0  0
  1  3  1  1  0  0  0
  1  5  2  0  0  0  0
  1  9  1  0  0  0  0
  1 18  1  0  0  0  0
  2  4  1  6  0  0  0
  2  6  2  0  0  0  0
  2 10  1  0  0  0  0
  2 17  1  0  0  0  0
  7  9  1  0  0  0  0
  8 10  1  0  0  0  0
 11  7  1  1  0  0  0
 11 13  1  0  0  0  0
 11 15  1  0  0  0  0
 12  8  1  6  0  0  0
 12 14  1  0  0  0  0
 12 16  1  0  0  0  0
 13 23  1  0  0  0  0
 14 24  1  0  0  0  0
 15 17  1  1  0  0  0
 15 19  1  0  0  0  0
 16 18  1  1  0  0  0
 16 20  1  0  0  0  0
 19 21  1  1  0  0  0
 19 23  1  0  0  0  0
 20 22  1  1  0  0  0
 20 24  1  0  0  0  0
 23 34  1  6  0  0  0
 24 44  1  6  0  0  0
 25 26  2  0  0  0  0
 25 30  1  0  0  0  0
 26 27  1  0  0  0  0
 27 28  2  0  0  0  0
 28 29  1  0  0  0  0
 28 34  1  0  0  0  0
 29 30  2  0  0  0  0
 29 32  1  0  0  0  0
 30 31  1  0  0  0  0
 32 33  2  0  0  0  0
 33 34  1  0  0  0  0
 35 36  2  0  0  0  0
 35 40  1  0  0  0  0
 36 37  1  0  0  0  0
 37 38  2  0  0  0  0
 38 39  1  0  0  0  0
 38 44  1  0  0  0  0
 39 40  2  0  0  0  0
 39 42  1  0  0  0  0
 40 41  1  0  0  0  0
 42 43  2  0  0  0  0
 43 44  1  0  0  0  0
M  CHG  2   3  -1   4  -1
M  END
>  <CHROM.1>
89.43727685,160.84023670,13.83450849,24.24515080,-1.96581254,-0.06107181
0.33131354,0.71887516

>  <Name>
ligand

>  <RI>
0

>  <Rbt.Current_Directory>
/home/itssahil/PROJECTS/Mol_Feturizer/New_Systems/rnas/4QLM

>  <Rbt.Executable>
rbdock ($Id: //depot/dev/client3/rdock/2013.1/src/exe/rbdock.cxx#4 $)

>  <Rbt.Library>
libRbt.so (2013.1, Build901 2013/11/27)

>  <Rbt.Parameter_File>
/export/apps/rDock/src/rDock_2013.1_src/data/scripts/dock_solv.prm

>  <Rbt.Receptor>
prm/blind_docking_60.prm

>  <SCORE>
21.5651

>  <SCORE.INTER>
15.1706

>  <SCORE.INTER.CONST>
1

>  <SCORE.INTER.POLAR>
0

>  <SCORE.INTER.ROT>
2

>  <SCORE.INTER.SOLV>
44.601

>  <SCORE.INTER.VDW>
-9.68661

>  <SCORE.INTER.norm>
0.344785

>  <SCORE.INTRA>
-0.108162

>  <SCORE.INTRA.DIHEDRAL>
-0.0436296

>  <SCORE.INTRA.DIHEDRAL.0>
2.32994

>  <SCORE.INTRA.POLAR>
0

>  <SCORE.INTRA.POLAR.0>
0

>  <SCORE.INTRA.REPUL>
0

>  <SCORE.INTRA.REPUL.0>
0

>  <SCORE.INTRA.SOLV>
0.0717914

>  <SCORE.INTRA.SOLV.lig_0>
-117.703

>  <SCORE.INTRA.VDW>
-0.122243

>  <SCORE.INTRA.VDW.0>
-1.59997

>  <SCORE.INTRA.norm>
-0.00245823

>  <SCORE.RESTR>
6.50275

>  <SCORE.RESTR.CAVITY>
6.50275

>  <SCORE.RESTR.norm>
0.14779

>  <SCORE.SYSTEM>
0

>  <SCORE.SYSTEM.CONST>
0

>  <SCORE.SYSTEM.DIHEDRAL>
0

>  <SCORE.SYSTEM.SOLV>
0

>  <SCORE.SYSTEM.norm>
0

>  <SCORE.heavy>
44

>  <SCORE.norm>
0.490117

>  <RMSD>
26.732

$$$$
ligand
 OpenBabel11021811513D
libRbt.so/2013.1/901 2013/11/27
 44 50  0  0  0  0  0  0  0  0999 V2000
   15.0155   23.2785    0.6912 P   0  0  2  0  0  0  0  0  0  0  0  0
   13.2775   27.4327   -2.2967 P   0  0  1  0  0  0  0  0  0  0  0  0
   16.1332   23.3222    1.7301 O   0  5  0  0  0  0  0  0  0  0  0  0
   13.0928   26.8631   -3.6822 O   0  5  0  0  0  0  0  0  0  0  0  0
   14.9544   21.8518    0.2010 O   0  0  0  0  0  0  0  0  0  0  0  0
   12.5912   28.8174   -2.2722 O   0  0  0  0  0  0  0  0  0  0  0  0
   16.2329   25.4123    0.0540 C   0  0  0  0  0  0  0  0  0  0  0  0
   12.9113   26.5904    0.1167 C   0  0  0  0  0  0  0  0  0  0  0  0
   15.4411   24.3083   -0.4047 O   0  0  0  0  0  0  0  0  0  0  0  0
   12.7118   26.2637   -1.2876 O   0  0  0  0  0  0  0  0  0  0  0  0
   16.6155   26.3079   -1.1195 C   0  0  1  0  0  0  0  0  0  0  0  0
   12.1983   25.4515    0.9390 C   0  0  1  0  0  0  0  0  0  0  0  0
   17.6797   25.8153   -1.6738 O   0  0  0  0  0  0  0  0  0  0  0  0
   11.0259   25.3754    0.4555 O   0  0  0  0  0  0  0  0  0  0  0  0
   15.5549   26.3672   -2.1947 C   0  0  1  0  0  0  0  0  0  0  0  0
   12.7925   24.0703    0.5983 C   0  0  1  0  0  0  0  0  0  0  0  0
   14.8728   27.5277   -2.0044 O   0  0  0  0  0  0  0  0  0  0  0  0
   13.6444   23.6585    1.5452 O   0  0  0  0  0  0  0  0  0  0  0  0
   16.3826   26.4338   -3.5253 C   0  0  1  0  0  0  0  0  0  0  0  0
   11.6042   23.0927    0.4521 C   0  0  1  0  0  0  0  0  0  0  0  0
   16.4206   27.8314   -4.0340 O   0  0  0  0  0  0  0  0  0  0  0  0
   11.4709   22.2416    1.6781 O   0  0  0  0  0  0  0  0  0  0  0  0
   17.5724   26.0087   -3.2437 C   0  0  2  0  0  0  0  0  0  0  0  0
   10.5658   23.8472    0.3352 C   0  0  2  0  0  0  0  0  0  0  0  0
   16.2309   21.3036   -5.4535 N   0  0  0  0  0  0  0  0  0  0  0  0
   15.3640   22.1971   -4.8992 C   0  0  0  0  0  0  0  0  0  0  0  0
   15.8089   23.3771   -4.3595 N   0  0  0  0  0  0  0  0  0  0  0  0
   17.1482   23.6529   -4.3799 C   0  0  0  0  0  0  0  0  0  0  0  0
   18.0138   22.7807   -4.9151 C   0  0  0  0  0  0  0  0  0  0  0  0
   17.5523   21.5882   -5.4699 C   0  0  0  0  0  0  0  0  0  0  0  0
   18.3540   20.5917   -6.0610 N   0  0  0  0  0  0  0  0  0  0  0  0
   19.2523   23.3061   -4.8046 N   0  0  0  0  0  0  0  0  0  0  0  0
   19.1404   24.5156   -4.1850 C   0  0  0  0  0  0  0  0  0  0  0  0
   17.8430   24.7392   -3.9381 N   0  0  0  0  0  0  0  0  0  0  0  0
    8.8648   20.6306   -3.3905 N   0  0  0  0  0  0  0  0  0  0  0  0
    9.5400   20.2859   -2.2628 C   0  0  0  0  0  0  0  0  0  0  0  0
    9.9246   21.2579   -1.3828 N   0  0  0  0  0  0  0  0  0  0  0  0
    9.6288   22.5624   -1.6305 C   0  0  0  0  0  0  0  0  0  0  0  0
    8.9551   22.9114   -2.7451 C   0  0  0  0  0  0  0  0  0  0  0  0
    8.5707   21.9154   -3.6381 C   0  0  0  0  0  0  0  0  0  0  0  0
    7.8675   22.0596   -4.8870 N   0  0  0  0  0  0  0  0  0  0  0  0
    8.8092   24.2580   -2.7252 N   0  0  0  0  0  0  0  0  0  0  0  0
    9.3927   24.7344   -1.5884 C   0  0  0  0  0  0  0  0  0  0  0  0
    9.8938   23.6779   -0.9169 N   0  0  0  0  0  0  0  0  0  0  0  0
  1  3  1  1  0  0  0
  1  5  2  0  0  0  0
  1  9  1  0  0  0  0
  1 18  1  0  0  0  0
  2  4  1  6  0  0  0
  2  6  2  0  0  0  0
  2 10  1  0  0  0  0
  2 17  1  0  0  0  0
  7  9  1  0  0  0  0
  8 10  1  0  0  0  0
 11  7  1  1  0  0  0
 11 13  1  0  0  0  0
 11 15  1  0  0  0  0
 12  8  1  6  0  0  0
 12 14  1  0  0  0  0
 12 16  1  0  0  0  0
 13 23  1  0  0  0  0
 14 24  1  0  0  0  0
 15 17  1  1  0  0  0
 15 19  1  0  0  0  0
 16 18  1  1  0  0  0
 16 20  1  0  0  0  0
 19 21  1  1  0  0  0
 19 23  1  0  0  0  0
 20 22  1  1  0  0  0
 20 24  1  0  0  0  0
 23 34  1  6  0  0  0
 24 44  1  6  0  0  0
 25 26  2  0  0  0  0
 25 30  1  0  0  0  0
 26 27  1  0  0  0  0
 27 28  2  0  0  0  0
 28 29  1  0  0  0  0
 28 34  1  0  0  0  0
 29 30  2  0  0  0  0
 29 32  1  0  0  0  0
 30 31  1  0  0  0  0
 32 33  2  0  0  0  0
 33 34  1  0  0  0  0
 35 36  2  0  0  0  0
 35 40  1  0  0  0  0
 36 37  1  0  0  0  0
 37 38  2  0  0  0  0
 38 39  1  0  0  0  0
 38 44  1  0  0  0  0
 39 40  2  0  0  0  0
 39 42  1  0  0  0  0
 40 41  1  0  0  0  0
 42 43  2  0  0  0  0
 43 44  1  0  0  0  0
M  CHG  2   3  -1   4  -1
M  END
>  <CHROM.1>
89.75944130,160.91755301,13.83588294,24.24316020,-1.95628705,-0.06208872
0.33129343,0.71972174

>  <Name>
ligand

>  <RI>
0

>  <Rbt.Current_Directory>
/home/itssahil/PROJECTS/Mol_Feturizer/New_Systems/rnas/4QLM

>  <Rbt.Executable>
rbdock ($Id: //depot/dev/client3/rdock/2013.1/src/exe/rbdock.cxx#4 $)

>  <Rbt.Library>
libRbt.so (2013.1, Build901 2013/11/27)

>  <Rbt.Parameter_File>
/export/apps/rDock/src/rDock_2013.1_src/data/scripts/dock_solv.prm

>  <Rbt.Receptor>
prm/blind_docking_60.prm

>  <SCORE>
21.4486

>  <SCORE.INTER>
15.0232

>  <SCORE.INTER.CONST>
1

>  <SCORE.INTER.POLAR>
0

>  <SCORE.INTER.ROT>
2

>  <SCORE.INTER.SOLV>
44.5921

>  <SCORE.INTER.VDW>
-9.78186

>  <SCORE.INTER.norm>
0.341437

>  <SCORE.INTRA>
-0.105485

>  <SCORE.INTRA.DIHEDRAL>
-0.0434893

>  <SCORE.INTRA.DIHEDRAL.0>
2.32994

>  <SCORE.INTRA.POLAR>
0

>  <SCORE.INTRA.POLAR.0>
0

>  <SCORE.INTRA.REPUL>
0

>  <SCORE.INTRA.REPUL.0>
0

>  <SCORE.INTRA.SOLV>
0.0718138

>  <SCORE.INTRA.SOLV.lig_0>
-117.703

>  <SCORE.INTRA.VDW>
-0.119647

>  <SCORE.INTRA.VDW.0>
-1.59997

>  <SCORE.INTRA.norm>
-0.00239739

>  <SCORE.RESTR>
6.53086

>  <SCORE.RESTR.CAVITY>
6.53086

>  <SCORE.RESTR.norm>
0.148429

>  <SCORE.SYSTEM>
0

>  <SCORE.SYSTEM.CONST>
0

>  <SCORE.SYSTEM.DIHEDRAL>
0

>  <SCORE.SYSTEM.SOLV>
0

>  <SCORE.SYSTEM.norm>
0

>  <SCORE.heavy>
44

>  <SCORE.norm>
0.487469

>  <RMSD>
26.738

$$$$
ligand
 OpenBabel11021811513D
libRbt.so/2013.1/901 2013/11/27
 44 50  0  0  0  0  0  0  0  0999 V2000
   12.9608   27.2068   -2.8664 P   0  0  2  0  0  0  0  0  0  0  0  0
   15.1573   23.3037    0.1580 P   0  0  1  0  0  0  0  0  0  0  0  0
   12.1547   28.3973   -2.3532 O   0  5  0  0  0  0  0  0  0  0  0  0
   14.8656   22.0246   -0.5883 O   0  5  0  0  0  0  0  0  0  0  0  0
   12.4946   26.9638   -4.2817 O   0  0  0  0  0  0  0  0  0  0  0  0
   16.2078   22.9751    1.2431 O   0  0  0  0  0  0  0  0  0  0  0  0
   12.3151   26.4311   -0.5377 C   0  0  0  0  0  0  0  0  0  0  0  0
   15.7688   25.7278   -0.4886 C   0  0  0  0  0  0  0  0  0  0  0  0
   12.6311   26.0396   -1.8806 O   0  0  0  0  0  0  0  0  0  0  0  0
   15.5581   24.3865   -1.0132 O   0  0  0  0  0  0  0  0  0  0  0  0
   11.9696   25.2042    0.2995 C   0  0  1  0  0  0  0  0  0  0  0  0
   16.2757   26.5991   -1.6992 C   0  0  1  0  0  0  0  0  0  0  0  0
   10.7149   24.9306    0.1171 O   0  0  0  0  0  0  0  0  0  0  0  0
   17.2422   25.9440   -2.1998 O   0  0  0  0  0  0  0  0  0  0  0  0
   12.7449   23.9706   -0.1024 C   0  0  1  0  0  0  0  0  0  0  0  0
   15.2442   26.6046   -2.8451 C   0  0  1  0  0  0  0  0  0  0  0  0
   13.7613   23.8418    0.7913 O   0  0  0  0  0  0  0  0  0  0  0  0
   14.5327   27.7384   -2.8558 O   0  0  0  0  0  0  0  0  0  0  0  0
   11.7081   22.8080    0.0807 C   0  0  1  0  0  0  0  0  0  0  0  0
   16.0338   26.4278   -4.1621 C   0  0  1  0  0  0  0  0  0  0  0  0
   11.9731   22.0825    1.3522 O   0  0  0  0  0  0  0  0  0  0  0  0
   16.1713   27.7403   -4.8717 O   0  0  0  0  0  0  0  0  0  0  0  0
   10.5352   23.3556    0.0934 C   0  0  2  0  0  0  0  0  0  0  0  0
   17.1974   26.0097   -3.7983 C   0  0  2  0  0  0  0  0  0  0  0  0
    8.6111   19.8181   -3.4570 N   0  0  0  0  0  0  0  0  0  0  0  0
    9.3883   19.5188   -2.3784 C   0  0  0  0  0  0  0  0  0  0  0  0
    9.8296   20.4995   -1.5269 N   0  0  0  0  0  0  0  0  0  0  0  0
    9.4809   21.7987   -1.7735 C   0  0  0  0  0  0  0  0  0  0  0  0
    8.7230   22.1094   -2.8344 C   0  0  0  0  0  0  0  0  0  0  0  0
    8.2710   21.1057   -3.6893 C   0  0  0  0  0  0  0  0  0  0  0  0
    7.4719   21.2982   -4.8336 N   0  0  0  0  0  0  0  0  0  0  0  0
    8.5328   23.4459   -2.8297 N   0  0  0  0  0  0  0  0  0  0  0  0
    9.1918   23.9590   -1.7520 C   0  0  0  0  0  0  0  0  0  0  0  0
    9.7623   22.9439   -1.0900 N   0  0  0  0  0  0  0  0  0  0  0  0
   18.7495   21.1267   -2.8669 N   0  0  0  0  0  0  0  0  0  0  0  0
   18.5998   22.1217   -1.9538 C   0  0  0  0  0  0  0  0  0  0  0  0
   18.1882   23.3583   -2.3647 N   0  0  0  0  0  0  0  0  0  0  0  0
   17.9242   23.5910   -3.6787 C   0  0  0  0  0  0  0  0  0  0  0  0
   18.0661   22.6071   -4.5897 C   0  0  0  0  0  0  0  0  0  0  0  0
   18.4896   21.3517   -4.1631 C   0  0  0  0  0  0  0  0  0  0  0  0
   18.7250   20.1724   -4.9561 N   0  0  0  0  0  0  0  0  0  0  0  0
   17.7401   23.1243   -5.7985 N   0  0  0  0  0  0  0  0  0  0  0  0
   17.3915   24.4312   -5.6243 C   0  0  0  0  0  0  0  0  0  0  0  0
   17.5056   24.7092   -4.3098 N   0  0  0  0  0  0  0  0  0  0  0  0
  1  3  1  1  0  0  0
  1  5  2  0  0  0  0
  1  9  1  0  0  0  0
  1 18  1  0  0  0  0
  2  4  1  6  0  0  0
  2  6  2  0  0  0  0
  2 10  1  0  0  0  0
  2 17  1  0  0  0  0
  7  9  1  0  0  0  0
  8 10  1  0  0  0  0
 11  7  1  6  0  0  0
 11 13  1  0  0  0  0
 11 15  1  0  0  0  0
 12  8  1  1  0  0  0
 12 14  1  0  0  0  0
 12 16  1  0  0  0  0
 13 23  1  0  0  0  0
 14 24  1  0  0  0  0
 15 17  1  1  0  0  0
 15 19  1  0  0  0  0
 16 18  1  6  0  0  0
 16 20  1  0  0  0  0
 19 21  1  1  0  0  0
 19 23  1  0  0  0  0
 20 22  1  1  0  0  0
 20 24  1  0  0  0  0
 23 34  1  6  0  0  0
 24 44  1  6  0  0  0
 25 26  2  0  0  0  0
 25 30  1  0  0  0  0
 26 27  1  0  0  0  0
 27 28  2  0  0  0  0
 28 29  1  0  0  0  0
 28 34  1  0  0  0  0
 29 30  2  0  0  0  0
 29 32  1  0  0  0  0
 30 31  1  0  0  0  0
 32 33  2  0  0  0  0
 33 34  1  0  0  0  0
 35 36  2  0  0  0  0
 35 40  1  0  0  0  0
 36 37  1  0  0  0  0
 37 38  2  0  0  0  0
 38 39  1  0  0  0  0
 38 44  1  0  0  0  0
 39 40  2  0  0  0  0
 39 42  1  0  0  0  0
 40 41  1  0  0  0  0
 42 43  2  0  0  0  0
 43 44  1  0  0  0  0
M  CHG  2   3  -1   4  -1
M  END
>  <CHROM.1>
165.92582729,-7.31494828,13.82025389,24.01823753,-2.14627255,2.92715295,-0.19396984
-3.12002909

>  <Name>
ligand

>  <RI>
0

>  <Rbt.Current_Directory>
/home/itssahil/PROJECTS/Mol_Feturizer/New_Systems/rnas/4QLM

>  <Rbt.Executable>
rbdock ($Id: //depot/dev/client3/rdock/2013.1/src/exe/rbdock.cxx#4 $)

>  <Rbt.Library>
libRbt.so (2013.1, Build901 2013/11/27)

>  <Rbt.Parameter_File>
/export/apps/rDock/src/rDock_2013.1_src/data/scripts/dock_solv.prm

>  <Rbt.Receptor>
prm/blind_docking_80.prm

>  <SCORE>
30.9541

>  <SCORE.INTER>
22.3715

>  <SCORE.INTER.CONST>
1

>  <SCORE.INTER.POLAR>
0

>  <SCORE.INTER.ROT>
2

>  <SCORE.INTER.SOLV>
48.5703

>  <SCORE.INTER.VDW>
-6.20909

>  <SCORE.INTER.norm>
0.508443

>  <SCORE.INTRA>
0.191151

>  <SCORE.INTRA.DIHEDRAL>
0.137511

>  <SCORE.INTRA.DIHEDRAL.0>
2.32994

>  <SCORE.INTRA.POLAR>
0

>  <SCORE.INTRA.POLAR.0>
0

>  <SCORE.INTRA.REPUL>
0

>  <SCORE.INTRA.REPUL.0>
0

>  <SCORE.INTRA.SOLV>
0.237893

>  <SCORE.INTRA.SOLV.lig_0>
-117.703

>  <SCORE.INTRA.VDW>
0.00344845

>  <SCORE.INTRA.VDW.0>
-1.59997

>  <SCORE.INTRA.norm>
0.00434433

>  <SCORE.RESTR>
8.39143

>  <SCORE.RESTR.CAVITY>
8.39143

>  <SCORE.RESTR.norm>
0.190714

>  <SCORE.SYSTEM>
0

>  <SCORE.SYSTEM.CONST>
0

>  <SCORE.SYSTEM.DIHEDRAL>
0

>  <SCORE.SYSTEM.SOLV>
0

>  <SCORE.SYSTEM.norm>
0

>  <SCORE.heavy>
44

>  <SCORE.norm>
0.703502

>  <RMSD>
26.746

$$$$
ligand
 OpenBabel11021811513D
libRbt.so/2013.1/901 2013/11/27
 44 50  0  0  0  0  0  0  0  0999 V2000
   12.9781   27.2317   -2.8060 P   0  0  2  0  0  0  0  0  0  0  0  0
   15.1899   23.2661    0.1245 P   0  0  1  0  0  0  0  0  0  0  0  0
   12.1265   28.3797   -2.2700 O   0  5  0  0  0  0  0  0  0  0  0  0
   14.9536   22.0114   -0.6803 O   0  5  0  0  0  0  0  0  0  0  0  0
   12.5592   27.0345   -4.2431 O   0  0  0  0  0  0  0  0  0  0  0  0
   16.2174   22.9205    1.2263 O   0  0  0  0  0  0  0  0  0  0  0  0
   12.2870   26.3462   -0.5302 C   0  0  0  0  0  0  0  0  0  0  0  0
   15.7553   25.7291   -0.4069 C   0  0  0  0  0  0  0  0  0  0  0  0
   12.6515   26.0176   -1.8776 O   0  0  0  0  0  0  0  0  0  0  0  0
   15.5952   24.4053   -0.9904 O   0  0  0  0  0  0  0  0  0  0  0  0
   11.9504   25.0781    0.2471 C   0  0  1  0  0  0  0  0  0  0  0  0
   16.2733   26.6613   -1.5664 C   0  0  1  0  0  0  0  0  0  0  0  0
   10.7091   24.7805    0.0170 O   0  0  0  0  0  0  0  0  0  0  0  0
   17.2707   26.0516   -2.0638 O   0  0  0  0  0  0  0  0  0  0  0  0
   12.7692   23.8818   -0.1804 C   0  0  1  0  0  0  0  0  0  0  0  0
   15.2752   26.6871   -2.7412 C   0  0  1  0  0  0  0  0  0  0  0  0
   13.7627   23.7427    0.7371 O   0  0  0  0  0  0  0  0  0  0  0  0
   14.5345   27.8020   -2.7278 O   0  0  0  0  0  0  0  0  0  0  0  0
   11.7586   22.6869   -0.0744 C   0  0  1  0  0  0  0  0  0  0  0  0
   16.1064   26.5837   -4.0402 C   0  0  1  0  0  0  0  0  0  0  0  0
   12.0064   21.9175    1.1746 O   0  0  0  0  0  0  0  0  0  0  0  0
   16.2293   27.9270   -4.6928 O   0  0  0  0  0  0  0  0  0  0  0  0
   10.5718   23.2037   -0.0747 C   0  0  2  0  0  0  0  0  0  0  0  0
   17.2698   26.1808   -3.6591 C   0  0  2  0  0  0  0  0  0  0  0  0
   10.1669   21.6553   -5.1991 N   0  0  0  0  0  0  0  0  0  0  0  0
   11.3307   21.8497   -4.5172 C   0  0  0  0  0  0  0  0  0  0  0  0
   11.3268   22.2462   -3.2041 N   0  0  0  0  0  0  0  0  0  0  0  0
   10.1292   22.4504   -2.5761 C   0  0  0  0  0  0  0  0  0  0  0  0
    8.9764   22.2703   -3.2357 C   0  0  0  0  0  0  0  0  0  0  0  0
    8.9892   21.8582   -4.5671 C   0  0  0  0  0  0  0  0  0  0  0  0
    7.8531   21.6338   -5.3696 N   0  0  0  0  0  0  0  0  0  0  0  0
    7.9653   22.5347   -2.3813 N   0  0  0  0  0  0  0  0  0  0  0  0
    8.5112   22.8889   -1.1831 C   0  0  0  0  0  0  0  0  0  0  0  0
    9.8441   22.8208   -1.2958 N   0  0  0  0  0  0  0  0  0  0  0  0
   18.5005   21.1826   -2.8692 N   0  0  0  0  0  0  0  0  0  0  0  0
   18.2210   22.1125   -1.9186 C   0  0  0  0  0  0  0  0  0  0  0  0
   17.9216   23.3920   -2.2936 N   0  0  0  0  0  0  0  0  0  0  0  0
   17.8978   23.7321   -3.6105 C   0  0  0  0  0  0  0  0  0  0  0  0
   18.1696   22.8136   -4.5595 C   0  0  0  0  0  0  0  0  0  0  0  0
   18.4774   21.5137   -4.1685 C   0  0  0  0  0  0  0  0  0  0  0  0
   18.8152   20.3878   -5.0011 N   0  0  0  0  0  0  0  0  0  0  0  0
   18.0741   23.4319   -5.7609 N   0  0  0  0  0  0  0  0  0  0  0  0
   17.7364   24.7355   -5.5450 C   0  0  0  0  0  0  0  0  0  0  0  0
   17.6268   24.9103   -4.2125 N   0  0  0  0  0  0  0  0  0  0  0  0
  1  3  1  1  0  0  0
  1  5  2  0  0  0  0
  1  9  1  0  0  0  0
  1 18  1  0  0  0  0
  2  4  1  6  0  0  0
  2  6  2  0  0  0  0
  2 10  1  0  0  0  0
  2 17  1  0  0  0  0
  7  9  1  0  0  0  0
  8 10  1  0  0  0  0
 11  7  1  6  0  0  0
 11 13  1  0  0  0  0
 11 15  1  0  0  0  0
 12  8  1  1  0  0  0
 12 14  1  0  0  0  0
 12 16  1  0  0  0  0
 13 23  1  0  0  0  0
 14 24  1  0  0  0  0
 15 17  1  1  0  0  0
 15 19  1  0  0  0  0
 16 18  1  6  0  0  0
 16 20  1  0  0  0  0
 19 21  1  1  0  0  0
 19 23  1  0  0  0  0
 20 22  1  1  0  0  0
 20 24  1  0  0  0  0
 23 34  1  6  0  0  0
 24 44  1  6  0  0  0
 25 26  2  0  0  0  0
 25 30  1  0  0  0  0
 26 27  1  0  0  0  0
 27 28  2  0  0  0  0
 28 29  1  0  0  0  0
 28 34  1  0  0  0  0
 29 30  2  0  0  0  0
 29 32  1  0  0  0  0
 30 31  1  0  0  0  0
 32 33  2  0  0  0  0
 33 34  1  0  0  0  0
 35 36  2  0  0  0  0
 35 40  1  0  0  0  0
 36 37  1  0  0  0  0
 37 38  2  0  0  0  0
 38 39  1  0  0  0  0
 38 44  1  0  0  0  0
 39 40  2  0  0  0  0
 39 42  1  0  0  0  0
 40 41  1  0  0  0  0
 42 43  2  0  0  0  0
 43 44  1  0  0  0  0
M  CHG  2   3  -1   4  -1
M  END
>  <CHROM.1>
94.19655011,1.95631613,13.95340286,24.16127884,-2.27947172,3.02309275,-0.16920505
-3.02580436

>  <Name>
ligand

>  <RI>
0

>  <Rbt.Current_Directory>
/home/itssahil/PROJECTS/Mol_Feturizer/New_Systems/rnas/4QLM

>  <Rbt.Executable>
rbdock ($Id: //depot/dev/client3/rdock/2013.1/src/exe/rbdock.cxx#4 $)

>  <Rbt.Library>
libRbt.so (2013.1, Build901 2013/11/27)

>  <Rbt.Parameter_File>
/export/apps/rDock/src/rDock_2013.1_src/data/scripts/dock_solv.prm

>  <Rbt.Receptor>
prm/blind_docking_80.prm

>  <SCORE>
32.1336

>  <SCORE.INTER>
24.6932

>  <SCORE.INTER.CONST>
1

>  <SCORE.INTER.POLAR>
0

>  <SCORE.INTER.ROT>
2

>  <SCORE.INTER.SOLV>
50.4574

>  <SCORE.INTER.VDW>
-5.29032

>  <SCORE.INTER.norm>
0.56121

>  <SCORE.INTRA>
-0.864691

>  <SCORE.INTRA.DIHEDRAL>
-0.0307084

>  <SCORE.INTRA.DIHEDRAL.0>
2.32994

>  <SCORE.INTRA.POLAR>
0

>  <SCORE.INTRA.POLAR.0>
0

>  <SCORE.INTRA.REPUL>
0

>  <SCORE.INTRA.REPUL.0>
0

>  <SCORE.INTRA.SOLV>
0.799442

>  <SCORE.INTRA.SOLV.lig_0>
-117.703

>  <SCORE.INTRA.VDW>
-1.24906

>  <SCORE.INTRA.VDW.0>
-1.59997

>  <SCORE.INTRA.norm>
-0.0196521

>  <SCORE.RESTR>
8.30509

>  <SCORE.RESTR.CAVITY>
8.30509

>  <SCORE.RESTR.norm>
0.188752

>  <SCORE.SYSTEM>
0

>  <SCORE.SYSTEM.CONST>
0

>  <SCORE.SYSTEM.DIHEDRAL>
0

>  <SCORE.SYSTEM.SOLV>
0

>  <SCORE.SYSTEM.norm>
0

>  <SCORE.heavy>
44

>  <SCORE.norm>
0.73031

>  <RMSD>
26.754

$$$$
ligand
 OpenBabel11021811513D
libRbt.so/2013.1/901 2013/11/27
 44 50  0  0  0  0  0  0  0  0999 V2000
   12.9812   27.2326   -2.8077 P   0  0  2  0  0  0  0  0  0  0  0  0
   15.1872   23.2673    0.1275 P   0  0  1  0  0  0  0  0  0  0  0  0
   12.1303   28.3818   -2.2732 O   0  5  0  0  0  0  0  0  0  0  0  0
   14.9503   22.0121   -0.6765 O   0  5  0  0  0  0  0  0  0  0  0  0
   12.5631   27.0346   -4.2449 O   0  0  0  0  0  0  0  0  0  0  0  0
   16.2136   22.9215    1.2303 O   0  0  0  0  0  0  0  0  0  0  0  0
   12.2877   26.3496   -0.5316 C   0  0  0  0  0  0  0  0  0  0  0  0
   15.7553   25.7293   -0.4054 C   0  0  0  0  0  0  0  0  0  0  0  0
   12.6528   26.0196   -1.8785 O   0  0  0  0  0  0  0  0  0  0  0  0
   15.5944   24.4051   -0.9880 O   0  0  0  0  0  0  0  0  0  0  0  0
   11.9493   25.0824    0.2464 C   0  0  1  0  0  0  0  0  0  0  0  0
   16.2750   26.6600   -1.5653 C   0  0  1  0  0  0  0  0  0  0  0  0
   10.7078   24.7858    0.0156 O   0  0  0  0  0  0  0  0  0  0  0  0
   17.2722   26.0490   -2.0615 O   0  0  0  0  0  0  0  0  0  0  0  0
   12.7672   23.8850   -0.1796 C   0  0  1  0  0  0  0  0  0  0  0  0
   15.2777   26.6859   -2.7408 C   0  0  1  0  0  0  0  0  0  0  0  0
   13.7600   23.7457    0.7388 O   0  0  0  0  0  0  0  0  0  0  0  0
   14.5380   27.8015   -2.7288 O   0  0  0  0  0  0  0  0  0  0  0  0
   11.7555   22.6911   -0.0733 C   0  0  1  0  0  0  0  0  0  0  0  0
   16.1097   26.5807   -4.0392 C   0  0  1  0  0  0  0  0  0  0  0  0
   12.0017   21.9224    1.1765 O   0  0  0  0  0  0  0  0  0  0  0  0
   16.2343   27.9233   -4.6927 O   0  0  0  0  0  0  0  0  0  0  0  0
   10.5691   23.2091   -0.0748 C   0  0  2  0  0  0  0  0  0  0  0  0
   17.2724   26.1770   -3.6569 C   0  0  2  0  0  0  0  0  0  0  0  0
   10.1663   21.6606   -5.1994 N   0  0  0  0  0  0  0  0  0  0  0  0
   11.3299   21.8554   -4.5172 C   0  0  0  0  0  0  0  0  0  0  0  0
   11.3254   22.2518   -3.2041 N   0  0  0  0  0  0  0  0  0  0  0  0
   10.1276   22.4556   -2.5764 C   0  0  0  0  0  0  0  0  0  0  0  0
    8.9751   22.2750   -3.2363 C   0  0  0  0  0  0  0  0  0  0  0  0
    8.9884   21.8629   -4.5678 C   0  0  0  0  0  0  0  0  0  0  0  0
    7.8526   21.6380   -5.3705 N   0  0  0  0  0  0  0  0  0  0  0  0
    7.9636   22.5390   -2.3822 N   0  0  0  0  0  0  0  0  0  0  0  0
    8.5090   22.8934   -1.1838 C   0  0  0  0  0  0  0  0  0  0  0  0
    9.8420   22.8259   -1.2961 N   0  0  0  0  0  0  0  0  0  0  0  0
   18.5035   21.1797   -2.8618 N   0  0  0  0  0  0  0  0  0  0  0  0
   18.2253   22.1109   -1.9122 C   0  0  0  0  0  0  0  0  0  0  0  0
   17.9256   23.3899   -2.2886 N   0  0  0  0  0  0  0  0  0  0  0  0
   17.9002   23.7283   -3.6059 C   0  0  0  0  0  0  0  0  0  0  0  0
   18.1708   22.8084   -4.5539 C   0  0  0  0  0  0  0  0  0  0  0  0
   18.4789   21.5091   -4.1615 C   0  0  0  0  0  0  0  0  0  0  0  0
   18.8156   20.3820   -4.9931 N   0  0  0  0  0  0  0  0  0  0  0  0
   18.0740   23.4252   -5.7561 N   0  0  0  0  0  0  0  0  0  0  0  0
   17.7366   24.7291   -5.5415 C   0  0  0  0  0  0  0  0  0  0  0  0
   17.6287   24.9057   -4.2091 N   0  0  0  0  0  0  0  0  0  0  0  0
  1  3  1  1  0  0  0
  1  5  2  0  0  0  0
  1  9  1  0  0  0  0
  1 18  1  0  0  0  0
  2  4  1  6  0  0  0
  2  6  2  0  0  0  0
  2 10  1  0  0  0  0
  2 17  1  0  0  0  0
  7  9  1  0  0  0  0
  8 10  1  0  0  0  0
 11  7  1  6  0  0  0
 11 13  1  0  0  0  0
 11 15  1  0  0  0  0
 12  8  1  1  0  0  0
 12 14  1  0  0  0  0
 12 16  1  0  0  0  0
 13 23  1  0  0  0  0
 14 24  1  0  0  0  0
 15 17  1  1  0  0  0
 15 19  1  0  0  0  0
 16 18  1  6  0  0  0
 16 20  1  0  0  0  0
 19 21  1  1  0  0  0
 19 23  1  0  0  0  0
 20 22  1  1  0  0  0
 20 24  1  0  0  0  0
 23 34  1  6  0  0  0
 24 44  1  6  0  0  0
 25 26  2  0  0  0  0
 25 30  1  0  0  0  0
 26 27  1  0  0  0  0
 27 28  2  0  0  0  0
 28 29  1  0  0  0  0
 28 34  1  0  0  0  0
 29 30  2  0  0  0  0
 29 32  1  0  0  0  0
 30 31  1  0  0  0  0
 32 33  2  0  0  0  0
 33 34  1  0  0  0  0
 35 36  2  0  0  0  0
 35 40  1  0  0  0  0
 36 37  1  0  0  0  0
 37 38  2  0  0  0  0
 38 39  1  0  0  0  0
 38 44  1  0  0  0  0
 39 40  2  0  0  0  0
 39 42  1  0  0  0  0
 40 41  1  0  0  0  0
 42 43  2  0  0  0  0
 43 44  1  0  0  0  0
M  CHG  2   3  -1   4  -1
M  END
>  <CHROM.1>
94.10281435,1.83418621,13.95363474,24.16202625,-2.27806136,3.02412649,-0.16818643
-3.02720960

>  <Name>
ligand

>  <RI>
0

>  <Rbt.Current_Directory>
/home/itssahil/PROJECTS/Mol_Feturizer/New_Systems/rnas/4QLM

>  <Rbt.Executable>
rbdock ($Id: //depot/dev/client3/rdock/2013.1/src/exe/rbdock.cxx#4 $)

>  <Rbt.Library>
libRbt.so (2013.1, Build901 2013/11/27)

>  <Rbt.Parameter_File>
/export/apps/rDock/src/rDock_2013.1_src/data/scripts/dock_solv.prm

>  <Rbt.Receptor>
prm/blind_docking_80.prm

>  <SCORE>
32.0904

>  <SCORE.INTER>
24.6367

>  <SCORE.INTER.CONST>
1

>  <SCORE.INTER.POLAR>
0

>  <SCORE.INTER.ROT>
2

>  <SCORE.INTER.SOLV>
50.5082

>  <SCORE.INTER.VDW>
-5.3449

>  <SCORE.INTER.norm>
0.559926

>  <SCORE.INTRA>
-0.863799

>  <SCORE.INTRA.DIHEDRAL>
-0.0307933

>  <SCORE.INTRA.DIHEDRAL.0>
2.32994

>  <SCORE.INTRA.POLAR>
0

>  <SCORE.INTRA.POLAR.0>
0

>  <SCORE.INTRA.REPUL>
0

>  <SCORE.INTRA.REPUL.0>
0

>  <SCORE.INTRA.SOLV>
0.792619

>  <SCORE.INTRA.SOLV.lig_0>
-117.703

>  <SCORE.INTRA.VDW>
-1.24471

>  <SCORE.INTRA.VDW.0>
-1.59997

>  <SCORE.INTRA.norm>
-0.0196318

>  <SCORE.RESTR>
8.3175

>  <SCORE.RESTR.CAVITY>
8.3175

>  <SCORE.RESTR.norm>
0.189034

>  <SCORE.SYSTEM>
0

>  <SCORE.SYSTEM.CONST>
0

>  <SCORE.SYSTEM.DIHEDRAL>
0

>  <SCORE.SYSTEM.SOLV>
0

>  <SCORE.SYSTEM.norm>
0

>  <SCORE.heavy>
44

>  <SCORE.norm>
0.729328

>  <RMSD>
26.755

$$$$
ligand
 OpenBabel11021811513D
libRbt.so/2013.1/901 2013/11/27
 44 50  0  0  0  0  0  0  0  0999 V2000
   13.3087   27.2203   -2.7720 P   0  0  2  0  0  0  0  0  0  0  0  0
   15.2686   23.4036    0.5138 P   0  0  1  0  0  0  0  0  0  0  0  0
   12.4241   28.3946   -2.3609 O   0  5  0  0  0  0  0  0  0  0  0  0
   15.0886   22.1104   -0.2435 O   0  5  0  0  0  0  0  0  0  0  0  0
   13.0005   26.9521   -4.2255 O   0  0  0  0  0  0  0  0  0  0  0  0
   16.2064   23.1122    1.7074 O   0  0  0  0  0  0  0  0  0  0  0  0
   12.4401   26.4504   -0.5150 C   0  0  0  0  0  0  0  0  0  0  0  0
   15.8855   25.8363   -0.0941 C   0  0  0  0  0  0  0  0  0  0  0  0
   12.9055   26.0545   -1.8123 O   0  0  0  0  0  0  0  0  0  0  0  0
   15.7641   24.4851   -0.6217 O   0  0  0  0  0  0  0  0  0  0  0  0
   12.0383   25.2231    0.2960 C   0  0  1  0  0  0  0  0  0  0  0  0
   16.4958   26.7088   -1.2551 C   0  0  1  0  0  0  0  0  0  0  0  0
   10.8169   24.9158   -0.0140 O   0  0  0  0  0  0  0  0  0  0  0  0
   17.5255   26.0739   -1.6432 O   0  0  0  0  0  0  0  0  0  0  0  0
   12.8815   24.0060   -0.0070 C   0  0  1  0  0  0  0  0  0  0  0  0
   15.5912   26.6771   -2.5032 C   0  0  1  0  0  0  0  0  0  0  0  0
   13.8008   23.9118    0.9901 O   0  0  0  0  0  0  0  0  0  0  0  0
   14.8572   27.7921   -2.6024 O   0  0  0  0  0  0  0  0  0  0  0  0
   11.8599   22.8191    0.0800 C   0  0  1  0  0  0  0  0  0  0  0  0
   16.5193   26.5080   -3.7276 C   0  0  1  0  0  0  0  0  0  0  0  0
   12.0070   22.1126    1.3810 O   0  0  0  0  0  0  0  0  0  0  0  0
   16.6988   27.8168   -4.4346 O   0  0  0  0  0  0  0  0  0  0  0  0
   10.6792   23.3366   -0.0375 C   0  0  2  0  0  0  0  0  0  0  0  0
   17.6479   26.1233   -3.2383 C   0  0  2  0  0  0  0  0  0  0  0  0
   10.6597   21.6551   -5.1359 N   0  0  0  0  0  0  0  0  0  0  0  0
   11.7696   21.9163   -4.3895 C   0  0  0  0  0  0  0  0  0  0  0  0
   11.6672   22.3421   -3.0896 N   0  0  0  0  0  0  0  0  0  0  0  0
   10.4254   22.5074   -2.5413 C   0  0  0  0  0  0  0  0  0  0  0  0
    9.3245   22.2614   -3.2651 C   0  0  0  0  0  0  0  0  0  0  0  0
    9.4375   21.8199   -4.5823 C   0  0  0  0  0  0  0  0  0  0  0  0
    8.3640   21.5271   -5.4465 N   0  0  0  0  0  0  0  0  0  0  0  0
    8.2519   22.5001   -2.4810 N   0  0  0  0  0  0  0  0  0  0  0  0
    8.7067   22.9054   -1.2611 C   0  0  0  0  0  0  0  0  0  0  0  0
   10.0458   22.8940   -1.2905 N   0  0  0  0  0  0  0  0  0  0  0  0
   16.3052   21.6063   -5.4551 N   0  0  0  0  0  0  0  0  0  0  0  0
   15.4852   22.6548   -5.1819 C   0  0  0  0  0  0  0  0  0  0  0  0
   15.9961   23.7737   -4.5865 N   0  0  0  0  0  0  0  0  0  0  0  0
   17.3183   23.8404   -4.2740 C   0  0  0  0  0  0  0  0  0  0  0  0
   18.1388   22.8056   -4.5463 C   0  0  0  0  0  0  0  0  0  0  0  0
   17.6094   21.6684   -5.1493 C   0  0  0  0  0  0  0  0  0  0  0  0
   18.2895   20.4507   -5.5095 N   0  0  0  0  0  0  0  0  0  0  0  0
   19.3797   23.1515   -4.1273 N   0  0  0  0  0  0  0  0  0  0  0  0
   19.3182   24.4080   -3.6006 C   0  0  0  0  0  0  0  0  0  0  0  0
   18.0401   24.8263   -3.6987 N   0  0  0  0  0  0  0  0  0  0  0  0
  1  3  1  1  0  0  0
  1  5  2  0  0  0  0
  1  9  1  0  0  0  0
  1 18  1  0  0  0  0
  2  4  1  6  0  0  0
  2  6  2  0  0  0  0
  2 10  1  0  0  0  0
  2 17  1  0  0  0  0
  7  9  1  0  0  0  0
  8 10  1  0  0  0  0
 11  7  1  6  0  0  0
 11 13  1  0  0  0  0
 11 15  1  0  0  0  0
 12  8  1  1  0  0  0
 12 14  1  0  0  0  0
 12 16  1  0  0  0  0
 13 23  1  0  0  0  0
 14 24  1  0  0  0  0
 15 17  1  1  0  0  0
 15 19  1  0  0  0  0
 16 18  1  6  0  0  0
 16 20  1  0  0  0  0
 19 21  1  1  0  0  0
 19 23  1  0  0  0  0
 20 22  1  1  0  0  0
 20 24  1  0  0  0  0
 23 34  1  6  0  0  0
 24 44  1  6  0  0  0
 25 26  2  0  0  0  0
 25 30  1  0  0  0  0
 26 27  1  0  0  0  0
 27 28  2  0  0  0  0
 28 29  1  0  0  0  0
 28 34  1  0  0  0  0
 29 30  2  0  0  0  0
 29 32  1  0  0  0  0
 30 31  1  0  0  0  0
 32 33  2  0  0  0  0
 33 34  1  0  0  0  0
 35 36  2  0  0  0  0
 35 40  1  0  0  0  0
 36 37  1  0  0  0  0
 37 38  2  0  0  0  0
 38 39  1  0  0  0  0
 38 44  1  0  0  0  0
 39 40  2  0  0  0  0
 39 42  1  0  0  0  0
 40 41  1  0  0  0  0
 42 43  2  0  0  0  0
 43 44  1  0  0  0  0
M  CHG  2   3  -1   4  -1
M  END
>  <CHROM.1>
91.01737414,102.56166368,14.03499659,24.22108920,-2.27988033,0.00678870,0.28945869
0.83628881

>  <Name>
ligand

>  <RI>
0

>  <Rbt.Current_Directory>
/home/itssahil/PROJECTS/Mol_Feturizer/New_Systems/rnas/4QLM

>  <Rbt.Executable>
rbdock ($Id: //depot/dev/client3/rdock/2013.1/src/exe/rbdock.cxx#4 $)

>  <Rbt.Library>
libRbt.so (2013.1, Build901 2013/11/27)

>  <Rbt.Parameter_File>
/export/apps/rDock/src/rDock_2013.1_src/data/scripts/dock_solv.prm

>  <Rbt.Receptor>
prm/blind_docking_60.prm

>  <SCORE>
23.0524

>  <SCORE.INTER>
17.1571

>  <SCORE.INTER.CONST>
1

>  <SCORE.INTER.POLAR>
0

>  <SCORE.INTER.ROT>
2

>  <SCORE.INTER.SOLV>
51.9875

>  <SCORE.INTER.VDW>
-10.8244

>  <SCORE.INTER.norm>
0.389935

>  <SCORE.INTRA>
-0.445392

>  <SCORE.INTRA.DIHEDRAL>
-0.0248981

>  <SCORE.INTRA.DIHEDRAL.0>
2.32994

>  <SCORE.INTRA.POLAR>
0

>  <SCORE.INTRA.POLAR.0>
0

>  <SCORE.INTRA.REPUL>
0

>  <SCORE.INTRA.REPUL.0>
0

>  <SCORE.INTRA.SOLV>
0.0308878

>  <SCORE.INTRA.SOLV.lig_0>
-117.703

>  <SCORE.INTRA.VDW>
-0.448387

>  <SCORE.INTRA.VDW.0>
-1.59997

>  <SCORE.INTRA.norm>
-0.0101225

>  <SCORE.RESTR>
6.34064

>  <SCORE.RESTR.CAVITY>
6.34064

>  <SCORE.RESTR.norm>
0.144106

>  <SCORE.SYSTEM>
0

>  <SCORE.SYSTEM.CONST>
0

>  <SCORE.SYSTEM.DIHEDRAL>
0

>  <SCORE.SYSTEM.SOLV>
0

>  <SCORE.SYSTEM.norm>
0

>  <SCORE.heavy>
44

>  <SCORE.norm>
0.523918

>  <RMSD>
26.757

$$$$
ligand
 OpenBabel11021811513D
libRbt.so/2013.1/901 2013/11/27
 44 50  0  0  0  0  0  0  0  0999 V2000
   13.0051   27.2327   -2.8160 P   0  0  2  0  0  0  0  0  0  0  0  0
   15.1991   23.2568    0.1139 P   0  0  1  0  0  0  0  0  0  0  0  0
   12.1500   28.3786   -2.2812 O   0  5  0  0  0  0  0  0  0  0  0  0
   14.9680   22.0049   -0.6970 O   0  5  0  0  0  0  0  0  0  0  0  0
   12.5953   27.0407   -4.2564 O   0  0  0  0  0  0  0  0  0  0  0  0
   16.2196   22.9072    1.2209 O   0  0  0  0  0  0  0  0  0  0  0  0
   12.2998   26.3388   -0.5478 C   0  0  0  0  0  0  0  0  0  0  0  0
   15.7674   25.7218   -0.4049 C   0  0  0  0  0  0  0  0  0  0  0  0
   12.6728   26.0152   -1.8941 O   0  0  0  0  0  0  0  0  0  0  0  0
   15.6112   24.4000   -0.9943 O   0  0  0  0  0  0  0  0  0  0  0  0
   11.9585   25.0678    0.2226 C   0  0  1  0  0  0  0  0  0  0  0  0
   16.2925   26.6582   -1.5577 C   0  0  1  0  0  0  0  0  0  0  0  0
   10.7187   24.7709   -0.0164 O   0  0  0  0  0  0  0  0  0  0  0  0
   17.2932   26.0505   -2.0510 O   0  0  0  0  0  0  0  0  0  0  0  0
   12.7801   23.8732   -0.2041 C   0  0  1  0  0  0  0  0  0  0  0  0
   15.3018   26.6882   -2.7386 C   0  0  1  0  0  0  0  0  0  0  0  0
   13.7679   23.7309    0.7192 O   0  0  0  0  0  0  0  0  0  0  0  0
   14.5609   27.8030   -2.7259 O   0  0  0  0  0  0  0  0  0  0  0  0
   11.7692   22.6778   -0.1088 C   0  0  1  0  0  0  0  0  0  0  0  0
   16.1412   26.5897   -4.0328 C   0  0  1  0  0  0  0  0  0  0  0  0
   12.0092   21.9038    1.1389 O   0  0  0  0  0  0  0  0  0  0  0  0
   16.2680   27.9354   -4.6796 O   0  0  0  0  0  0  0  0  0  0  0  0
   10.5822   23.1944   -0.1147 C   0  0  2  0  0  0  0  0  0  0  0  0
   17.3022   26.1856   -3.6458 C   0  0  2  0  0  0  0  0  0  0  0  0
   10.2101   21.6582   -5.2452 N   0  0  0  0  0  0  0  0  0  0  0  0
   11.3695   21.8484   -4.5547 C   0  0  0  0  0  0  0  0  0  0  0  0
   11.3572   22.2419   -3.2408 N   0  0  0  0  0  0  0  0  0  0  0  0
   10.1557   22.4476   -2.6209 C   0  0  0  0  0  0  0  0  0  0  0  0
    9.0072   22.2717   -3.2890 C   0  0  0  0  0  0  0  0  0  0  0  0
    9.0285   21.8624   -4.6212 C   0  0  0  0  0  0  0  0  0  0  0  0
    7.8975   21.6424   -5.4322 N   0  0  0  0  0  0  0  0  0  0  0  0
    7.9907   22.5365   -2.4412 N   0  0  0  0  0  0  0  0  0  0  0  0
    8.5288   22.8868   -1.2384 C   0  0  0  0  0  0  0  0  0  0  0  0
    9.8624   22.8159   -1.3417 N   0  0  0  0  0  0  0  0  0  0  0  0
   18.4509   21.1653   -2.8726 N   0  0  0  0  0  0  0  0  0  0  0  0
   18.1509   22.0879   -1.9212 C   0  0  0  0  0  0  0  0  0  0  0  0
   17.8782   23.3747   -2.2914 N   0  0  0  0  0  0  0  0  0  0  0  0
   17.9011   23.7295   -3.6045 C   0  0  0  0  0  0  0  0  0  0  0  0
   18.1934   22.8182   -4.5544 C   0  0  0  0  0  0  0  0  0  0  0  0
   18.4738   21.5107   -4.1682 C   0  0  0  0  0  0  0  0  0  0  0  0
   18.8261   20.3902   -5.0021 N   0  0  0  0  0  0  0  0  0  0  0  0
   18.1441   23.4507   -5.7513 N   0  0  0  0  0  0  0  0  0  0  0  0
   17.8140   24.7556   -5.5318 C   0  0  0  0  0  0  0  0  0  0  0  0
   17.6630   24.9171   -4.2017 N   0  0  0  0  0  0  0  0  0  0  0  0
  1  3  1  1  0  0  0
  1  5  2  0  0  0  0
  1  9  1  0  0  0  0
  1 18  1  0  0  0  0
  2  4  1  6  0  0  0
  2  6  2  0  0  0  0
  2 10  1  0  0  0  0
  2 17  1  0  0  0  0
  7  9  1  0  0  0  0
  8 10  1  0  0  0  0
 11  7  1  6  0  0  0
 11 13  1  0  0  0  0
 11 15  1  0  0  0  0
 12  8  1  1  0  0  0
 12 14  1  0  0  0  0
 12 16  1  0  0  0  0
 13 23  1  0  0  0  0
 14 24  1  0  0  0  0
 15 17  1  1  0  0  0
 15 19  1  0  0  0  0
 16 18  1  6  0  0  0
 16 20  1  0  0  0  0
 19 21  1  1  0  0  0
 19 23  1  0  0  0  0
 20 22  1  1  0  0  0
 20 24  1  0  0  0  0
 23 34  1  6  0  0  0
 24 44  1  6  0  0  0
 25 26  2  0  0  0  0
 25 30  1  0  0  0  0
 26 27  1  0  0  0  0
 27 28  2  0  0  0  0
 28 29  1  0  0  0  0
 28 34  1  0  0  0  0
 29 30  2  0  0  0  0
 29 32  1  0  0  0  0
 30 31  1  0  0  0  0
 32 33  2  0  0  0  0
 33 34  1  0  0  0  0
 35 36  2  0  0  0  0
 35 40  1  0  0  0  0
 36 37  1  0  0  0  0
 37 38  2  0  0  0  0
 38 39  1  0  0  0  0
 38 44  1  0  0  0  0
 39 40  2  0  0  0  0
 39 42  1  0  0  0  0
 40 41  1  0  0  0  0
 42 43  2  0  0  0  0
 43 44  1  0  0  0  0
M  CHG  2   3  -1   4  -1
M  END
>  <CHROM.1>
94.36731885,3.65021351,13.97162011,24.15860442,-2.29493818,3.02027727,-0.16506320
-3.01761220

>  <Name>
ligand

>  <RI>
0

>  <Rbt.Current_Directory>
/home/itssahil/PROJECTS/Mol_Feturizer/New_Systems/rnas/4QLM

>  <Rbt.Executable>
rbdock ($Id: //depot/dev/client3/rdock/2013.1/src/exe/rbdock.cxx#4 $)

>  <Rbt.Library>
libRbt.so (2013.1, Build901 2013/11/27)

>  <Rbt.Parameter_File>
/export/apps/rDock/src/rDock_2013.1_src/data/scripts/dock_solv.prm

>  <Rbt.Receptor>
prm/blind_docking_80.prm

>  <SCORE>
32.5726

>  <SCORE.INTER>
25.2584

>  <SCORE.INTER.CONST>
1

>  <SCORE.INTER.POLAR>
0

>  <SCORE.INTER.ROT>
2

>  <SCORE.INTER.SOLV>
50.7773

>  <SCORE.INTER.VDW>
-5.02015

>  <SCORE.INTER.norm>
0.574055

>  <SCORE.INTRA>
-0.885369

>  <SCORE.INTRA.DIHEDRAL>
-0.031376

>  <SCORE.INTRA.DIHEDRAL.0>
2.32994

>  <SCORE.INTRA.POLAR>
0

>  <SCORE.INTRA.POLAR.0>
0

>  <SCORE.INTRA.REPUL>
0

>  <SCORE.INTRA.REPUL.0>
0

>  <SCORE.INTRA.SOLV>
0.89117

>  <SCORE.INTRA.SOLV.lig_0>
-117.703

>  <SCORE.INTRA.VDW>
-1.31527

>  <SCORE.INTRA.VDW.0>
-1.59997

>  <SCORE.INTRA.norm>
-0.020122

>  <SCORE.RESTR>
8.19954

>  <SCORE.RESTR.CAVITY>
8.19954

>  <SCORE.RESTR.norm>
0.186353

>  <SCORE.SYSTEM>
0

>  <SCORE.SYSTEM.CONST>
0

>  <SCORE.SYSTEM.DIHEDRAL>
0

>  <SCORE.SYSTEM.SOLV>
0

>  <SCORE.SYSTEM.norm>
0

>  <SCORE.heavy>
44

>  <SCORE.norm>
0.740287

>  <RMSD>
26.762

$$$$
ligand
 OpenBabel11021811513D
libRbt.so/2013.1/901 2013/11/27
 44 50  0  0  0  0  0  0  0  0999 V2000
   12.9845   27.2348   -2.8096 P   0  0  2  0  0  0  0  0  0  0  0  0
   15.1894   23.3003    0.1676 P   0  0  1  0  0  0  0  0  0  0  0  0
   12.1445   28.3969   -2.2858 O   0  5  0  0  0  0  0  0  0  0  0  0
   14.9390   22.0348   -0.6157 O   0  5  0  0  0  0  0  0  0  0  0  0
   12.5542   27.0180   -4.2405 O   0  0  0  0  0  0  0  0  0  0  0  0
   16.2221   22.9649    1.2677 O   0  0  0  0  0  0  0  0  0  0  0  0
   12.3032   26.3899   -0.5154 C   0  0  0  0  0  0  0  0  0  0  0  0
   15.7680   25.7507   -0.4062 C   0  0  0  0  0  0  0  0  0  0  0  0
   12.6560   26.0377   -1.8600 O   0  0  0  0  0  0  0  0  0  0  0  0
   15.5947   24.4190   -0.9677 O   0  0  0  0  0  0  0  0  0  0  0  0
   11.9633   25.1365    0.2839 C   0  0  1  0  0  0  0  0  0  0  0  0
   16.2842   26.6610   -1.5837 C   0  0  1  0  0  0  0  0  0  0  0  0
   10.7184   24.8439    0.0669 O   0  0  0  0  0  0  0  0  0  0  0  0
   17.2740   26.0367   -2.0782 O   0  0  0  0  0  0  0  0  0  0  0  0
   12.7709   23.9280   -0.1303 C   0  0  1  0  0  0  0  0  0  0  0  0
   15.2782   26.6754   -2.7519 C   0  0  1  0  0  0  0  0  0  0  0  0
   13.7698   23.7963    0.7825 O   0  0  0  0  0  0  0  0  0  0  0  0
   14.5452   27.7955   -2.7510 O   0  0  0  0  0  0  0  0  0  0  0  0
   11.7530   22.7419    0.0013 C   0  0  1  0  0  0  0  0  0  0  0  0
   16.0996   26.5459   -4.0548 C   0  0  1  0  0  0  0  0  0  0  0  0
   12.0041   21.9904    1.2605 O   0  0  0  0  0  0  0  0  0  0  0  0
   16.2272   27.8779   -4.7292 O   0  0  0  0  0  0  0  0  0  0  0  0
   10.5697   23.2669    0.0010 C   0  0  2  0  0  0  0  0  0  0  0  0
   17.2628   26.1409   -3.6753 C   0  0  2  0  0  0  0  0  0  0  0  0
   10.1184   21.6556   -5.1001 N   0  0  0  0  0  0  0  0  0  0  0  0
   11.2884   21.8566   -4.4307 C   0  0  0  0  0  0  0  0  0  0  0  0
   11.2963   22.2693   -3.1226 N   0  0  0  0  0  0  0  0  0  0  0  0
   10.1045   22.4832   -2.4870 C   0  0  0  0  0  0  0  0  0  0  0  0
    8.9458   22.2968   -3.1344 C   0  0  0  0  0  0  0  0  0  0  0  0
    8.9465   21.8681   -4.4606 C   0  0  0  0  0  0  0  0  0  0  0  0
    7.8032   21.6355   -5.2504 N   0  0  0  0  0  0  0  0  0  0  0  0
    7.9425   22.5733   -2.2747 N   0  0  0  0  0  0  0  0  0  0  0  0
    8.4992   22.9415   -1.0857 C   0  0  0  0  0  0  0  0  0  0  0  0
    9.8310   22.8700   -1.2089 N   0  0  0  0  0  0  0  0  0  0  0  0
   18.5495   21.1689   -2.8127 N   0  0  0  0  0  0  0  0  0  0  0  0
   18.2985   22.1196   -1.8749 C   0  0  0  0  0  0  0  0  0  0  0  0
   17.9787   23.3884   -2.2689 N   0  0  0  0  0  0  0  0  0  0  0  0
   17.9062   23.6972   -3.5918 C   0  0  0  0  0  0  0  0  0  0  0  0
   18.1495   22.7578   -4.5280 C   0  0  0  0  0  0  0  0  0  0  0  0
   18.4784   21.4691   -4.1178 C   0  0  0  0  0  0  0  0  0  0  0  0
   18.7930   20.3255   -4.9353 N   0  0  0  0  0  0  0  0  0  0  0  0
   18.0080   23.3472   -5.7395 N   0  0  0  0  0  0  0  0  0  0  0  0
   17.6707   24.6538   -5.5423 C   0  0  0  0  0  0  0  0  0  0  0  0
   17.6073   24.8594   -4.2112 N   0  0  0  0  0  0  0  0  0  0  0  0
  1  3  1  1  0  0  0
  1  5  2  0  0  0  0
  1  9  1  0  0  0  0
  1 18  1  0  0  0  0
  2  4  1  6  0  0  0
  2  6  2  0  0  0  0
  2 10  1  0  0  0  0
  2 17  1  0  0  0  0
  7  9  1  0  0  0  0
  8 10  1  0  0  0  0
 11  7  1  6  0  0  0
 11 13  1  0  0  0  0
 11 15  1  0  0  0  0
 12  8  1  1  0  0  0
 12 14  1  0  0  0  0
 12 16  1  0  0  0  0
 13 23  1  0  0  0  0
 14 24  1  0  0  0  0
 15 17  1  1  0  0  0
 15 19  1  0  0  0  0
 16 18  1  6  0  0  0
 16 20  1  0  0  0  0
 19 21  1  1  0  0  0
 19 23  1  0  0  0  0
 20 22  1  1  0  0  0
 20 24  1  0  0  0  0
 23 34  1  6  0  0  0
 24 44  1  6  0  0  0
 25 26  2  0  0  0  0
 25 30  1  0  0  0  0
 26 27  1  0  0  0  0
 27 28  2  0  0  0  0
 28 29  1  0  0  0  0
 28 34  1  0  0  0  0
 29 30  2  0  0  0  0
 29 32  1  0  0  0  0
 30 31  1  0  0  0  0
 32 33  2  0  0  0  0
 33 34  1  0  0  0  0
 35 36  2  0  0  0  0
 35 40  1  0  0  0  0
 36 37  1  0  0  0  0
 37 38  2  0  0  0  0
 38 39  1  0  0  0  0
 38 44  1  0  0  0  0
 39 40  2  0  0  0  0
 39 42  1  0  0  0  0
 40 41  1  0  0  0  0
 42 43  2  0  0  0  0
 43 44  1  0  0  0  0
M  CHG  2   3  -1   4  -1
M  END
>  <CHROM.1>
93.82300280,0.11735867,13.94886222,24.16892998,-2.24163339,3.03290393,-0.17310042
-3.04557698

>  <Name>
ligand

>  <RI>
0

>  <Rbt.Current_Directory>
/home/itssahil/PROJECTS/Mol_Feturizer/New_Systems/rnas/4QLM

>  <Rbt.Executable>
rbdock ($Id: //depot/dev/client3/rdock/2013.1/src/exe/rbdock.cxx#4 $)

>  <Rbt.Library>
libRbt.so (2013.1, Build901 2013/11/27)

>  <Rbt.Parameter_File>
/export/apps/rDock/src/rDock_2013.1_src/data/scripts/dock_solv.prm

>  <Rbt.Receptor>
prm/blind_docking_40.prm

>  <SCORE>
28.6094

>  <SCORE.INTER>
23.9343

>  <SCORE.INTER.CONST>
1

>  <SCORE.INTER.POLAR>
0

>  <SCORE.INTER.ROT>
2

>  <SCORE.INTER.SOLV>
50.3748

>  <SCORE.INTER.VDW>
-5.76876

>  <SCORE.INTER.norm>
0.543961

>  <SCORE.INTRA>
-0.836576

>  <SCORE.INTRA.DIHEDRAL>
-0.0302632

>  <SCORE.INTRA.DIHEDRAL.0>
2.32994

>  <SCORE.INTRA.POLAR>
0

>  <SCORE.INTRA.POLAR.0>
0

>  <SCORE.INTRA.REPUL>
0

>  <SCORE.INTRA.REPUL.0>
0

>  <SCORE.INTRA.SOLV>
0.694171

>  <SCORE.INTRA.SOLV.lig_0>
-117.703

>  <SCORE.INTRA.VDW>
-1.16853

>  <SCORE.INTRA.VDW.0>
-1.59997

>  <SCORE.INTRA.norm>
-0.0190131

>  <SCORE.RESTR>
5.51165

>  <SCORE.RESTR.CAVITY>
5.51165

>  <SCORE.RESTR.norm>
0.125265

>  <SCORE.SYSTEM>
0

>  <SCORE.SYSTEM.CONST>
0

>  <SCORE.SYSTEM.DIHEDRAL>
0

>  <SCORE.SYSTEM.SOLV>
0

>  <SCORE.SYSTEM.norm>
0

>  <SCORE.heavy>
44

>  <SCORE.norm>
0.650213

>  <RMSD>
26.768

$$$$
ligand
 OpenBabel11021811513D
libRbt.so/2013.1/901 2013/11/27
 44 50  0  0  0  0  0  0  0  0999 V2000
   12.9824   27.2199   -2.8041 P   0  0  2  0  0  0  0  0  0  0  0  0
   15.1942   23.2866    0.1696 P   0  0  1  0  0  0  0  0  0  0  0  0
   12.1396   28.3796   -2.2795 O   0  5  0  0  0  0  0  0  0  0  0  0
   14.9469   22.0215   -0.6155 O   0  5  0  0  0  0  0  0  0  0  0  0
   12.5535   27.0040   -4.2355 O   0  0  0  0  0  0  0  0  0  0  0  0
   16.2269   22.9521    1.2699 O   0  0  0  0  0  0  0  0  0  0  0  0
   12.3016   26.3707   -0.5114 C   0  0  0  0  0  0  0  0  0  0  0  0
   15.7677   25.7390   -0.4009 C   0  0  0  0  0  0  0  0  0  0  0  0
   12.6560   26.0210   -1.8562 O   0  0  0  0  0  0  0  0  0  0  0  0
   15.5977   24.4076   -0.9642 O   0  0  0  0  0  0  0  0  0  0  0  0
   11.9639   25.1156    0.2862 C   0  0  1  0  0  0  0  0  0  0  0  0
   16.2826   26.6518   -1.5770 C   0  0  1  0  0  0  0  0  0  0  0  0
   10.7198   24.8206    0.0682 O   0  0  0  0  0  0  0  0  0  0  0  0
   17.2741   26.0303   -2.0717 O   0  0  0  0  0  0  0  0  0  0  0  0
   12.7744   23.9094   -0.1290 C   0  0  1  0  0  0  0  0  0  0  0  0
   15.2773   26.6654   -2.7457 C   0  0  1  0  0  0  0  0  0  0  0  0
   13.7730   23.7788    0.7842 O   0  0  0  0  0  0  0  0  0  0  0  0
   14.5419   27.7839   -2.7439 O   0  0  0  0  0  0  0  0  0  0  0  0
   11.7590   22.7210    0.0006 C   0  0  1  0  0  0  0  0  0  0  0  0
   16.0998   26.5393   -4.0484 C   0  0  1  0  0  0  0  0  0  0  0  0
   12.0111   21.9684    1.2590 O   0  0  0  0  0  0  0  0  0  0  0  0
   16.2248   27.8724   -4.7210 O   0  0  0  0  0  0  0  0  0  0  0  0
   10.5746   23.2433    0.0002 C   0  0  2  0  0  0  0  0  0  0  0  0
   17.2636   26.1364   -3.6687 C   0  0  2  0  0  0  0  0  0  0  0  0
   10.1294   21.6517   -5.1076 N   0  0  0  0  0  0  0  0  0  0  0  0
   11.2986   21.8586   -4.4387 C   0  0  0  0  0  0  0  0  0  0  0  0
   11.3050   22.2654   -3.1288 N   0  0  0  0  0  0  0  0  0  0  0  0
   10.1124   22.4674   -2.4908 C   0  0  0  0  0  0  0  0  0  0  0  0
    8.9544   22.2751   -3.1376 C   0  0  0  0  0  0  0  0  0  0  0  0
    8.9567   21.8524   -4.4658 C   0  0  0  0  0  0  0  0  0  0  0  0
    7.8142   21.6147   -5.2553 N   0  0  0  0  0  0  0  0  0  0  0  0
    7.9500   22.5401   -2.2755 N   0  0  0  0  0  0  0  0  0  0  0  0
    8.5053   22.9072   -1.0855 C   0  0  0  0  0  0  0  0  0  0  0  0
    9.8375   22.8463   -1.2106 N   0  0  0  0  0  0  0  0  0  0  0  0
   18.4895   21.1478   -2.8136 N   0  0  0  0  0  0  0  0  0  0  0  0
   18.2229   22.0933   -1.8748 C   0  0  0  0  0  0  0  0  0  0  0  0
   17.9229   23.3676   -2.2666 N   0  0  0  0  0  0  0  0  0  0  0  0
   17.8856   23.6871   -3.5884 C   0  0  0  0  0  0  0  0  0  0  0  0
   18.1446   22.7529   -4.5257 C   0  0  0  0  0  0  0  0  0  0  0  0
   18.4532   21.4585   -4.1176 C   0  0  0  0  0  0  0  0  0  0  0  0
   18.7789   20.3187   -4.9360 N   0  0  0  0  0  0  0  0  0  0  0  0
   18.0377   23.3526   -5.7356 N   0  0  0  0  0  0  0  0  0  0  0  0
   17.7058   24.6603   -5.5366 C   0  0  0  0  0  0  0  0  0  0  0  0
   17.6112   24.8563   -4.2059 N   0  0  0  0  0  0  0  0  0  0  0  0
  1  3  1  1  0  0  0
  1  5  2  0  0  0  0
  1  9  1  0  0  0  0
  1 18  1  0  0  0  0
  2  4  1  6  0  0  0
  2  6  2  0  0  0  0
  2 10  1  0  0  0  0
  2 17  1  0  0  0  0
  7  9  1  0  0  0  0
  8 10  1  0  0  0  0
 11  7  1  6  0  0  0
 11 13  1  0  0  0  0
 11 15  1  0  0  0  0
 12  8  1  1  0  0  0
 12 14  1  0  0  0  0
 12 16  1  0  0  0  0
 13 23  1  0  0  0  0
 14 24  1  0  0  0  0
 15 17  1  1  0  0  0
 15 19  1  0  0  0  0
 16 18  1  6  0  0  0
 16 20  1  0  0  0  0
 19 21  1  1  0  0  0
 19 23  1  0  0  0  0
 20 22  1  1  0  0  0
 20 24  1  0  0  0  0
 23 34  1  6  0  0  0
 24 44  1  6  0  0  0
 25 26  2  0  0  0  0
 25 30  1  0  0  0  0
 26 27  1  0  0  0  0
 27 28  2  0  0  0  0
 28 29  1  0  0  0  0
 28 34  1  0  0  0  0
 29 30  2  0  0  0  0
 29 32  1  0  0  0  0
 30 31  1  0  0  0  0
 32 33  2  0  0  0  0
 33 34  1  0  0  0  0
 35 36  2  0  0  0  0
 35 40  1  0  0  0  0
 36 37  1  0  0  0  0
 37 38  2  0  0  0  0
 38 39  1  0  0  0  0
 38 44  1  0  0  0  0
 39 40  2  0  0  0  0
 39 42  1  0  0  0  0
 40 41  1  0  0  0  0
 42 43  2  0  0  0  0
 43 44  1  0  0  0  0
M  CHG  2   3  -1   4  -1
M  END
>  <CHROM.1>
93.44595332,1.66116218,13.94759955,24.15505103,-2.23980926,3.02905512,-0.17396857
-3.04415096

>  <Name>
ligand

>  <RI>
0

>  <Rbt.Current_Directory>
/home/itssahil/PROJECTS/Mol_Feturizer/New_Systems/rnas/4QLM

>  <Rbt.Executable>
rbdock ($Id: //depot/dev/client3/rdock/2013.1/src/exe/rbdock.cxx#4 $)

>  <Rbt.Library>
libRbt.so (2013.1, Build901 2013/11/27)

>  <Rbt.Parameter_File>
/export/apps/rDock/src/rDock_2013.1_src/data/scripts/dock_solv.prm

>  <Rbt.Receptor>
prm/blind_docking_40.prm

>  <SCORE>
28.7822

>  <SCORE.INTER>
24.2055

>  <SCORE.INTER.CONST>
1

>  <SCORE.INTER.POLAR>
0

>  <SCORE.INTER.ROT>
2

>  <SCORE.INTER.SOLV>
50.4726

>  <SCORE.INTER.VDW>
-5.62051

>  <SCORE.INTER.norm>
0.550126

>  <SCORE.INTRA>
-0.868203

>  <SCORE.INTRA.DIHEDRAL>
-0.0317069

>  <SCORE.INTRA.DIHEDRAL.0>
2.32994

>  <SCORE.INTRA.POLAR>
0

>  <SCORE.INTRA.POLAR.0>
0

>  <SCORE.INTRA.REPUL>
0

>  <SCORE.INTRA.REPUL.0>
0

>  <SCORE.INTRA.SOLV>
0.78283

>  <SCORE.INTRA.SOLV.lig_0>
-117.703

>  <SCORE.INTRA.VDW>
-1.24376

>  <SCORE.INTRA.VDW.0>
-1.59997

>  <SCORE.INTRA.norm>
-0.0197319

>  <SCORE.RESTR>
5.44486

>  <SCORE.RESTR.CAVITY>
5.44486

>  <SCORE.RESTR.norm>
0.123747

>  <SCORE.SYSTEM>
0

>  <SCORE.SYSTEM.CONST>
0

>  <SCORE.SYSTEM.DIHEDRAL>
0

>  <SCORE.SYSTEM.SOLV>
0

>  <SCORE.SYSTEM.norm>
0

>  <SCORE.heavy>
44

>  <SCORE.norm>
0.654141

>  <RMSD>
26.773

$$$$
ligand
 OpenBabel11021811513D
libRbt.so/2013.1/901 2013/11/27
 44 50  0  0  0  0  0  0  0  0999 V2000
   13.3597   27.2392   -2.7844 P   0  0  2  0  0  0  0  0  0  0  0  0
   15.3319   23.4406    0.5151 P   0  0  1  0  0  0  0  0  0  0  0  0
   12.4903   28.4250   -2.3741 O   0  5  0  0  0  0  0  0  0  0  0  0
   15.1313   22.1412   -0.2261 O   0  5  0  0  0  0  0  0  0  0  0  0
   13.0300   26.9584   -4.2308 O   0  0  0  0  0  0  0  0  0  0  0  0
   16.2831   23.1539    1.6991 O   0  0  0  0  0  0  0  0  0  0  0  0
   12.5150   26.5000   -0.5081 C   0  0  0  0  0  0  0  0  0  0  0  0
   15.9605   25.8616   -0.1265 C   0  0  0  0  0  0  0  0  0  0  0  0
   12.9598   26.0868   -1.8073 O   0  0  0  0  0  0  0  0  0  0  0  0
   15.8211   24.5061   -0.6382 O   0  0  0  0  0  0  0  0  0  0  0  0
   12.1139   25.2846    0.3210 C   0  0  1  0  0  0  0  0  0  0  0  0
   16.5624   26.7169   -1.3046 C   0  0  1  0  0  0  0  0  0  0  0  0
   10.8861   24.9843    0.0303 O   0  0  0  0  0  0  0  0  0  0  0  0
   17.5816   26.0694   -1.6996 O   0  0  0  0  0  0  0  0  0  0  0  0
   12.9431   24.0574    0.0196 C   0  0  1  0  0  0  0  0  0  0  0  0
   15.6410   26.6797   -2.5402 C   0  0  1  0  0  0  0  0  0  0  0  0
   13.8748   23.9659    1.0054 O   0  0  0  0  0  0  0  0  0  0  0  0
   14.9150   27.7997   -2.6414 O   0  0  0  0  0  0  0  0  0  0  0  0
   11.9131   22.8800    0.1326 C   0  0  1  0  0  0  0  0  0  0  0  0
   16.5514   26.4902   -3.7749 C   0  0  1  0  0  0  0  0  0  0  0  0
   12.0717   22.1860    1.4389 O   0  0  0  0  0  0  0  0  0  0  0  0
   16.7321   27.7901   -4.4980 O   0  0  0  0  0  0  0  0  0  0  0  0
   10.7351   23.4061    0.0253 C   0  0  2  0  0  0  0  0  0  0  0  0
   17.6832   26.1012   -3.2965 C   0  0  2  0  0  0  0  0  0  0  0  0
   10.6348   21.6498   -5.0468 N   0  0  0  0  0  0  0  0  0  0  0  0
   11.7566   21.9033   -4.3157 C   0  0  0  0  0  0  0  0  0  0  0  0
   11.6748   22.3500   -3.0213 N   0  0  0  0  0  0  0  0  0  0  0  0
   10.4416   22.5443   -2.4631 C   0  0  0  0  0  0  0  0  0  0  0  0
    9.3293   22.3063   -3.1720 C   0  0  0  0  0  0  0  0  0  0  0  0
    9.4213   21.8435   -4.4835 C   0  0  0  0  0  0  0  0  0  0  0  0
    8.3342   21.5561   -5.3324 N   0  0  0  0  0  0  0  0  0  0  0  0
    8.2691   22.5748   -2.3808 N   0  0  0  0  0  0  0  0  0  0  0  0
    8.7432   22.9903   -1.1718 C   0  0  0  0  0  0  0  0  0  0  0  0
   10.0815   22.9558   -1.2145 N   0  0  0  0  0  0  0  0  0  0  0  0
   16.2780   21.5800   -5.4656 N   0  0  0  0  0  0  0  0  0  0  0  0
   15.4710   22.6395   -5.1959 C   0  0  0  0  0  0  0  0  0  0  0  0
   15.9976   23.7578   -4.6135 N   0  0  0  0  0  0  0  0  0  0  0  0
   17.3226   23.8133   -4.3104 C   0  0  0  0  0  0  0  0  0  0  0  0
   18.1303   22.7676   -4.5794 C   0  0  0  0  0  0  0  0  0  0  0  0
   17.5848   21.6309   -5.1690 C   0  0  0  0  0  0  0  0  0  0  0  0
   18.2496   20.4031   -5.5233 N   0  0  0  0  0  0  0  0  0  0  0  0
   19.3776   23.1038   -4.1717 N   0  0  0  0  0  0  0  0  0  0  0  0
   19.3329   24.3653   -3.6554 C   0  0  0  0  0  0  0  0  0  0  0  0
   18.0586   24.7963   -3.7485 N   0  0  0  0  0  0  0  0  0  0  0  0
  1  3  1  1  0  0  0
  1  5  2  0  0  0  0
  1  9  1  0  0  0  0
  1 18  1  0  0  0  0
  2  4  1  6  0  0  0
  2  6  2  0  0  0  0
  2 10  1  0  0  0  0
  2 17  1  0  0  0  0
  7  9  1  0  0  0  0
  8 10  1  0  0  0  0
 11  7  1  6  0  0  0
 11 13  1  0  0  0  0
 11 15  1  0  0  0  0
 12  8  1  1  0  0  0
 12 14  1  0  0  0  0
 12 16  1  0  0  0  0
 13 23  1  0  0  0  0
 14 24  1  0  0  0  0
 15 17  1  1  0  0  0
 15 19  1  0  0  0  0
 16 18  1  6  0  0  0
 16 20  1  0  0  0  0
 19 21  1  1  0  0  0
 19 23  1  0  0  0  0
 20 22  1  1  0  0  0
 20 24  1  0  0  0  0
 23 34  1  6  0  0  0
 24 44  1  6  0  0  0
 25 26  2  0  0  0  0
 25 30  1  0  0  0  0
 26 27  1  0  0  0  0
 27 28  2  0  0  0  0
 28 29  1  0  0  0  0
 28 34  1  0  0  0  0
 29 30  2  0  0  0  0
 29 32  1  0  0  0  0
 30 31  1  0  0  0  0
 32 33  2  0  0  0  0
 33 34  1  0  0  0  0
 35 36  2  0  0  0  0
 35 40  1  0  0  0  0
 36 37  1  0  0  0  0
 37 38  2  0  0  0  0
 38 39  1  0  0  0  0
 38 44  1  0  0  0  0
 39 40  2  0  0  0  0
 39 42  1  0  0  0  0
 40 41  1  0  0  0  0
 42 43  2  0  0  0  0
 43 44  1  0  0  0  0
M  CHG  2   3  -1   4  -1
M  END
>  <CHROM.1>
91.59900953,102.97355953,14.06832026,24.23831387,-2.27133403,-0.00942915
0.29313803,0.83025808

>  <Name>
ligand

>  <RI>
0

>  <Rbt.Current_Directory>
/home/itssahil/PROJECTS/Mol_Feturizer/New_Systems/rnas/4QLM

>  <Rbt.Executable>
rbdock ($Id: //depot/dev/client3/rdock/2013.1/src/exe/rbdock.cxx#4 $)

>  <Rbt.Library>
libRbt.so (2013.1, Build901 2013/11/27)

>  <Rbt.Parameter_File>
/export/apps/rDock/src/rDock_2013.1_src/data/scripts/dock_solv.prm

>  <Rbt.Receptor>
prm/blind_docking_40.prm

>  <SCORE>
22.2574

>  <SCORE.INTER>
16.9399

>  <SCORE.INTER.CONST>
1

>  <SCORE.INTER.POLAR>
0

>  <SCORE.INTER.ROT>
2

>  <SCORE.INTER.SOLV>
51.8449

>  <SCORE.INTER.VDW>
-10.9217

>  <SCORE.INTER.norm>
0.384998

>  <SCORE.INTRA>
-0.427254

>  <SCORE.INTRA.DIHEDRAL>
-0.0245471

>  <SCORE.INTRA.DIHEDRAL.0>
2.32994

>  <SCORE.INTRA.POLAR>
0

>  <SCORE.INTRA.POLAR.0>
0

>  <SCORE.INTRA.REPUL>
0

>  <SCORE.INTRA.REPUL.0>
0

>  <SCORE.INTRA.SOLV>
0.0309874

>  <SCORE.INTRA.SOLV.lig_0>
-117.703

>  <SCORE.INTRA.VDW>
-0.430474

>  <SCORE.INTRA.VDW.0>
-1.59997

>  <SCORE.INTRA.norm>
-0.00971031

>  <SCORE.RESTR>
5.74477

>  <SCORE.RESTR.CAVITY>
5.74477

>  <SCORE.RESTR.norm>
0.130563

>  <SCORE.SYSTEM>
0

>  <SCORE.SYSTEM.CONST>
0

>  <SCORE.SYSTEM.DIHEDRAL>
0

>  <SCORE.SYSTEM.SOLV>
0

>  <SCORE.SYSTEM.norm>
0

>  <SCORE.heavy>
44

>  <SCORE.norm>
0.505851

>  <RMSD>
26.781

$$$$
ligand
 OpenBabel11021811513D
libRbt.so/2013.1/901 2013/11/27
 44 50  0  0  0  0  0  0  0  0999 V2000
   13.3645   27.2420   -2.7797 P   0  0  2  0  0  0  0  0  0  0  0  0
   15.3327   23.4389    0.5169 P   0  0  1  0  0  0  0  0  0  0  0  0
   12.4977   28.4294   -2.3682 O   0  5  0  0  0  0  0  0  0  0  0  0
   15.1290   22.1401   -0.2244 O   0  5  0  0  0  0  0  0  0  0  0  0
   13.0330   26.9622   -4.2259 O   0  0  0  0  0  0  0  0  0  0  0  0
   16.2845   23.1501    1.7000 O   0  0  0  0  0  0  0  0  0  0  0  0
   12.5205   26.5039   -0.5029 C   0  0  0  0  0  0  0  0  0  0  0  0
   15.9653   25.8590   -0.1246 C   0  0  0  0  0  0  0  0  0  0  0  0
   12.9634   26.0902   -1.8025 O   0  0  0  0  0  0  0  0  0  0  0  0
   15.8228   24.5039   -0.6365 O   0  0  0  0  0  0  0  0  0  0  0  0
   12.1180   25.2890    0.3263 C   0  0  1  0  0  0  0  0  0  0  0  0
   16.5676   26.7134   -1.3030 C   0  0  1  0  0  0  0  0  0  0  0  0
   10.8893   24.9910    0.0367 O   0  0  0  0  0  0  0  0  0  0  0  0
   17.5853   26.0642   -1.6991 O   0  0  0  0  0  0  0  0  0  0  0  0
   12.9447   24.0603    0.0238 C   0  0  1  0  0  0  0  0  0  0  0  0
   15.6450   26.6783   -2.5377 C   0  0  1  0  0  0  0  0  0  0  0  0
   13.8771   23.9668    1.0088 O   0  0  0  0  0  0  0  0  0  0  0  0
   14.9210   27.7997   -2.6380 O   0  0  0  0  0  0  0  0  0  0  0  0
   11.9125   22.8848    0.1374 C   0  0  1  0  0  0  0  0  0  0  0  0
   16.5539   26.4874   -3.7733 C   0  0  1  0  0  0  0  0  0  0  0  0
   12.0710   22.1901    1.4435 O   0  0  0  0  0  0  0  0  0  0  0  0
   16.7364   27.7872   -4.4962 O   0  0  0  0  0  0  0  0  0  0  0  0
   10.7355   23.4131    0.0314 C   0  0  2  0  0  0  0  0  0  0  0  0
   17.6854   26.0962   -3.2962 C   0  0  2  0  0  0  0  0  0  0  0  0
   10.6274   21.6526   -5.0391 N   0  0  0  0  0  0  0  0  0  0  0  0
   11.7503   21.9021   -4.3083 C   0  0  0  0  0  0  0  0  0  0  0  0
   11.6705   22.3503   -3.0144 N   0  0  0  0  0  0  0  0  0  0  0  0
   10.4381   22.5503   -2.4562 C   0  0  0  0  0  0  0  0  0  0  0  0
    9.3248   22.3161   -3.1648 C   0  0  0  0  0  0  0  0  0  0  0  0
    9.4147   21.8518   -4.4759 C   0  0  0  0  0  0  0  0  0  0  0  0
    8.3264   21.5681   -5.3244 N   0  0  0  0  0  0  0  0  0  0  0  0
    8.2657   22.5896   -2.3737 N   0  0  0  0  0  0  0  0  0  0  0  0
    8.7417   23.0044   -1.1651 C   0  0  0  0  0  0  0  0  0  0  0  0
   10.0799   22.9643   -1.2079 N   0  0  0  0  0  0  0  0  0  0  0  0
   16.2703   21.5791   -5.4671 N   0  0  0  0  0  0  0  0  0  0  0  0
   15.4656   22.6400   -5.1967 C   0  0  0  0  0  0  0  0  0  0  0  0
   15.9947   23.7570   -4.6139 N   0  0  0  0  0  0  0  0  0  0  0  0
   17.3198   23.8095   -4.3111 C   0  0  0  0  0  0  0  0  0  0  0  0
   18.1253   22.7622   -4.5807 C   0  0  0  0  0  0  0  0  0  0  0  0
   17.5773   21.6270   -5.1708 C   0  0  0  0  0  0  0  0  0  0  0  0
   18.2394   20.3980   -5.5258 N   0  0  0  0  0  0  0  0  0  0  0  0
   19.3733   23.0957   -4.1731 N   0  0  0  0  0  0  0  0  0  0  0  0
   19.3314   24.3570   -3.6561 C   0  0  0  0  0  0  0  0  0  0  0  0
   18.0580   24.7907   -3.7488 N   0  0  0  0  0  0  0  0  0  0  0  0
  1  3  1  1  0  0  0
  1  5  2  0  0  0  0
  1  9  1  0  0  0  0
  1 18  1  0  0  0  0
  2  4  1  6  0  0  0
  2  6  2  0  0  0  0
  2 10  1  0  0  0  0
  2 17  1  0  0  0  0
  7  9  1  0  0  0  0
  8 10  1  0  0  0  0
 11  7  1  6  0  0  0
 11 13  1  0  0  0  0
 11 15  1  0  0  0  0
 12  8  1  1  0  0  0
 12 14  1  0  0  0  0
 12 16  1  0  0  0  0
 13 23  1  0  0  0  0
 14 24  1  0  0  0  0
 15 17  1  1  0  0  0
 15 19  1  0  0  0  0
 16 18  1  6  0  0  0
 16 20  1  0  0  0  0
 19 21  1  1  0  0  0
 19 23  1  0  0  0  0
 20 22  1  1  0  0  0
 20 24  1  0  0  0  0
 23 34  1  6  0  0  0
 24 44  1  6  0  0  0
 25 26  2  0  0  0  0
 25 30  1  0  0  0  0
 26 27  1  0  0  0  0
 27 28  2  0  0  0  0
 28 29  1  0  0  0  0
 28 34  1  0  0  0  0
 29 30  2  0  0  0  0
 29 32  1  0  0  0  0
 30 31  1  0  0  0  0
 32 33  2  0  0  0  0
 33 34  1  0  0  0  0
 35 36  2  0  0  0  0
 35 40  1  0  0  0  0
 36 37  1  0  0  0  0
 37 38  2  0  0  0  0
 38 39  1  0  0  0  0
 38 44  1  0  0  0  0
 39 40  2  0  0  0  0
 39 42  1  0  0  0  0
 40 41  1  0  0  0  0
 42 43  2  0  0  0  0
 43 44  1  0  0  0  0
M  CHG  2   3  -1   4  -1
M  END
>  <CHROM.1>
91.75134151,103.01982214,14.06812382,24.23940780,-2.26813688,-0.01124418
0.29256904,0.83063072

>  <Name>
ligand

>  <RI>
0

>  <Rbt.Current_Directory>
/home/itssahil/PROJECTS/Mol_Feturizer/New_Systems/rnas/4QLM

>  <Rbt.Executable>
rbdock ($Id: //depot/dev/client3/rdock/2013.1/src/exe/rbdock.cxx#4 $)

>  <Rbt.Library>
libRbt.so (2013.1, Build901 2013/11/27)

>  <Rbt.Parameter_File>
/export/apps/rDock/src/rDock_2013.1_src/data/scripts/dock_solv.prm

>  <Rbt.Receptor>
prm/blind_docking_40.prm

>  <SCORE>
22.2256

>  <SCORE.INTER>
16.8991

>  <SCORE.INTER.CONST>
1

>  <SCORE.INTER.POLAR>
0

>  <SCORE.INTER.ROT>
2

>  <SCORE.INTER.SOLV>
51.8074

>  <SCORE.INTER.VDW>
-10.9364

>  <SCORE.INTER.norm>
0.384072

>  <SCORE.INTRA>
-0.424128

>  <SCORE.INTRA.DIHEDRAL>
-0.0244181

>  <SCORE.INTRA.DIHEDRAL.0>
2.32994

>  <SCORE.INTRA.POLAR>
0

>  <SCORE.INTRA.POLAR.0>
0

>  <SCORE.INTRA.REPUL>
0

>  <SCORE.INTRA.REPUL.0>
0

>  <SCORE.INTRA.SOLV>
0.0310123

>  <SCORE.INTRA.SOLV.lig_0>
-117.703

>  <SCORE.INTRA.VDW>
-0.427425

>  <SCORE.INTRA.VDW.0>
-1.59997

>  <SCORE.INTRA.norm>
-0.00963928

>  <SCORE.RESTR>
5.75057

>  <SCORE.RESTR.CAVITY>
5.75057

>  <SCORE.RESTR.norm>
0.130695

>  <SCORE.SYSTEM>
0

>  <SCORE.SYSTEM.CONST>
0

>  <SCORE.SYSTEM.DIHEDRAL>
0

>  <SCORE.SYSTEM.SOLV>
0

>  <SCORE.SYSTEM.norm>
0

>  <SCORE.heavy>
44

>  <SCORE.norm>
0.505127

>  <RMSD>
26.782

$$$$
ligand
 OpenBabel11021811513D
libRbt.so/2013.1/901 2013/11/27
 44 50  0  0  0  0  0  0  0  0999 V2000
   13.0014   27.2479   -2.7504 P   0  0  2  0  0  0  0  0  0  0  0  0
   15.1902   23.2786    0.1924 P   0  0  1  0  0  0  0  0  0  0  0  0
   12.1643   28.4076   -2.2168 O   0  5  0  0  0  0  0  0  0  0  0  0
   14.9368   22.0213   -0.6033 O   0  5  0  0  0  0  0  0  0  0  0  0
   12.5723   27.0460   -4.1838 O   0  0  0  0  0  0  0  0  0  0  0  0
   16.2203   22.9296    1.2905 O   0  0  0  0  0  0  0  0  0  0  0  0
   12.3144   26.3835   -0.4652 C   0  0  0  0  0  0  0  0  0  0  0  0
   15.7771   25.7325   -0.3575 C   0  0  0  0  0  0  0  0  0  0  0  0
   12.6679   26.0429   -1.8126 O   0  0  0  0  0  0  0  0  0  0  0  0
   15.6004   24.4067   -0.9319 O   0  0  0  0  0  0  0  0  0  0  0  0
   11.9696   25.1236    0.3218 C   0  0  1  0  0  0  0  0  0  0  0  0
   16.2977   26.6522   -1.5257 C   0  0  1  0  0  0  0  0  0  0  0  0
   10.7241   24.8370    0.1005 O   0  0  0  0  0  0  0  0  0  0  0  0
   17.2862   26.0295   -2.0249 O   0  0  0  0  0  0  0  0  0  0  0  0
   12.7740   23.9166   -0.1028 C   0  0  1  0  0  0  0  0  0  0  0  0
   15.2932   26.6808   -2.6950 C   0  0  1  0  0  0  0  0  0  0  0  0
   13.7712   23.7732    0.8100 O   0  0  0  0  0  0  0  0  0  0  0  0
   14.5638   27.8031   -2.6845 O   0  0  0  0  0  0  0  0  0  0  0  0
   11.7522   22.7325    0.0164 C   0  0  1  0  0  0  0  0  0  0  0  0
   16.1160   26.5610   -3.9981 C   0  0  1  0  0  0  0  0  0  0  0  0
   11.9994   21.9683    1.2687 O   0  0  0  0  0  0  0  0  0  0  0  0
   16.2486   27.8989   -4.6596 O   0  0  0  0  0  0  0  0  0  0  0  0
   10.5706   23.2611    0.0195 C   0  0  2  0  0  0  0  0  0  0  0  0
   17.2774   26.1489   -3.6209 C   0  0  2  0  0  0  0  0  0  0  0  0
   10.1215   21.6587   -5.0846 N   0  0  0  0  0  0  0  0  0  0  0  0
   11.2907   21.8380   -4.4079 C   0  0  0  0  0  0  0  0  0  0  0  0
   11.2981   22.2505   -3.0997 N   0  0  0  0  0  0  0  0  0  0  0  0
   10.1065   22.4863   -2.4715 C   0  0  0  0  0  0  0  0  0  0  0  0
    8.9487   22.3213   -3.1261 C   0  0  0  0  0  0  0  0  0  0  0  0
    8.9497   21.8927   -4.4524 C   0  0  0  0  0  0  0  0  0  0  0  0
    7.8073   21.6813   -5.2493 N   0  0  0  0  0  0  0  0  0  0  0  0
    7.9452   22.6162   -2.2726 N   0  0  0  0  0  0  0  0  0  0  0  0
    8.5012   22.9740   -1.0801 C   0  0  0  0  0  0  0  0  0  0  0  0
    9.8322   22.8780   -1.1951 N   0  0  0  0  0  0  0  0  0  0  0  0
   18.5195   21.1578   -2.8044 N   0  0  0  0  0  0  0  0  0  0  0  0
   18.2652   22.0990   -1.8579 C   0  0  0  0  0  0  0  0  0  0  0  0
   17.9586   23.3747   -2.2401 N   0  0  0  0  0  0  0  0  0  0  0  0
   17.9026   23.6998   -3.5598 C   0  0  0  0  0  0  0  0  0  0  0  0
   18.1494   22.7699   -4.5046 C   0  0  0  0  0  0  0  0  0  0  0  0
   18.4647   21.4741   -4.1064 C   0  0  0  0  0  0  0  0  0  0  0  0
   18.7801   20.3381   -4.9342 N   0  0  0  0  0  0  0  0  0  0  0  0
   18.0251   23.3747   -5.7104 N   0  0  0  0  0  0  0  0  0  0  0  0
   17.6949   24.6812   -5.5011 C   0  0  0  0  0  0  0  0  0  0  0  0
   17.6187   24.8715   -4.1684 N   0  0  0  0  0  0  0  0  0  0  0  0
  1  3  1  1  0  0  0
  1  5  2  0  0  0  0
  1  9  1  0  0  0  0
  1 18  1  0  0  0  0
  2  4  1  6  0  0  0
  2  6  2  0  0  0  0
  2 10  1  0  0  0  0
  2 17  1  0  0  0  0
  7  9  1  0  0  0  0
  8 10  1  0  0  0  0
 11  7  1  6  0  0  0
 11 13  1  0  0  0  0
 11 15  1  0  0  0  0
 12  8  1  1  0  0  0
 12 14  1  0  0  0  0
 12 16  1  0  0  0  0
 13 23  1  0  0  0  0
 14 24  1  0  0  0  0
 15 17  1  1  0  0  0
 15 19  1  0  0  0  0
 16 18  1  6  0  0  0
 16 20  1  0  0  0  0
 19 21  1  1  0  0  0
 19 23  1  0  0  0  0
 20 22  1  1  0  0  0
 20 24  1  0  0  0  0
 23 34  1  6  0  0  0
 24 44  1  6  0  0  0
 25 26  2  0  0  0  0
 25 30  1  0  0  0  0
 26 27  1  0  0  0  0
 27 28  2  0  0  0  0
 28 29  1  0  0  0  0
 28 34  1  0  0  0  0
 29 30  2  0  0  0  0
 29 32  1  0  0  0  0
 30 31  1  0  0  0  0
 32 33  2  0  0  0  0
 33 34  1  0  0  0  0
 35 36  2  0  0  0  0
 35 40  1  0  0  0  0
 36 37  1  0  0  0  0
 37 38  2  0  0  0  0
 38 39  1  0  0  0  0
 38 44  1  0  0  0  0
 39 40  2  0  0  0  0
 39 42  1  0  0  0  0
 40 41  1  0  0  0  0
 42 43  2  0  0  0  0
 43 44  1  0  0  0  0
M  CHG  2   3  -1   4  -1
M  END
>  <CHROM.1>
94.89035957,0.72416099,13.95342840,24.17047004,-2.20944144,3.03491900,-0.17294826
-3.02879025

>  <Name>
ligand

>  <RI>
0

>  <Rbt.Current_Directory>
/home/itssahil/PROJECTS/Mol_Feturizer/New_Systems/rnas/4QLM

>  <Rbt.Executable>
rbdock ($Id: //depot/dev/client3/rdock/2013.1/src/exe/rbdock.cxx#4 $)

>  <Rbt.Library>
libRbt.so (2013.1, Build901 2013/11/27)

>  <Rbt.Parameter_File>
/export/apps/rDock/src/rDock_2013.1_src/data/scripts/dock_solv.prm

>  <Rbt.Receptor>
prm/blind_docking_40.prm

>  <SCORE>
28.0793

>  <SCORE.INTER>
23.2795

>  <SCORE.INTER.CONST>
1

>  <SCORE.INTER.POLAR>
0

>  <SCORE.INTER.ROT>
2

>  <SCORE.INTER.SOLV>
49.9532

>  <SCORE.INTER.VDW>
-6.0647

>  <SCORE.INTER.norm>
0.529081

>  <SCORE.INTRA>
-0.83615

>  <SCORE.INTRA.DIHEDRAL>
-0.0287942

>  <SCORE.INTRA.DIHEDRAL.0>
2.32994

>  <SCORE.INTRA.POLAR>
0

>  <SCORE.INTRA.POLAR.0>
0

>  <SCORE.INTRA.REPUL>
0

>  <SCORE.INTRA.REPUL.0>
0

>  <SCORE.INTRA.SOLV>
0.729649

>  <SCORE.INTRA.SOLV.lig_0>
-117.703

>  <SCORE.INTRA.VDW>
-1.18658

>  <SCORE.INTRA.VDW.0>
-1.59997

>  <SCORE.INTRA.norm>
-0.0190034

>  <SCORE.RESTR>
5.6359

>  <SCORE.RESTR.CAVITY>
5.6359

>  <SCORE.RESTR.norm>
0.128089

>  <SCORE.SYSTEM>
0

>  <SCORE.SYSTEM.CONST>
0

>  <SCORE.SYSTEM.DIHEDRAL>
0

>  <SCORE.SYSTEM.SOLV>
0

>  <SCORE.SYSTEM.norm>
0

>  <SCORE.heavy>
44

>  <SCORE.norm>
0.638166

>  <RMSD>
26.787

$$$$
ligand
 OpenBabel11021811513D
libRbt.so/2013.1/901 2013/11/27
 44 50  0  0  0  0  0  0  0  0999 V2000
   13.0013   27.2408   -2.7542 P   0  0  2  0  0  0  0  0  0  0  0  0
   15.1960   23.2739    0.1874 P   0  0  1  0  0  0  0  0  0  0  0  0
   12.1642   28.4003   -2.2199 O   0  5  0  0  0  0  0  0  0  0  0  0
   14.9423   22.0161   -0.6074 O   0  5  0  0  0  0  0  0  0  0  0  0
   12.5705   27.0381   -4.1869 O   0  0  0  0  0  0  0  0  0  0  0  0
   16.2277   22.9258    1.2844 O   0  0  0  0  0  0  0  0  0  0  0  0
   12.3177   26.3769   -0.4678 C   0  0  0  0  0  0  0  0  0  0  0  0
   15.7808   25.7279   -0.3642 C   0  0  0  0  0  0  0  0  0  0  0  0
   12.6697   26.0360   -1.8154 O   0  0  0  0  0  0  0  0  0  0  0  0
   15.6042   24.4018   -0.9378 O   0  0  0  0  0  0  0  0  0  0  0  0
   11.9745   25.1172    0.3202 C   0  0  1  0  0  0  0  0  0  0  0  0
   16.2994   26.6474   -1.5334 C   0  0  1  0  0  0  0  0  0  0  0  0
   10.7289   24.8298    0.1006 O   0  0  0  0  0  0  0  0  0  0  0  0
   17.2876   26.0251   -2.0336 O   0  0  0  0  0  0  0  0  0  0  0  0
   12.7790   23.9104   -0.1050 C   0  0  1  0  0  0  0  0  0  0  0  0
   15.2935   26.6750   -2.7014 C   0  0  1  0  0  0  0  0  0  0  0  0
   13.7775   23.7680    0.8066 O   0  0  0  0  0  0  0  0  0  0  0  0
   14.5634   27.7969   -2.6904 O   0  0  0  0  0  0  0  0  0  0  0  0
   11.7581   22.7259    0.0159 C   0  0  1  0  0  0  0  0  0  0  0  0
   16.1147   26.5552   -4.0055 C   0  0  1  0  0  0  0  0  0  0  0  0
   12.0072   21.9623    1.2683 O   0  0  0  0  0  0  0  0  0  0  0  0
   16.2457   27.8929   -4.6678 O   0  0  0  0  0  0  0  0  0  0  0  0
   10.5761   23.2538    0.0204 C   0  0  2  0  0  0  0  0  0  0  0  0
   17.2768   26.1438   -3.6297 C   0  0  2  0  0  0  0  0  0  0  0  0
   10.1213   21.6688   -5.0886 N   0  0  0  0  0  0  0  0  0  0  0  0
   11.2915   21.8547   -4.4154 C   0  0  0  0  0  0  0  0  0  0  0  0
   11.3004   22.2618   -3.1056 N   0  0  0  0  0  0  0  0  0  0  0  0
   10.1092   22.4856   -2.4721 C   0  0  0  0  0  0  0  0  0  0  0  0
    8.9504   22.3140   -3.1232 C   0  0  0  0  0  0  0  0  0  0  0  0
    8.9500   21.8910   -4.4513 C   0  0  0  0  0  0  0  0  0  0  0  0
    7.8064   21.6737   -5.2450 N   0  0  0  0  0  0  0  0  0  0  0  0
    7.9477   22.5975   -2.2650 N   0  0  0  0  0  0  0  0  0  0  0  0
    8.5051   22.9548   -1.0730 C   0  0  0  0  0  0  0  0  0  0  0  0
    9.8365   22.8698   -1.1931 N   0  0  0  0  0  0  0  0  0  0  0  0
   18.5024   21.1486   -2.8134 N   0  0  0  0  0  0  0  0  0  0  0  0
   18.2450   22.0891   -1.8671 C   0  0  0  0  0  0  0  0  0  0  0  0
   17.9436   23.3660   -2.2491 N   0  0  0  0  0  0  0  0  0  0  0  0
   17.8958   23.6931   -3.5686 C   0  0  0  0  0  0  0  0  0  0  0  0
   18.1456   22.7640   -4.5134 C   0  0  0  0  0  0  0  0  0  0  0  0
   18.4557   21.4668   -4.1153 C   0  0  0  0  0  0  0  0  0  0  0  0
   18.7729   20.3313   -4.9430 N   0  0  0  0  0  0  0  0  0  0  0  0
   18.0296   23.3708   -5.7189 N   0  0  0  0  0  0  0  0  0  0  0  0
   17.7013   24.6779   -5.5096 C   0  0  0  0  0  0  0  0  0  0  0  0
   17.6180   24.8663   -4.1771 N   0  0  0  0  0  0  0  0  0  0  0  0
  1  3  1  1  0  0  0
  1  5  2  0  0  0  0
  1  9  1  0  0  0  0
  1 18  1  0  0  0  0
  2  4  1  6  0  0  0
  2  6  2  0  0  0  0
  2 10  1  0  0  0  0
  2 17  1  0  0  0  0
  7  9  1  0  0  0  0
  8 10  1  0  0  0  0
 11  7  1  6  0  0  0
 11 13  1  0  0  0  0
 11 15  1  0  0  0  0
 12  8  1  1  0  0  0
 12 14  1  0  0  0  0
 12 16  1  0  0  0  0
 13 23  1  0  0  0  0
 14 24  1  0  0  0  0
 15 17  1  1  0  0  0
 15 19  1  0  0  0  0
 16 18  1  6  0  0  0
 16 20  1  0  0  0  0
 19 21  1  1  0  0  0
 19 23  1  0  0  0  0
 20 22  1  1  0  0  0
 20 24  1  0  0  0  0
 23 34  1  6  0  0  0
 24 44  1  6  0  0  0
 25 26  2  0  0  0  0
 25 30  1  0  0  0  0
 26 27  1  0  0  0  0
 27 28  2  0  0  0  0
 28 29  1  0  0  0  0
 28 34  1  0  0  0  0
 29 30  2  0  0  0  0
 29 32  1  0  0  0  0
 30 31  1  0  0  0  0
 32 33  2  0  0  0  0
 33 34  1  0  0  0  0
 35 36  2  0  0  0  0
 35 40  1  0  0  0  0
 36 37  1  0  0  0  0
 37 38  2  0  0  0  0
 38 39  1  0  0  0  0
 38 44  1  0  0  0  0
 39 40  2  0  0  0  0
 39 42  1  0  0  0  0
 40 41  1  0  0  0  0
 42 43  2  0  0  0  0
 43 44  1  0  0  0  0
M  CHG  2   3  -1   4  -1
M  END
>  <CHROM.1>
94.37508865,1.16416593,13.95408036,24.16508097,-2.21365753,3.03419965,-0.17430468
-3.03121442

>  <Name>
ligand

>  <RI>
0

>  <Rbt.Current_Directory>
/home/itssahil/PROJECTS/Mol_Feturizer/New_Systems/rnas/4QLM

>  <Rbt.Executable>
rbdock ($Id: //depot/dev/client3/rdock/2013.1/src/exe/rbdock.cxx#4 $)

>  <Rbt.Library>
libRbt.so (2013.1, Build901 2013/11/27)

>  <Rbt.Parameter_File>
/export/apps/rDock/src/rDock_2013.1_src/data/scripts/dock_solv.prm

>  <Rbt.Receptor>
prm/blind_docking_40.prm

>  <SCORE>
28.2438

>  <SCORE.INTER>
23.498

>  <SCORE.INTER.CONST>
1

>  <SCORE.INTER.POLAR>
0

>  <SCORE.INTER.ROT>
2

>  <SCORE.INTER.SOLV>
50.0019

>  <SCORE.INTER.VDW>
-5.93531

>  <SCORE.INTER.norm>
0.534045

>  <SCORE.INTRA>
-0.849661

>  <SCORE.INTRA.DIHEDRAL>
-0.0299589

>  <SCORE.INTRA.DIHEDRAL.0>
2.32994

>  <SCORE.INTRA.POLAR>
0

>  <SCORE.INTRA.POLAR.0>
0

>  <SCORE.INTRA.REPUL>
0

>  <SCORE.INTRA.REPUL.0>
0

>  <SCORE.INTRA.SOLV>
0.754837

>  <SCORE.INTRA.SOLV.lig_0>
-117.703

>  <SCORE.INTRA.VDW>
-1.2121

>  <SCORE.INTRA.VDW.0>
-1.59997

>  <SCORE.INTRA.norm>
-0.0193105

>  <SCORE.RESTR>
5.59551

>  <SCORE.RESTR.CAVITY>
5.59551

>  <SCORE.RESTR.norm>
0.127171

>  <SCORE.SYSTEM>
0

>  <SCORE.SYSTEM.CONST>
0

>  <SCORE.SYSTEM.DIHEDRAL>
0

>  <SCORE.SYSTEM.SOLV>
0

>  <SCORE.SYSTEM.norm>
0

>  <SCORE.heavy>
44

>  <SCORE.norm>
0.641906

>  <RMSD>
26.787

$$$$
ligand
 OpenBabel11021811513D
libRbt.so/2013.1/901 2013/11/27
 44 50  0  0  0  0  0  0  0  0999 V2000
   14.9246   23.3721    0.4825 P   0  0  2  0  0  0  0  0  0  0  0  0
   12.9814   27.1774   -2.8265 P   0  0  1  0  0  0  0  0  0  0  0  0
   16.0715   23.5427    1.4755 O   0  5  0  0  0  0  0  0  0  0  0  0
   12.7711   26.4738   -4.1451 O   0  5  0  0  0  0  0  0  0  0  0  0
   14.8888   21.9041    0.1317 O   0  0  0  0  0  0  0  0  0  0  0  0
   12.2576   28.5405   -2.9106 O   0  0  0  0  0  0  0  0  0  0  0  0
   16.0619   25.4652   -0.3931 C   0  0  0  0  0  0  0  0  0  0  0  0
   12.7120   26.5603   -0.3335 C   0  0  0  0  0  0  0  0  0  0  0  0
   15.2879   24.3029   -0.7192 O   0  0  0  0  0  0  0  0  0  0  0  0
   12.4794   26.0962   -1.6934 O   0  0  0  0  0  0  0  0  0  0  0  0
   16.3837   26.2540   -1.6580 C   0  0  1  0  0  0  0  0  0  0  0  0
   12.0563   25.4876    0.6156 C   0  0  1  0  0  0  0  0  0  0  0  0
   17.4440   25.7375   -2.1977 O   0  0  0  0  0  0  0  0  0  0  0  0
   10.8724   25.3364    0.1801 O   0  0  0  0  0  0  0  0  0  0  0  0
   15.2899   26.1839   -2.6986 C   0  0  1  0  0  0  0  0  0  0  0  0
   12.6785   24.0955    0.3879 C   0  0  1  0  0  0  0  0  0  0  0  0
   14.5816   27.3398   -2.5968 O   0  0  0  0  0  0  0  0  0  0  0  0
   13.5698   23.7974    1.3411 O   0  0  0  0  0  0  0  0  0  0  0  0
   16.0749   26.1439   -4.0560 C   0  0  1  0  0  0  0  0  0  0  0  0
   11.5141   23.0790    0.3737 C   0  0  1  0  0  0  0  0  0  0  0  0
   16.0583   27.4871   -4.6955 O   0  0  0  0  0  0  0  0  0  0  0  0
   11.4419   22.3457    1.6785 O   0  0  0  0  0  0  0  0  0  0  0  0
   17.2841   25.7775   -3.7745 C   0  0  2  0  0  0  0  0  0  0  0  0
   10.4520   23.7926    0.2201 C   0  0  2  0  0  0  0  0  0  0  0  0
   18.6449   20.5877   -3.5877 N   0  0  0  0  0  0  0  0  0  0  0  0
   18.5023   21.4111   -2.5112 C   0  0  0  0  0  0  0  0  0  0  0  0
   18.1486   22.7273   -2.6657 N   0  0  0  0  0  0  0  0  0  0  0  0
   17.9399   23.2148   -3.9263 C   0  0  0  0  0  0  0  0  0  0  0  0
   18.0834   22.4190   -4.9952 C   0  0  0  0  0  0  0  0  0  0  0  0
   18.4338   21.0803   -4.8288 C   0  0  0  0  0  0  0  0  0  0  0  0
   18.6155   20.1427   -5.8646 N   0  0  0  0  0  0  0  0  0  0  0  0
   17.8148   23.1526   -6.0961 N   0  0  0  0  0  0  0  0  0  0  0  0
   17.5096   24.4185   -5.6918 C   0  0  0  0  0  0  0  0  0  0  0  0
   17.5691   24.4547   -4.3541 N   0  0  0  0  0  0  0  0  0  0  0  0
    9.0551   20.2481   -3.3303 N   0  0  0  0  0  0  0  0  0  0  0  0
    9.8328   20.0413   -2.2354 C   0  0  0  0  0  0  0  0  0  0  0  0
   10.1141   21.0859   -1.4005 N   0  0  0  0  0  0  0  0  0  0  0  0
    9.6145   22.3242   -1.6601 C   0  0  0  0  0  0  0  0  0  0  0  0
    8.8383   22.5358   -2.7422 C   0  0  0  0  0  0  0  0  0  0  0  0
    8.5600   21.4671   -3.5894 C   0  0  0  0  0  0  0  0  0  0  0  0
    7.7782   21.4677   -4.7993 N   0  0  0  0  0  0  0  0  0  0  0  0
    8.4945   23.8461   -2.7441 N   0  0  0  0  0  0  0  0  0  0  0  0
    9.0597   24.4378   -1.6531 C   0  0  0  0  0  0  0  0  0  0  0  0
    9.7475   23.4879   -0.9878 N   0  0  0  0  0  0  0  0  0  0  0  0
  1  3  1  1  0  0  0
  1  5  2  0  0  0  0
  1  9  1  0  0  0  0
  1 18  1  0  0  0  0
  2  4  1  6  0  0  0
  2  6  2  0  0  0  0
  2 10  1  0  0  0  0
  2 17  1  0  0  0  0
  7  9  1  0  0  0  0
  8 10  1  0  0  0  0
 11  7  1  1  0  0  0
 11 13  1  0  0  0  0
 11 15  1  0  0  0  0
 12  8  1  6  0  0  0
 12 14  1  0  0  0  0
 12 16  1  0  0  0  0
 13 23  1  0  0  0  0
 14 24  1  0  0  0  0
 15 17  1  6  0  0  0
 15 19  1  0  0  0  0
 16 18  1  1  0  0  0
 16 20  1  0  0  0  0
 19 21  1  1  0  0  0
 19 23  1  0  0  0  0
 20 22  1  1  0  0  0
 20 24  1  0  0  0  0
 23 34  1  1  0  0  0
 24 44  1  6  0  0  0
 25 26  2  0  0  0  0
 25 30  1  0  0  0  0
 26 27  1  0  0  0  0
 27 28  2  0  0  0  0
 28 29  1  0  0  0  0
 28 34  1  0  0  0  0
 29 30  2  0  0  0  0
 29 32  1  0  0  0  0
 30 31  1  0  0  0  0
 32 33  2  0  0  0  0
 33 34  1  0  0  0  0
 35 36  2  0  0  0  0
 35 40  1  0  0  0  0
 36 37  1  0  0  0  0
 37 38  2  0  0  0  0
 38 39  1  0  0  0  0
 38 44  1  0  0  0  0
 39 40  2  0  0  0  0
 39 42  1  0  0  0  0
 40 41  1  0  0  0  0
 42 43  2  0  0  0  0
 43 44  1  0  0  0  0
M  CHG  2   3  -1   4  -1
M  END
>  <CHROM.1>
-0.70404597,152.76719728,13.84565092,24.03920836,-2.09696130,-0.00820083
0.29838553,0.26994182

>  <Name>
ligand

>  <RI>
0

>  <Rbt.Current_Directory>
/home/itssahil/PROJECTS/Mol_Feturizer/New_Systems/rnas/4QLM

>  <Rbt.Executable>
rbdock ($Id: //depot/dev/client3/rdock/2013.1/src/exe/rbdock.cxx#4 $)

>  <Rbt.Library>
libRbt.so (2013.1, Build901 2013/11/27)

>  <Rbt.Parameter_File>
/export/apps/rDock/src/rDock_2013.1_src/data/scripts/dock_solv.prm

>  <Rbt.Receptor>
prm/blind_docking_80.prm

>  <SCORE>
26.5161

>  <SCORE.INTER>
18.1677

>  <SCORE.INTER.CONST>
1

>  <SCORE.INTER.POLAR>
0

>  <SCORE.INTER.ROT>
2

>  <SCORE.INTER.SOLV>
48.8477

>  <SCORE.INTER.VDW>
-9.1041

>  <SCORE.INTER.norm>
0.412902

>  <SCORE.INTRA>
0.639858

>  <SCORE.INTRA.DIHEDRAL>
0.0645713

>  <SCORE.INTRA.DIHEDRAL.0>
2.32994

>  <SCORE.INTRA.POLAR>
0

>  <SCORE.INTRA.POLAR.0>
0

>  <SCORE.INTRA.REPUL>
0

>  <SCORE.INTRA.REPUL.0>
0

>  <SCORE.INTRA.SOLV>
0.130982

>  <SCORE.INTRA.SOLV.lig_0>
-117.703

>  <SCORE.INTRA.VDW>
0.542081

>  <SCORE.INTRA.VDW.0>
-1.59997

>  <SCORE.INTRA.norm>
0.0145422

>  <SCORE.RESTR>
7.7086

>  <SCORE.RESTR.CAVITY>
7.7086

>  <SCORE.RESTR.norm>
0.175195

>  <SCORE.SYSTEM>
0

>  <SCORE.SYSTEM.CONST>
0

>  <SCORE.SYSTEM.DIHEDRAL>
0

>  <SCORE.SYSTEM.SOLV>
0

>  <SCORE.SYSTEM.norm>
0

>  <SCORE.heavy>
44

>  <SCORE.norm>
0.60264

>  <RMSD>
26.788

$$$$
ligand
 OpenBabel11021811513D
libRbt.so/2013.1/901 2013/11/27
 44 50  0  0  0  0  0  0  0  0999 V2000
   13.0002   27.4400   -2.3648 P   0  0  2  0  0  0  0  0  0  0  0  0
   15.3097   23.3907    0.3693 P   0  0  1  0  0  0  0  0  0  0  0  0
   12.0146   28.4603   -1.8007 O   0  5  0  0  0  0  0  0  0  0  0  0
   15.2445   22.2062   -0.5639 O   0  5  0  0  0  0  0  0  0  0  0  0
   12.7121   27.3524   -3.8443 O   0  0  0  0  0  0  0  0  0  0  0  0
   16.2746   23.0199    1.5184 O   0  0  0  0  0  0  0  0  0  0  0  0
   12.2134   26.2849   -0.2463 C   0  0  0  0  0  0  0  0  0  0  0  0
   15.7018   25.9304    0.1149 C   0  0  0  0  0  0  0  0  0  0  0  0
   12.7078   26.1192   -1.5822 O   0  0  0  0  0  0  0  0  0  0  0  0
   15.7011   24.6616   -0.5985 O   0  0  0  0  0  0  0  0  0  0  0  0
   11.9273   24.9245    0.3805 C   0  0  1  0  0  0  0  0  0  0  0  0
   16.2263   27.0091   -0.9064 C   0  0  1  0  0  0  0  0  0  0  0  0
   10.7375   24.5552    0.0193 O   0  0  0  0  0  0  0  0  0  0  0  0
   17.3077   26.5305   -1.3706 O   0  0  0  0  0  0  0  0  0  0  0  0
   12.8760   23.8431   -0.0831 C   0  0  1  0  0  0  0  0  0  0  0  0
   15.3235   27.0721   -2.1546 C   0  0  1  0  0  0  0  0  0  0  0  0
   13.8038   23.6925    0.8991 O   0  0  0  0  0  0  0  0  0  0  0  0
   14.4914   28.1193   -2.1027 O   0  0  0  0  0  0  0  0  0  0  0  0
   11.9662   22.5686   -0.1730 C   0  0  1  0  0  0  0  0  0  0  0  0
   16.2585   27.1614   -3.3822 C   0  0  1  0  0  0  0  0  0  0  0  0
   12.1815   21.7022    1.0171 O   0  0  0  0  0  0  0  0  0  0  0  0
   16.3162   28.5675   -3.8966 O   0  0  0  0  0  0  0  0  0  0  0  0
   10.7431   22.9890   -0.2271 C   0  0  2  0  0  0  0  0  0  0  0  0
   17.4191   26.8148   -2.9417 C   0  0  2  0  0  0  0  0  0  0  0  0
   10.8771   21.7902   -5.4584 N   0  0  0  0  0  0  0  0  0  0  0  0
   11.9640   21.9687   -4.6559 C   0  0  0  0  0  0  0  0  0  0  0  0
   11.8226   22.2726   -3.3258 N   0  0  0  0  0  0  0  0  0  0  0  0
   10.5648   22.3996   -2.8043 C   0  0  0  0  0  0  0  0  0  0  0  0
    9.4862   22.2341   -3.5826 C   0  0  0  0  0  0  0  0  0  0  0  0
    9.6388   21.9161   -4.9311 C   0  0  0  0  0  0  0  0  0  0  0  0
    8.5918   21.7168   -5.8526 N   0  0  0  0  0  0  0  0  0  0  0  0
    8.3905   22.4105   -2.8142 N   0  0  0  0  0  0  0  0  0  0  0  0
    8.8084   22.6954   -1.5479 C   0  0  0  0  0  0  0  0  0  0  0  0
   10.1475   22.6721   -1.5356 N   0  0  0  0  0  0  0  0  0  0  0  0
   17.0633   21.6728   -3.6860 N   0  0  0  0  0  0  0  0  0  0  0  0
   16.2703   22.4372   -2.8902 C   0  0  0  0  0  0  0  0  0  0  0  0
   16.5017   23.7809   -2.7981 N   0  0  0  0  0  0  0  0  0  0  0  0
   17.5159   24.3514   -3.5028 C   0  0  0  0  0  0  0  0  0  0  0  0
   18.3039   23.5998   -4.2980 C   0  0  0  0  0  0  0  0  0  0  0  0
   18.0636   22.2314   -4.3828 C   0  0  0  0  0  0  0  0  0  0  0  0
   18.7837   21.2448   -5.1464 N   0  0  0  0  0  0  0  0  0  0  0  0
   19.2158   24.4269   -4.8629 N   0  0  0  0  0  0  0  0  0  0  0  0
   18.9800   25.6931   -4.4144 C   0  0  0  0  0  0  0  0  0  0  0  0
   17.9252   25.6362   -3.5764 N   0  0  0  0  0  0  0  0  0  0  0  0
  1  3  1  1  0  0  0
  1  5  2  0  0  0  0
  1  9  1  0  0  0  0
  1 18  1  0  0  0  0
  2  4  1  6  0  0  0
  2  6  2  0  0  0  0
  2 10  1  0  0  0  0
  2 17  1  0  0  0  0
  7  9  1  0  0  0  0
  8 10  1  0  0  0  0
 11  7  1  6  0  0  0
 11 13  1  0  0  0  0
 11 15  1  0  0  0  0
 12  8  1  1  0  0  0
 12 14  1  0  0  0  0
 12 16  1  0  0  0  0
 13 23  1  0  0  0  0
 14 24  1  0  0  0  0
 15 17  1  1  0  0  0
 15 19  1  0  0  0  0
 16 18  1  1  0  0  0
 16 20  1  0  0  0  0
 19 21  1  1  0  0  0
 19 23  1  0  0  0  0
 20 22  1  1  0  0  0
 20 24  1  0  0  0  0
 23 34  1  6  0  0  0
 24 44  1  6  0  0  0
 25 26  2  0  0  0  0
 25 30  1  0  0  0  0
 26 27  1  0  0  0  0
 27 28  2  0  0  0  0
 28 29  1  0  0  0  0
 28 34  1  0  0  0  0
 29 30  2  0  0  0  0
 29 32  1  0  0  0  0
 30 31  1  0  0  0  0
 32 33  2  0  0  0  0
 33 34  1  0  0  0  0
 35 36  2  0  0  0  0
 35 40  1  0  0  0  0
 36 37  1  0  0  0  0
 37 38  2  0  0  0  0
 38 39  1  0  0  0  0
 38 44  1  0  0  0  0
 39 40  2  0  0  0  0
 39 42  1  0  0  0  0
 40 41  1  0  0  0  0
 42 43  2  0  0  0  0
 43 44  1  0  0  0  0
M  CHG  2   3  -1   4  -1
M  END
>  <CHROM.1>
97.59580988,51.49454326,14.04261676,24.39394259,-2.12838900,2.90622987,-0.24014669
-2.63459126

>  <Name>
ligand

>  <RI>
0

>  <Rbt.Current_Directory>
/home/itssahil/PROJECTS/Mol_Feturizer/New_Systems/rnas/4QLM

>  <Rbt.Executable>
rbdock ($Id: //depot/dev/client3/rdock/2013.1/src/exe/rbdock.cxx#4 $)

>  <Rbt.Library>
libRbt.so (2013.1, Build901 2013/11/27)

>  <Rbt.Parameter_File>
/export/apps/rDock/src/rDock_2013.1_src/data/scripts/dock_solv.prm

>  <Rbt.Receptor>
prm/blind_docking_40.prm

>  <SCORE>
22.5563

>  <SCORE.INTER>
15.2755

>  <SCORE.INTER.CONST>
1

>  <SCORE.INTER.POLAR>
0

>  <SCORE.INTER.ROT>
2

>  <SCORE.INTER.SOLV>
46.3605

>  <SCORE.INTER.VDW>
-10.2032

>  <SCORE.INTER.norm>
0.34717

>  <SCORE.INTRA>
-0.0252968

>  <SCORE.INTRA.DIHEDRAL>
-0.0272889

>  <SCORE.INTRA.DIHEDRAL.0>
2.32994

>  <SCORE.INTRA.POLAR>
0

>  <SCORE.INTRA.POLAR.0>
0

>  <SCORE.INTRA.REPUL>
0

>  <SCORE.INTRA.REPUL.0>
0

>  <SCORE.INTRA.SOLV>
1.29843

>  <SCORE.INTRA.SOLV.lig_0>
-117.703

>  <SCORE.INTRA.VDW>
-0.660866

>  <SCORE.INTRA.VDW.0>
-1.59997

>  <SCORE.INTRA.norm>
-0.000574926

>  <SCORE.RESTR>
7.30607

>  <SCORE.RESTR.CAVITY>
7.30607

>  <SCORE.RESTR.norm>
0.166047

>  <SCORE.SYSTEM>
0

>  <SCORE.SYSTEM.CONST>
0

>  <SCORE.SYSTEM.DIHEDRAL>
0

>  <SCORE.SYSTEM.SOLV>
0

>  <SCORE.SYSTEM.norm>
0

>  <SCORE.heavy>
44

>  <SCORE.norm>
0.512642

>  <RMSD>
26.790

$$$$
ligand
 OpenBabel11021811513D
libRbt.so/2013.1/901 2013/11/27
 44 50  0  0  0  0  0  0  0  0999 V2000
   13.3669   27.2591   -2.6922 P   0  0  2  0  0  0  0  0  0  0  0  0
   15.3674   23.4393    0.5655 P   0  0  1  0  0  0  0  0  0  0  0  0
   12.5112   28.4490   -2.2650 O   0  5  0  0  0  0  0  0  0  0  0  0
   15.1473   22.1433   -0.1760 O   0  5  0  0  0  0  0  0  0  0  0  0
   13.0129   26.9844   -4.1340 O   0  0  0  0  0  0  0  0  0  0  0  0
   16.3353   23.1435    1.7337 O   0  0  0  0  0  0  0  0  0  0  0  0
   12.5534   26.5186   -0.4050 C   0  0  0  0  0  0  0  0  0  0  0  0
   16.0006   25.8583   -0.0792 C   0  0  0  0  0  0  0  0  0  0  0  0
   12.9753   26.1064   -1.7121 O   0  0  0  0  0  0  0  0  0  0  0  0
   15.8449   24.5052   -0.5924 O   0  0  0  0  0  0  0  0  0  0  0  0
   12.1581   25.3033    0.4270 C   0  0  1  0  0  0  0  0  0  0  0  0
   16.5892   26.7133   -1.2642 C   0  0  1  0  0  0  0  0  0  0  0  0
   10.9240   25.0112    0.1548 O   0  0  0  0  0  0  0  0  0  0  0  0
   17.5981   26.0608   -1.6769 O   0  0  0  0  0  0  0  0  0  0  0  0
   12.9750   24.0720    0.1092 C   0  0  1  0  0  0  0  0  0  0  0  0
   15.6483   26.6852   -2.4853 C   0  0  1  0  0  0  0  0  0  0  0  0
   13.9214   23.9720    1.0801 O   0  0  0  0  0  0  0  0  0  0  0  0
   14.9276   27.8099   -2.5720 O   0  0  0  0  0  0  0  0  0  0  0  0
   11.9396   22.9005    0.2351 C   0  0  1  0  0  0  0  0  0  0  0  0
   16.5381   26.4937   -3.7346 C   0  0  1  0  0  0  0  0  0  0  0  0
   12.1145   22.2018    1.5369 O   0  0  0  0  0  0  0  0  0  0  0  0
   16.7154   27.7945   -4.4569 O   0  0  0  0  0  0  0  0  0  0  0  0
   10.7634   23.4339    0.1478 C   0  0  2  0  0  0  0  0  0  0  0  0
   17.6749   26.0965   -3.2752 C   0  0  2  0  0  0  0  0  0  0  0  0
    8.8032   19.7869   -3.2695 N   0  0  0  0  0  0  0  0  0  0  0  0
    9.3965   19.5165   -2.0728 C   0  0  0  0  0  0  0  0  0  0  0  0
    9.8652   20.5241   -1.2688 N   0  0  0  0  0  0  0  0  0  0  0  0
    9.7331   21.8204   -1.6841 C   0  0  0  0  0  0  0  0  0  0  0  0
    9.1583   22.1016   -2.8617 C   0  0  0  0  0  0  0  0  0  0  0  0
    8.6762   21.0723   -3.6684 C   0  0  0  0  0  0  0  0  0  0  0  0
    8.0542   21.2327   -4.9224 N   0  0  0  0  0  0  0  0  0  0  0  0
    9.1571   23.4432   -3.0116 N   0  0  0  0  0  0  0  0  0  0  0  0
    9.7476   23.9882   -1.9101 C   0  0  0  0  0  0  0  0  0  0  0  0
   10.0877   22.9911   -1.0829 N   0  0  0  0  0  0  0  0  0  0  0  0
   16.2119   21.5969   -5.4506 N   0  0  0  0  0  0  0  0  0  0  0  0
   15.4162   22.6616   -5.1684 C   0  0  0  0  0  0  0  0  0  0  0  0
   15.9575   23.7730   -4.5862 N   0  0  0  0  0  0  0  0  0  0  0  0
   17.2858   23.8162   -4.2957 C   0  0  0  0  0  0  0  0  0  0  0  0
   18.0823   22.7652   -4.5771 C   0  0  0  0  0  0  0  0  0  0  0  0
   17.5219   21.6357   -5.1665 C   0  0  0  0  0  0  0  0  0  0  0  0
   18.1732   20.4042   -5.5327 N   0  0  0  0  0  0  0  0  0  0  0  0
   19.3361   23.0895   -4.1800 N   0  0  0  0  0  0  0  0  0  0  0  0
   19.3067   24.3489   -3.6577 C   0  0  0  0  0  0  0  0  0  0  0  0
   18.0352   24.7907   -3.7365 N   0  0  0  0  0  0  0  0  0  0  0  0
  1  3  1  1  0  0  0
  1  5  2  0  0  0  0
  1  9  1  0  0  0  0
  1 18  1  0  0  0  0
  2  4  1  6  0  0  0
  2  6  2  0  0  0  0
  2 10  1  0  0  0  0
  2 17  1  0  0  0  0
  7  9  1  0  0  0  0
  8 10  1  0  0  0  0
 11  7  1  6  0  0  0
 11 13  1  0  0  0  0
 11 15  1  0  0  0  0
 12  8  1  1  0  0  0
 12 14  1  0  0  0  0
 12 16  1  0  0  0  0
 13 23  1  0  0  0  0
 14 24  1  0  0  0  0
 15 17  1  1  0  0  0
 15 19  1  0  0  0  0
 16 18  1  6  0  0  0
 16 20  1  0  0  0  0
 19 21  1  1  0  0  0
 19 23  1  0  0  0  0
 20 22  1  1  0  0  0
 20 24  1  0  0  0  0
 23 34  1  6  0  0  0
 24 44  1  6  0  0  0
 25 26  2  0  0  0  0
 25 30  1  0  0  0  0
 26 27  1  0  0  0  0
 27 28  2  0  0  0  0
 28 29  1  0  0  0  0
 28 34  1  0  0  0  0
 29 30  2  0  0  0  0
 29 32  1  0  0  0  0
 30 31  1  0  0  0  0
 32 33  2  0  0  0  0
 33 34  1  0  0  0  0
 35 36  2  0  0  0  0
 35 40  1  0  0  0  0
 36 37  1  0  0  0  0
 37 38  2  0  0  0  0
 38 39  1  0  0  0  0
 38 44  1  0  0  0  0
 39 40  2  0  0  0  0
 39 42  1  0  0  0  0
 40 41  1  0  0  0  0
 42 43  2  0  0  0  0
 43 44  1  0  0  0  0
M  CHG  2   3  -1   4  -1
M  END
>  <CHROM.1>
176.05211788,103.35064948,13.95057818,24.11977687,-2.08872558,0.18383315
0.35696713,0.56835033

>  <Name>
ligand

>  <RI>
0

>  <Rbt.Current_Directory>
/home/itssahil/PROJECTS/Mol_Feturizer/New_Systems/rnas/4QLM

>  <Rbt.Executable>
rbdock ($Id: //depot/dev/client3/rdock/2013.1/src/exe/rbdock.cxx#4 $)

>  <Rbt.Library>
libRbt.so (2013.1, Build901 2013/11/27)

>  <Rbt.Parameter_File>
/export/apps/rDock/src/rDock_2013.1_src/data/scripts/dock_solv.prm

>  <Rbt.Receptor>
prm/blind_docking_80.prm

>  <SCORE>
28.28

>  <SCORE.INTER>
19.8276

>  <SCORE.INTER.CONST>
1

>  <SCORE.INTER.POLAR>
0

>  <SCORE.INTER.ROT>
2

>  <SCORE.INTER.SOLV>
48.5465

>  <SCORE.INTER.VDW>
-7.89708

>  <SCORE.INTER.norm>
0.450628

>  <SCORE.INTRA>
0.559239

>  <SCORE.INTRA.DIHEDRAL>
0.0909049

>  <SCORE.INTRA.DIHEDRAL.0>
2.32994

>  <SCORE.INTRA.POLAR>
0

>  <SCORE.INTRA.POLAR.0>
0

>  <SCORE.INTRA.REPUL>
0

>  <SCORE.INTRA.REPUL.0>
0

>  <SCORE.INTRA.SOLV>
0.0408962

>  <SCORE.INTRA.SOLV.lig_0>
-117.703

>  <SCORE.INTRA.VDW>
0.493338

>  <SCORE.INTRA.VDW.0>
-1.59997

>  <SCORE.INTRA.norm>
0.01271

>  <SCORE.RESTR>
7.89319

>  <SCORE.RESTR.CAVITY>
7.89319

>  <SCORE.RESTR.norm>
0.179391

>  <SCORE.SYSTEM>
0

>  <SCORE.SYSTEM.CONST>
0

>  <SCORE.SYSTEM.DIHEDRAL>
0

>  <SCORE.SYSTEM.SOLV>
0

>  <SCORE.SYSTEM.norm>
0

>  <SCORE.heavy>
44

>  <SCORE.norm>
0.642728

>  <RMSD>
26.791

$$$$
ligand
 OpenBabel11021811513D
libRbt.so/2013.1/901 2013/11/27
 44 50  0  0  0  0  0  0  0  0999 V2000
   14.9215   23.3793    0.4737 P   0  0  2  0  0  0  0  0  0  0  0  0
   12.8163   27.0068   -2.9345 P   0  0  1  0  0  0  0  0  0  0  0  0
   16.0370   23.6348    1.4841 O   0  5  0  0  0  0  0  0  0  0  0  0
   12.6738   26.2707   -4.2444 O   0  5  0  0  0  0  0  0  0  0  0  0
   14.9806   21.9064    0.1475 O   0  0  0  0  0  0  0  0  0  0  0  0
   12.0136   28.3221   -3.0550 O   0  0  0  0  0  0  0  0  0  0  0  0
   15.9474   25.5230   -0.4171 C   0  0  0  0  0  0  0  0  0  0  0  0
   12.5371   26.4146   -0.4365 C   0  0  0  0  0  0  0  0  0  0  0  0
   15.2510   24.3110   -0.7371 O   0  0  0  0  0  0  0  0  0  0  0  0
   12.3588   25.9156   -1.7922 O   0  0  0  0  0  0  0  0  0  0  0  0
   16.2451   26.3094   -1.6893 C   0  0  1  0  0  0  0  0  0  0  0  0
   11.9292   25.3195    0.5189 C   0  0  1  0  0  0  0  0  0  0  0  0
   17.3446   25.8494   -2.2009 O   0  0  0  0  0  0  0  0  0  0  0  0
   10.7651   25.0902    0.0649 O   0  0  0  0  0  0  0  0  0  0  0  0
   15.1775   26.1567   -2.7481 C   0  0  1  0  0  0  0  0  0  0  0  0
   12.6382   23.9641    0.3263 C   0  0  1  0  0  0  0  0  0  0  0  0
   14.3992   27.2692   -2.6788 O   0  0  0  0  0  0  0  0  0  0  0  0
   13.5275   23.7357    1.3004 O   0  0  0  0  0  0  0  0  0  0  0  0
   15.9891   26.1425   -4.0902 C   0  0  1  0  0  0  0  0  0  0  0  0
   11.5375   22.8790    0.3086 C   0  0  1  0  0  0  0  0  0  0  0  0
   15.9040   27.4718   -4.7529 O   0  0  0  0  0  0  0  0  0  0  0  0
   11.4847   22.1637    1.6242 O   0  0  0  0  0  0  0  0  0  0  0  0
   17.2126   25.8544   -3.7808 C   0  0  2  0  0  0  0  0  0  0  0  0
   10.4375   23.5246    0.1237 C   0  0  2  0  0  0  0  0  0  0  0  0
   18.5622   20.6672   -3.4755 N   0  0  0  0  0  0  0  0  0  0  0  0
   18.2580   21.4727   -2.4192 C   0  0  0  0  0  0  0  0  0  0  0  0
   17.9230   22.7900   -2.6039 N   0  0  0  0  0  0  0  0  0  0  0  0
   17.8988   23.2968   -3.8738 C   0  0  0  0  0  0  0  0  0  0  0  0
   18.2026   22.5188   -4.9221 C   0  0  0  0  0  0  0  0  0  0  0  0
   18.5327   21.1789   -4.7265 C   0  0  0  0  0  0  0  0  0  0  0  0
   18.8701   20.2587   -5.7386 N   0  0  0  0  0  0  0  0  0  0  0  0
   18.0943   23.2690   -6.0391 N   0  0  0  0  0  0  0  0  0  0  0  0
   17.7254   24.5271   -5.6647 C   0  0  0  0  0  0  0  0  0  0  0  0
   17.5875   24.5420   -4.3324 N   0  0  0  0  0  0  0  0  0  0  0  0
   10.7739   21.6521   -4.7241 N   0  0  0  0  0  0  0  0  0  0  0  0
   11.7994   21.8519   -3.8553 C   0  0  0  0  0  0  0  0  0  0  0  0
   11.5423   22.3610   -2.6135 N   0  0  0  0  0  0  0  0  0  0  0  0
   10.2672   22.6609   -2.2465 C   0  0  0  0  0  0  0  0  0  0  0  0
    9.2441   22.4611   -3.1018 C   0  0  0  0  0  0  0  0  0  0  0  0
    9.5154   21.9459   -4.3660 C   0  0  0  0  0  0  0  0  0  0  0  0
    8.5900   21.6725   -5.4355 N   0  0  0  0  0  0  0  0  0  0  0  0
    8.1086   22.8472   -2.4721 N   0  0  0  0  0  0  0  0  0  0  0  0
    8.4392   23.2806   -1.2221 C   0  0  0  0  0  0  0  0  0  0  0  0
    9.7757   23.1586   -1.0913 N   0  0  0  0  0  0  0  0  0  0  0  0
  1  3  1  1  0  0  0
  1  5  2  0  0  0  0
  1  9  1  0  0  0  0
  1 18  1  0  0  0  0
  2  4  1  6  0  0  0
  2  6  2  0  0  0  0
  2 10  1  0  0  0  0
  2 17  1  0  0  0  0
  7  9  1  0  0  0  0
  8 10  1  0  0  0  0
 11  7  1  1  0  0  0
 11 13  1  0  0  0  0
 11 15  1  0  0  0  0
 12  8  1  6  0  0  0
 12 14  1  0  0  0  0
 12 16  1  0  0  0  0
 13 23  1  0  0  0  0
 14 24  1  0  0  0  0
 15 17  1  6  0  0  0
 15 19  1  0  0  0  0
 16 18  1  1  0  0  0
 16 20  1  0  0  0  0
 19 21  1  1  0  0  0
 19 23  1  0  0  0  0
 20 22  1  1  0  0  0
 20 24  1  0  0  0  0
 23 34  1  1  0  0  0
 24 44  1  6  0  0  0
 25 26  2  0  0  0  0
 25 30  1  0  0  0  0
 26 27  1  0  0  0  0
 27 28  2  0  0  0  0
 28 29  1  0  0  0  0
 28 34  1  0  0  0  0
 29 30  2  0  0  0  0
 29 32  1  0  0  0  0
 30 31  1  0  0  0  0
 32 33  2  0  0  0  0
 33 34  1  0  0  0  0
 35 36  2  0  0  0  0
 35 40  1  0  0  0  0
 36 37  1  0  0  0  0
 37 38  2  0  0  0  0
 38 39  1  0  0  0  0
 38 44  1  0  0  0  0
 39 40  2  0  0  0  0
 39 42  1  0  0  0  0
 40 41  1  0  0  0  0
 42 43  2  0  0  0  0
 43 44  1  0  0  0  0
M  CHG  2   3  -1   4  -1
M  END
>  <CHROM.1>
7.54925190,93.98130038,13.94405635,24.07025393,-2.23732131,-0.19608714,0.23341324
0.70004885

>  <Name>
ligand

>  <RI>
0

>  <Rbt.Current_Directory>
/home/itssahil/PROJECTS/Mol_Feturizer/New_Systems/rnas/4QLM

>  <Rbt.Executable>
rbdock ($Id: //depot/dev/client3/rdock/2013.1/src/exe/rbdock.cxx#4 $)

>  <Rbt.Library>
libRbt.so (2013.1, Build901 2013/11/27)

>  <Rbt.Parameter_File>
/export/apps/rDock/src/rDock_2013.1_src/data/scripts/dock_solv.prm

>  <Rbt.Receptor>
prm/blind_docking_60.prm

>  <SCORE>
28.3422

>  <SCORE.INTER>
24.1431

>  <SCORE.INTER.CONST>
1

>  <SCORE.INTER.POLAR>
0

>  <SCORE.INTER.ROT>
2

>  <SCORE.INTER.SOLV>
54.9743

>  <SCORE.INTER.VDW>
-7.16274

>  <SCORE.INTER.norm>
0.548706

>  <SCORE.INTRA>
-0.425979

>  <SCORE.INTRA.DIHEDRAL>
0.129276

>  <SCORE.INTRA.DIHEDRAL.0>
2.32994

>  <SCORE.INTRA.POLAR>
0

>  <SCORE.INTRA.POLAR.0>
0

>  <SCORE.INTRA.REPUL>
0

>  <SCORE.INTRA.REPUL.0>
0

>  <SCORE.INTRA.SOLV>
0.0731131

>  <SCORE.INTRA.SOLV.lig_0>
-117.703

>  <SCORE.INTRA.VDW>
-0.527174

>  <SCORE.INTRA.VDW.0>
-1.59997

>  <SCORE.INTRA.norm>
-0.00968134

>  <SCORE.RESTR>
4.62514

>  <SCORE.RESTR.CAVITY>
4.62514

>  <SCORE.RESTR.norm>
0.105117

>  <SCORE.SYSTEM>
0

>  <SCORE.SYSTEM.CONST>
0

>  <SCORE.SYSTEM.DIHEDRAL>
0

>  <SCORE.SYSTEM.SOLV>
0

>  <SCORE.SYSTEM.norm>
0

>  <SCORE.heavy>
44

>  <SCORE.norm>
0.644141

>  <RMSD>
26.804

$$$$
ligand
 OpenBabel11021811513D
libRbt.so/2013.1/901 2013/11/27
 44 50  0  0  0  0  0  0  0  0999 V2000
   15.1288   23.3390    0.6445 P   0  0  2  0  0  0  0  0  0  0  0  0
   13.4042   27.3757   -2.5078 P   0  0  1  0  0  0  0  0  0  0  0  0
   16.2475   23.4204    1.6801 O   0  5  0  0  0  0  0  0  0  0  0  0
   13.2164   26.7513   -3.8690 O   0  5  0  0  0  0  0  0  0  0  0  0
   15.0620   21.8939    0.2125 O   0  0  0  0  0  0  0  0  0  0  0  0
   12.7232   28.7628   -2.5388 O   0  0  0  0  0  0  0  0  0  0  0  0
   16.3538   25.4407   -0.0792 C   0  0  0  0  0  0  0  0  0  0  0  0
   13.0367   26.6330   -0.0620 C   0  0  0  0  0  0  0  0  0  0  0  0
   15.5575   24.3220   -0.4924 O   0  0  0  0  0  0  0  0  0  0  0  0
   12.8349   26.2506   -1.4519 O   0  0  0  0  0  0  0  0  0  0  0  0
   16.7389   26.2866   -1.2882 C   0  0  1  0  0  0  0  0  0  0  0  0
   12.3200   25.5310    0.8060 C   0  0  1  0  0  0  0  0  0  0  0  0
   17.8007   25.7679   -1.8227 O   0  0  0  0  0  0  0  0  0  0  0  0
   11.1470   25.4399    0.3268 O   0  0  0  0  0  0  0  0  0  0  0  0
   15.6777   26.3065   -2.3642 C   0  0  1  0  0  0  0  0  0  0  0  0
   12.9088   24.1349    0.5211 C   0  0  1  0  0  0  0  0  0  0  0  0
   15.0001   27.4764   -2.2205 O   0  0  0  0  0  0  0  0  0  0  0  0
   13.7598   23.7585    1.4833 O   0  0  0  0  0  0  0  0  0  0  0  0
   16.5046   26.3161   -3.6969 C   0  0  1  0  0  0  0  0  0  0  0  0
   11.7166   23.1568    0.4153 C   0  0  1  0  0  0  0  0  0  0  0  0
   16.5475   27.6918   -4.2617 O   0  0  0  0  0  0  0  0  0  0  0  0
   11.5811   22.3565    1.6748 O   0  0  0  0  0  0  0  0  0  0  0  0
   17.6930   25.8982   -3.3991 C   0  0  2  0  0  0  0  0  0  0  0  0
   10.6810   23.9099    0.2687 C   0  0  2  0  0  0  0  0  0  0  0  0
   16.3188   21.1625   -5.5221 N   0  0  0  0  0  0  0  0  0  0  0  0
   15.4538   22.0958   -5.0343 C   0  0  0  0  0  0  0  0  0  0  0  0
   15.9073   23.2801   -4.5116 N   0  0  0  0  0  0  0  0  0  0  0  0
   17.2534   23.5196   -4.4808 C   0  0  0  0  0  0  0  0  0  0  0  0
   18.1169   22.6083   -4.9501 C   0  0  0  0  0  0  0  0  0  0  0  0
   17.6471   21.4114   -5.4883 C   0  0  0  0  0  0  0  0  0  0  0  0
   18.4458   20.3759   -6.0125 N   0  0  0  0  0  0  0  0  0  0  0  0
   19.3635   23.1040   -4.8007 N   0  0  0  0  0  0  0  0  0  0  0  0
   19.2584   24.3351   -4.2239 C   0  0  0  0  0  0  0  0  0  0  0  0
   17.9582   24.6005   -4.0418 N   0  0  0  0  0  0  0  0  0  0  0  0
    9.1792   20.5811   -3.4440 N   0  0  0  0  0  0  0  0  0  0  0  0
    9.8932   20.2862   -2.3261 C   0  0  0  0  0  0  0  0  0  0  0  0
   10.2147   21.2828   -1.4483 N   0  0  0  0  0  0  0  0  0  0  0  0
    9.8181   22.5617   -1.6885 C   0  0  0  0  0  0  0  0  0  0  0  0
    9.1054   22.8610   -2.7933 C   0  0  0  0  0  0  0  0  0  0  0  0
    8.7857   21.8404   -3.6841 C   0  0  0  0  0  0  0  0  0  0  0  0
    8.0574   21.9334   -4.9234 N   0  0  0  0  0  0  0  0  0  0  0  0
    8.8586   24.1927   -2.7677 N   0  0  0  0  0  0  0  0  0  0  0  0
    9.4192   24.7096   -1.6371 C   0  0  0  0  0  0  0  0  0  0  0  0
   10.0074   23.6927   -0.9752 N   0  0  0  0  0  0  0  0  0  0  0  0
  1  3  1  1  0  0  0
  1  5  2  0  0  0  0
  1  9  1  0  0  0  0
  1 18  1  0  0  0  0
  2  4  1  6  0  0  0
  2  6  2  0  0  0  0
  2 10  1  0  0  0  0
  2 17  1  0  0  0  0
  7  9  1  0  0  0  0
  8 10  1  0  0  0  0
 11  7  1  1  0  0  0
 11 13  1  0  0  0  0
 11 15  1  0  0  0  0
 12  8  1  6  0  0  0
 12 14  1  0  0  0  0
 12 16  1  0  0  0  0
 13 23  1  0  0  0  0
 14 24  1  0  0  0  0
 15 17  1  1  0  0  0
 15 19  1  0  0  0  0
 16 18  1  1  0  0  0
 16 20  1  0  0  0  0
 19 21  1  1  0  0  0
 19 23  1  0  0  0  0
 20 22  1  1  0  0  0
 20 24  1  0  0  0  0
 23 34  1  6  0  0  0
 24 44  1  6  0  0  0
 25 26  2  0  0  0  0
 25 30  1  0  0  0  0
 26 27  1  0  0  0  0
 27 28  2  0  0  0  0
 28 29  1  0  0  0  0
 28 34  1  0  0  0  0
 29 30  2  0  0  0  0
 29 32  1  0  0  0  0
 30 31  1  0  0  0  0
 32 33  2  0  0  0  0
 33 34  1  0  0  0  0
 35 36  2  0  0  0  0
 35 40  1  0  0  0  0
 36 37  1  0  0  0  0
 37 38  2  0  0  0  0
 38 39  1  0  0  0  0
 38 44  1  0  0  0  0
 39 40  2  0  0  0  0
 39 42  1  0  0  0  0
 40 41  1  0  0  0  0
 42 43  2  0  0  0  0
 43 44  1  0  0  0  0
M  CHG  2   3  -1   4  -1
M  END
>  <CHROM.1>
92.70203484,155.70137724,13.96612221,24.20587887,-2.05547582,-0.08497514
0.32759570,0.70313351

>  <Name>
ligand

>  <RI>
0

>  <Rbt.Current_Directory>
/home/itssahil/PROJECTS/Mol_Feturizer/New_Systems/rnas/4QLM

>  <Rbt.Executable>
rbdock ($Id: //depot/dev/client3/rdock/2013.1/src/exe/rbdock.cxx#4 $)

>  <Rbt.Library>
libRbt.so (2013.1, Build901 2013/11/27)

>  <Rbt.Parameter_File>
/export/apps/rDock/src/rDock_2013.1_src/data/scripts/dock_solv.prm

>  <Rbt.Receptor>
prm/blind_docking_40.prm

>  <SCORE>
23.6106

>  <SCORE.INTER>
18.084

>  <SCORE.INTER.CONST>
1

>  <SCORE.INTER.POLAR>
0

>  <SCORE.INTER.ROT>
2

>  <SCORE.INTER.SOLV>
47.1076

>  <SCORE.INTER.VDW>
-8.57989

>  <SCORE.INTER.norm>
0.410999

>  <SCORE.INTRA>
-0.0135703

>  <SCORE.INTRA.DIHEDRAL>
-0.0422768

>  <SCORE.INTRA.DIHEDRAL.0>
2.32994

>  <SCORE.INTRA.POLAR>
0

>  <SCORE.INTRA.POLAR.0>
0

>  <SCORE.INTRA.REPUL>
0

>  <SCORE.INTRA.REPUL.0>
0

>  <SCORE.INTRA.SOLV>
0.073805

>  <SCORE.INTRA.SOLV.lig_0>
-117.703

>  <SCORE.INTRA.VDW>
-0.0293344

>  <SCORE.INTRA.VDW.0>
-1.59997

>  <SCORE.INTRA.norm>
-0.000308416

>  <SCORE.RESTR>
5.54022

>  <SCORE.RESTR.CAVITY>
5.54022

>  <SCORE.RESTR.norm>
0.125914

>  <SCORE.SYSTEM>
0

>  <SCORE.SYSTEM.CONST>
0

>  <SCORE.SYSTEM.DIHEDRAL>
0

>  <SCORE.SYSTEM.SOLV>
0

>  <SCORE.SYSTEM.norm>
0

>  <SCORE.heavy>
44

>  <SCORE.norm>
0.536605

>  <RMSD>
26.808

$$$$
ligand
 OpenBabel11021811513D
libRbt.so/2013.1/901 2013/11/27
 44 50  0  0  0  0  0  0  0  0999 V2000
   14.9434   23.3772    0.4790 P   0  0  2  0  0  0  0  0  0  0  0  0
   12.8086   26.9999   -2.9158 P   0  0  1  0  0  0  0  0  0  0  0  0
   16.0666   23.6345    1.4804 O   0  5  0  0  0  0  0  0  0  0  0  0
   12.6564   26.2625   -4.2239 O   0  5  0  0  0  0  0  0  0  0  0  0
   15.0012   21.9040    0.1536 O   0  0  0  0  0  0  0  0  0  0  0  0
   12.0039   28.3144   -3.0312 O   0  0  0  0  0  0  0  0  0  0  0  0
   15.9605   25.5209   -0.4217 C   0  0  0  0  0  0  0  0  0  0  0  0
   12.5495   26.4097   -0.4153 C   0  0  0  0  0  0  0  0  0  0  0  0
   15.2626   24.3081   -0.7352 O   0  0  0  0  0  0  0  0  0  0  0  0
   12.3609   25.9093   -1.7690 O   0  0  0  0  0  0  0  0  0  0  0  0
   16.2476   26.3064   -1.6969 C   0  0  1  0  0  0  0  0  0  0  0  0
   11.9500   25.3150    0.5459 C   0  0  1  0  0  0  0  0  0  0  0  0
   17.3435   25.8469   -2.2167 O   0  0  0  0  0  0  0  0  0  0  0  0
   10.7825   25.0842    0.1012 O   0  0  0  0  0  0  0  0  0  0  0  0
   15.1718   26.1519   -2.7472 C   0  0  1  0  0  0  0  0  0  0  0  0
   12.6585   23.9599    0.3489 C   0  0  1  0  0  0  0  0  0  0  0  0
   14.3932   27.2638   -2.6728 O   0  0  0  0  0  0  0  0  0  0  0  0
   13.5556   23.7331    1.3162 O   0  0  0  0  0  0  0  0  0  0  0  0
   15.9729   26.1371   -4.0956 C   0  0  1  0  0  0  0  0  0  0  0  0
   11.5586   22.8739    0.3408 C   0  0  1  0  0  0  0  0  0  0  0  0
   15.8816   27.4658   -4.7588 O   0  0  0  0  0  0  0  0  0  0  0  0
   11.5167   22.1598    1.6574 O   0  0  0  0  0  0  0  0  0  0  0  0
   17.1990   25.8503   -3.7955 C   0  0  2  0  0  0  0  0  0  0  0  0
   10.4567   23.5185    0.1639 C   0  0  2  0  0  0  0  0  0  0  0  0
   18.5791   20.6709   -3.4953 N   0  0  0  0  0  0  0  0  0  0  0  0
   18.2894   21.4788   -2.4367 C   0  0  0  0  0  0  0  0  0  0  0  0
   17.9448   22.7937   -2.6202 N   0  0  0  0  0  0  0  0  0  0  0  0
   17.8960   23.2958   -3.8913 C   0  0  0  0  0  0  0  0  0  0  0  0
   18.1853   22.5155   -4.9420 C   0  0  0  0  0  0  0  0  0  0  0  0
   18.5253   21.1778   -4.7473 C   0  0  0  0  0  0  0  0  0  0  0  0
   18.8497   20.2556   -5.7619 N   0  0  0  0  0  0  0  0  0  0  0  0
   18.0540   23.2610   -6.0596 N   0  0  0  0  0  0  0  0  0  0  0  0
   17.6855   24.5187   -5.6833 C   0  0  0  0  0  0  0  0  0  0  0  0
   17.5707   24.5378   -4.3489 N   0  0  0  0  0  0  0  0  0  0  0  0
   10.7592   21.6609   -4.6918 N   0  0  0  0  0  0  0  0  0  0  0  0
   11.7916   21.8658   -3.8325 C   0  0  0  0  0  0  0  0  0  0  0  0
   11.5430   22.3698   -2.5869 N   0  0  0  0  0  0  0  0  0  0  0  0
   10.2695   22.6597   -2.2068 C   0  0  0  0  0  0  0  0  0  0  0  0
    9.2395   22.4547   -3.0525 C   0  0  0  0  0  0  0  0  0  0  0  0
    9.5022   21.9447   -4.3207 C   0  0  0  0  0  0  0  0  0  0  0  0
    8.5684   21.6674   -5.3819 N   0  0  0  0  0  0  0  0  0  0  0  0
    8.1074   22.8310   -2.4109 N   0  0  0  0  0  0  0  0  0  0  0  0
    8.4472   23.2635   -1.1629 C   0  0  0  0  0  0  0  0  0  0  0  0
    9.7857   23.1508   -1.0455 N   0  0  0  0  0  0  0  0  0  0  0  0
  1  3  1  1  0  0  0
  1  5  2  0  0  0  0
  1  9  1  0  0  0  0
  1 18  1  0  0  0  0
  2  4  1  6  0  0  0
  2  6  2  0  0  0  0
  2 10  1  0  0  0  0
  2 17  1  0  0  0  0
  7  9  1  0  0  0  0
  8 10  1  0  0  0  0
 11  7  1  1  0  0  0
 11 13  1  0  0  0  0
 11 15  1  0  0  0  0
 12  8  1  6  0  0  0
 12 14  1  0  0  0  0
 12 16  1  0  0  0  0
 13 23  1  0  0  0  0
 14 24  1  0  0  0  0
 15 17  1  6  0  0  0
 15 19  1  0  0  0  0
 16 18  1  1  0  0  0
 16 20  1  0  0  0  0
 19 21  1  1  0  0  0
 19 23  1  0  0  0  0
 20 22  1  1  0  0  0
 20 24  1  0  0  0  0
 23 34  1  1  0  0  0
 24 44  1  6  0  0  0
 25 26  2  0  0  0  0
 25 30  1  0  0  0  0
 26 27  1  0  0  0  0
 27 28  2  0  0  0  0
 28 29  1  0  0  0  0
 28 34  1  0  0  0  0
 29 30  2  0  0  0  0
 29 32  1  0  0  0  0
 30 31  1  0  0  0  0
 32 33  2  0  0  0  0
 33 34  1  0  0  0  0
 35 36  2  0  0  0  0
 35 40  1  0  0  0  0
 36 37  1  0  0  0  0
 37 38  2  0  0  0  0
 38 39  1  0  0  0  0
 38 44  1  0  0  0  0
 39 40  2  0  0  0  0
 39 42  1  0  0  0  0
 40 41  1  0  0  0  0
 42 43  2  0  0  0  0
 43 44  1  0  0  0  0
M  CHG  2   3  -1   4  -1
M  END
>  <CHROM.1>
6.93453808,93.55223366,13.94598072,24.06679520,-2.22546534,-0.20462497,0.23579075
0.71544327

>  <Name>
ligand

>  <RI>
0

>  <Rbt.Current_Directory>
/home/itssahil/PROJECTS/Mol_Feturizer/New_Systems/rnas/4QLM

>  <Rbt.Executable>
rbdock ($Id: //depot/dev/client3/rdock/2013.1/src/exe/rbdock.cxx#4 $)

>  <Rbt.Library>
libRbt.so (2013.1, Build901 2013/11/27)

>  <Rbt.Parameter_File>
/export/apps/rDock/src/rDock_2013.1_src/data/scripts/dock_solv.prm

>  <Rbt.Receptor>
prm/blind_docking_60.prm

>  <SCORE>
28.356

>  <SCORE.INTER>
24.1619

>  <SCORE.INTER.CONST>
1

>  <SCORE.INTER.POLAR>
0

>  <SCORE.INTER.ROT>
2

>  <SCORE.INTER.SOLV>
54.7278

>  <SCORE.INTER.VDW>
-7.06798

>  <SCORE.INTER.norm>
0.549135

>  <SCORE.INTRA>
-0.431698

>  <SCORE.INTRA.DIHEDRAL>
0.126314

>  <SCORE.INTRA.DIHEDRAL.0>
2.32994

>  <SCORE.INTRA.POLAR>
0

>  <SCORE.INTRA.POLAR.0>
0

>  <SCORE.INTRA.REPUL>
0

>  <SCORE.INTRA.REPUL.0>
0

>  <SCORE.INTRA.SOLV>
0.0735382

>  <SCORE.INTRA.SOLV.lig_0>
-117.703

>  <SCORE.INTRA.VDW>
-0.531624

>  <SCORE.INTRA.VDW.0>
-1.59997

>  <SCORE.INTRA.norm>
-0.00981131

>  <SCORE.RESTR>
4.62573

>  <SCORE.RESTR.CAVITY>
4.62573

>  <SCORE.RESTR.norm>
0.10513

>  <SCORE.SYSTEM>
0

>  <SCORE.SYSTEM.CONST>
0

>  <SCORE.SYSTEM.DIHEDRAL>
0

>  <SCORE.SYSTEM.SOLV>
0

>  <SCORE.SYSTEM.norm>
0

>  <SCORE.heavy>
44

>  <SCORE.norm>
0.644454

>  <RMSD>
26.811

$$$$
ligand
 OpenBabel11021811513D
libRbt.so/2013.1/901 2013/11/27
 44 50  0  0  0  0  0  0  0  0999 V2000
   14.9207   23.3689    0.4828 P   0  0  2  0  0  0  0  0  0  0  0  0
   12.8169   26.9934   -2.9294 P   0  0  1  0  0  0  0  0  0  0  0  0
   16.0418   23.6230    1.4873 O   0  5  0  0  0  0  0  0  0  0  0  0
   12.6652   26.2532   -4.2359 O   0  5  0  0  0  0  0  0  0  0  0  0
   14.9716   21.8945    0.1619 O   0  0  0  0  0  0  0  0  0  0  0  0
   12.0197   28.3120   -3.0512 O   0  0  0  0  0  0  0  0  0  0  0  0
   15.9524   25.5046   -0.4204 C   0  0  0  0  0  0  0  0  0  0  0  0
   12.5462   26.4117   -0.4280 C   0  0  0  0  0  0  0  0  0  0  0  0
   15.2490   24.2947   -0.7329 O   0  0  0  0  0  0  0  0  0  0  0  0
   12.3595   25.9085   -1.7811 O   0  0  0  0  0  0  0  0  0  0  0  0
   16.2480   26.2849   -1.6968 C   0  0  1  0  0  0  0  0  0  0  0  0
   11.9375   25.3230    0.5341 C   0  0  1  0  0  0  0  0  0  0  0  0
   17.3431   25.8180   -2.2116 O   0  0  0  0  0  0  0  0  0  0  0  0
   10.7703   25.0973    0.0861 O   0  0  0  0  0  0  0  0  0  0  0  0
   15.1749   26.1332   -2.7503 C   0  0  1  0  0  0  0  0  0  0  0  0
   12.6394   23.9636    0.3434 C   0  0  1  0  0  0  0  0  0  0  0  0
   14.4021   27.2495   -2.6817 O   0  0  0  0  0  0  0  0  0  0  0  0
   13.5320   23.7347    1.3144 O   0  0  0  0  0  0  0  0  0  0  0  0
   15.9805   26.1103   -4.0960 C   0  0  1  0  0  0  0  0  0  0  0  0
   11.5337   22.8835    0.3346 C   0  0  1  0  0  0  0  0  0  0  0  0
   15.8986   27.4375   -4.7632 O   0  0  0  0  0  0  0  0  0  0  0  0
   11.4835   22.1733    1.6531 O   0  0  0  0  0  0  0  0  0  0  0  0
   17.2041   25.8178   -3.7909 C   0  0  2  0  0  0  0  0  0  0  0  0
   10.4358   23.5335    0.1521 C   0  0  2  0  0  0  0  0  0  0  0  0
   18.5981   20.6433   -3.4702 N   0  0  0  0  0  0  0  0  0  0  0  0
   18.3216   21.4588   -2.4139 C   0  0  0  0  0  0  0  0  0  0  0  0
   17.9720   22.7717   -2.6027 N   0  0  0  0  0  0  0  0  0  0  0  0
   17.9046   23.2638   -3.8768 C   0  0  0  0  0  0  0  0  0  0  0  0
   18.1807   22.4760   -4.9254 C   0  0  0  0  0  0  0  0  0  0  0  0
   18.5259   21.1405   -4.7252 C   0  0  0  0  0  0  0  0  0  0  0  0
   18.8379   20.2111   -5.7371 N   0  0  0  0  0  0  0  0  0  0  0  0
   18.0323   23.2126   -6.0468 N   0  0  0  0  0  0  0  0  0  0  0  0
   17.6667   24.4725   -5.6750 C   0  0  0  0  0  0  0  0  0  0  0  0
   17.5705   24.5017   -4.3394 N   0  0  0  0  0  0  0  0  0  0  0  0
   10.7447   21.6602   -4.6972 N   0  0  0  0  0  0  0  0  0  0  0  0
   11.7754   21.8619   -3.8349 C   0  0  0  0  0  0  0  0  0  0  0  0
   11.5253   22.3709   -2.5917 N   0  0  0  0  0  0  0  0  0  0  0  0
   10.2520   22.6688   -2.2167 C   0  0  0  0  0  0  0  0  0  0  0  0
    9.2239   22.4671   -3.0654 C   0  0  0  0  0  0  0  0  0  0  0  0
    9.4880   21.9520   -4.3312 C   0  0  0  0  0  0  0  0  0  0  0  0
    8.5563   21.6768   -5.3948 N   0  0  0  0  0  0  0  0  0  0  0  0
    8.0917   22.8514   -2.4287 N   0  0  0  0  0  0  0  0  0  0  0  0
    8.4295   23.2857   -1.1809 C   0  0  0  0  0  0  0  0  0  0  0  0
    9.7670   23.1660   -1.0585 N   0  0  0  0  0  0  0  0  0  0  0  0
  1  3  1  1  0  0  0
  1  5  2  0  0  0  0
  1  9  1  0  0  0  0
  1 18  1  0  0  0  0
  2  4  1  6  0  0  0
  2  6  2  0  0  0  0
  2 10  1  0  0  0  0
  2 17  1  0  0  0  0
  7  9  1  0  0  0  0
  8 10  1  0  0  0  0
 11  7  1  1  0  0  0
 11 13  1  0  0  0  0
 11 15  1  0  0  0  0
 12  8  1  6  0  0  0
 12 14  1  0  0  0  0
 12 16  1  0  0  0  0
 13 23  1  0  0  0  0
 14 24  1  0  0  0  0
 15 17  1  6  0  0  0
 15 19  1  0  0  0  0
 16 18  1  1  0  0  0
 16 20  1  0  0  0  0
 19 21  1  1  0  0  0
 19 23  1  0  0  0  0
 20 22  1  1  0  0  0
 20 24  1  0  0  0  0
 23 34  1  1  0  0  0
 24 44  1  6  0  0  0
 25 26  2  0  0  0  0
 25 30  1  0  0  0  0
 26 27  1  0  0  0  0
 27 28  2  0  0  0  0
 28 29  1  0  0  0  0
 28 34  1  0  0  0  0
 29 30  2  0  0  0  0
 29 32  1  0  0  0  0
 30 31  1  0  0  0  0
 32 33  2  0  0  0  0
 33 34  1  0  0  0  0
 35 36  2  0  0  0  0
 35 40  1  0  0  0  0
 36 37  1  0  0  0  0
 37 38  2  0  0  0  0
 38 39  1  0  0  0  0
 38 44  1  0  0  0  0
 39 40  2  0  0  0  0
 39 42  1  0  0  0  0
 40 41  1  0  0  0  0
 42 43  2  0  0  0  0
 43 44  1  0  0  0  0
M  CHG  2   3  -1   4  -1
M  END
>  <CHROM.1>
5.82293246,93.55895226,13.93902389,24.05700809,-2.22690572,-0.20836978,0.22660922
0.72185960

>  <Name>
ligand

>  <RI>
0

>  <Rbt.Current_Directory>
/home/itssahil/PROJECTS/Mol_Feturizer/New_Systems/rnas/4QLM

>  <Rbt.Executable>
rbdock ($Id: //depot/dev/client3/rdock/2013.1/src/exe/rbdock.cxx#4 $)

>  <Rbt.Library>
libRbt.so (2013.1, Build901 2013/11/27)

>  <Rbt.Parameter_File>
/export/apps/rDock/src/rDock_2013.1_src/data/scripts/dock_solv.prm

>  <Rbt.Receptor>
prm/blind_docking_60.prm

>  <SCORE>
28.2518

>  <SCORE.INTER>
24.0013

>  <SCORE.INTER.CONST>
1

>  <SCORE.INTER.POLAR>
0

>  <SCORE.INTER.ROT>
2

>  <SCORE.INTER.SOLV>
55.0808

>  <SCORE.INTER.VDW>
-7.29271

>  <SCORE.INTER.norm>
0.545484

>  <SCORE.INTRA>
-0.381647

>  <SCORE.INTRA.DIHEDRAL>
0.120756

>  <SCORE.INTRA.DIHEDRAL.0>
2.32994

>  <SCORE.INTRA.POLAR>
0

>  <SCORE.INTRA.POLAR.0>
0

>  <SCORE.INTRA.REPUL>
0

>  <SCORE.INTRA.REPUL.0>
0

>  <SCORE.INTRA.SOLV>
0.0748367

>  <SCORE.INTRA.SOLV.lig_0>
-117.703

>  <SCORE.INTRA.VDW>
-0.479443

>  <SCORE.INTRA.VDW.0>
-1.59997

>  <SCORE.INTRA.norm>
-0.00867379

>  <SCORE.RESTR>
4.63216

>  <SCORE.RESTR.CAVITY>
4.63216

>  <SCORE.RESTR.norm>
0.105276

>  <SCORE.SYSTEM>
0

>  <SCORE.SYSTEM.CONST>
0

>  <SCORE.SYSTEM.DIHEDRAL>
0

>  <SCORE.SYSTEM.SOLV>
0

>  <SCORE.SYSTEM.norm>
0

>  <SCORE.heavy>
44

>  <SCORE.norm>
0.642087

>  <RMSD>
26.811

$$$$
ligand
 OpenBabel11021811513D
libRbt.so/2013.1/901 2013/11/27
 44 50  0  0  0  0  0  0  0  0999 V2000
   14.9278   23.3674    0.4838 P   0  0  2  0  0  0  0  0  0  0  0  0
   12.8188   26.9993   -2.9172 P   0  0  1  0  0  0  0  0  0  0  0  0
   16.0511   23.6191    1.4865 O   0  5  0  0  0  0  0  0  0  0  0  0
   12.6640   26.2616   -4.2248 O   0  5  0  0  0  0  0  0  0  0  0  0
   14.9774   21.8936    0.1600 O   0  0  0  0  0  0  0  0  0  0  0  0
   12.0220   28.3185   -3.0349 O   0  0  0  0  0  0  0  0  0  0  0  0
   15.9587   25.5043   -0.4175 C   0  0  0  0  0  0  0  0  0  0  0  0
   12.5529   26.4130   -0.4164 C   0  0  0  0  0  0  0  0  0  0  0  0
   15.2541   24.2953   -0.7308 O   0  0  0  0  0  0  0  0  0  0  0  0
   12.3632   25.9125   -1.7700 O   0  0  0  0  0  0  0  0  0  0  0  0
   16.2520   26.2869   -1.6930 C   0  0  1  0  0  0  0  0  0  0  0  0
   11.9457   25.3228    0.5449 C   0  0  1  0  0  0  0  0  0  0  0  0
   17.3459   25.8204   -2.2109 O   0  0  0  0  0  0  0  0  0  0  0  0
   10.7775   25.0984    0.0988 O   0  0  0  0  0  0  0  0  0  0  0  0
   15.1768   26.1377   -2.7446 C   0  0  1  0  0  0  0  0  0  0  0  0
   12.6465   23.9634    0.3502 C   0  0  1  0  0  0  0  0  0  0  0  0
   14.4046   27.2542   -2.6723 O   0  0  0  0  0  0  0  0  0  0  0  0
   13.5410   23.7323    1.3189 O   0  0  0  0  0  0  0  0  0  0  0  0
   15.9796   26.1170   -4.0919 C   0  0  1  0  0  0  0  0  0  0  0  0
   11.5403   22.8839    0.3416 C   0  0  1  0  0  0  0  0  0  0  0  0
   15.8969   27.4455   -4.7565 O   0  0  0  0  0  0  0  0  0  0  0  0
   11.4924   22.1712    1.6588 O   0  0  0  0  0  0  0  0  0  0  0  0
   17.2036   25.8233   -3.7899 C   0  0  2  0  0  0  0  0  0  0  0  0
   10.4424   23.5347    0.1626 C   0  0  2  0  0  0  0  0  0  0  0  0
   18.5873   20.6453   -3.4820 N   0  0  0  0  0  0  0  0  0  0  0  0
   18.3109   21.4582   -2.4238 C   0  0  0  0  0  0  0  0  0  0  0  0
   17.9640   22.7723   -2.6093 N   0  0  0  0  0  0  0  0  0  0  0  0
   17.8994   23.2682   -3.8822 C   0  0  0  0  0  0  0  0  0  0  0  0
   18.1755   22.4828   -4.9325 C   0  0  0  0  0  0  0  0  0  0  0  0
   18.5179   21.1461   -4.7357 C   0  0  0  0  0  0  0  0  0  0  0  0
   18.8295   20.2191   -5.7498 N   0  0  0  0  0  0  0  0  0  0  0  0
   18.0301   23.2230   -6.0520 N   0  0  0  0  0  0  0  0  0  0  0  0
   17.6664   24.4825   -5.6772 C   0  0  0  0  0  0  0  0  0  0  0  0
   17.5683   24.5081   -4.3416 N   0  0  0  0  0  0  0  0  0  0  0  0
   10.7341   21.6258   -4.6739 N   0  0  0  0  0  0  0  0  0  0  0  0
   11.7656   21.8171   -3.8103 C   0  0  0  0  0  0  0  0  0  0  0  0
   11.5204   22.3379   -2.5710 N   0  0  0  0  0  0  0  0  0  0  0  0
   10.2510   22.6578   -2.2011 C   0  0  0  0  0  0  0  0  0  0  0  0
    9.2219   22.4665   -3.0511 C   0  0  0  0  0  0  0  0  0  0  0  0
    9.4812   21.9393   -4.3129 C   0  0  0  0  0  0  0  0  0  0  0  0
    8.5479   21.6717   -5.3771 N   0  0  0  0  0  0  0  0  0  0  0  0
    8.0943   22.8723   -2.4198 N   0  0  0  0  0  0  0  0  0  0  0  0
    8.4357   23.3094   -1.1739 C   0  0  0  0  0  0  0  0  0  0  0  0
    9.7709   23.1698   -1.0474 N   0  0  0  0  0  0  0  0  0  0  0  0
  1  3  1  1  0  0  0
  1  5  2  0  0  0  0
  1  9  1  0  0  0  0
  1 18  1  0  0  0  0
  2  4  1  6  0  0  0
  2  6  2  0  0  0  0
  2 10  1  0  0  0  0
  2 17  1  0  0  0  0
  7  9  1  0  0  0  0
  8 10  1  0  0  0  0
 11  7  1  1  0  0  0
 11 13  1  0  0  0  0
 11 15  1  0  0  0  0
 12  8  1  6  0  0  0
 12 14  1  0  0  0  0
 12 16  1  0  0  0  0
 13 23  1  0  0  0  0
 14 24  1  0  0  0  0
 15 17  1  6  0  0  0
 15 19  1  0  0  0  0
 16 18  1  1  0  0  0
 16 20  1  0  0  0  0
 19 21  1  1  0  0  0
 19 23  1  0  0  0  0
 20 22  1  1  0  0  0
 20 24  1  0  0  0  0
 23 34  1  1  0  0  0
 24 44  1  6  0  0  0
 25 26  2  0  0  0  0
 25 30  1  0  0  0  0
 26 27  1  0  0  0  0
 27 28  2  0  0  0  0
 28 29  1  0  0  0  0
 28 34  1  0  0  0  0
 29 30  2  0  0  0  0
 29 32  1  0  0  0  0
 30 31  1  0  0  0  0
 32 33  2  0  0  0  0
 33 34  1  0  0  0  0
 35 36  2  0  0  0  0
 35 40  1  0  0  0  0
 36 37  1  0  0  0  0
 37 38  2  0  0  0  0
 38 39  1  0  0  0  0
 38 44  1  0  0  0  0
 39 40  2  0  0  0  0
 39 42  1  0  0  0  0
 40 41  1  0  0  0  0
 42 43  2  0  0  0  0
 43 44  1  0  0  0  0
M  CHG  2   3  -1   4  -1
M  END
>  <CHROM.1>
6.04462016,94.57326115,13.93987548,24.05749150,-2.22126820,-0.20284356,0.23444859
0.69725960

>  <Name>
ligand

>  <RI>
0

>  <Rbt.Current_Directory>
/home/itssahil/PROJECTS/Mol_Feturizer/New_Systems/rnas/4QLM

>  <Rbt.Executable>
rbdock ($Id: //depot/dev/client3/rdock/2013.1/src/exe/rbdock.cxx#4 $)

>  <Rbt.Library>
libRbt.so (2013.1, Build901 2013/11/27)

>  <Rbt.Parameter_File>
/export/apps/rDock/src/rDock_2013.1_src/data/scripts/dock_solv.prm

>  <Rbt.Receptor>
prm/blind_docking_60.prm

>  <SCORE>
28.1242

>  <SCORE.INTER>
23.7948

>  <SCORE.INTER.CONST>
1

>  <SCORE.INTER.POLAR>
0

>  <SCORE.INTER.ROT>
2

>  <SCORE.INTER.SOLV>
54.8483

>  <SCORE.INTER.VDW>
-7.35289

>  <SCORE.INTER.norm>
0.540791

>  <SCORE.INTRA>
-0.340466

>  <SCORE.INTRA.DIHEDRAL>
0.121759

>  <SCORE.INTRA.DIHEDRAL.0>
2.32994

>  <SCORE.INTRA.POLAR>
0

>  <SCORE.INTRA.POLAR.0>
0

>  <SCORE.INTRA.REPUL>
0

>  <SCORE.INTRA.REPUL.0>
0

>  <SCORE.INTRA.SOLV>
0.075254

>  <SCORE.INTRA.SOLV.lig_0>
-117.703

>  <SCORE.INTRA.VDW>
-0.438973

>  <SCORE.INTRA.VDW.0>
-1.59997

>  <SCORE.INTRA.norm>
-0.00773787

>  <SCORE.RESTR>
4.66985

>  <SCORE.RESTR.CAVITY>
4.66985

>  <SCORE.RESTR.norm>
0.106133

>  <SCORE.SYSTEM>
0

>  <SCORE.SYSTEM.CONST>
0

>  <SCORE.SYSTEM.DIHEDRAL>
0

>  <SCORE.SYSTEM.SOLV>
0

>  <SCORE.SYSTEM.norm>
0

>  <SCORE.heavy>
44

>  <SCORE.norm>
0.639186

>  <RMSD>
26.813

$$$$
ligand
 OpenBabel11021811513D
libRbt.so/2013.1/901 2013/11/27
 44 50  0  0  0  0  0  0  0  0999 V2000
   15.1437   23.3429    0.6450 P   0  0  2  0  0  0  0  0  0  0  0  0
   13.4123   27.3781   -2.5054 P   0  0  1  0  0  0  0  0  0  0  0  0
   16.2642   23.4249    1.6785 O   0  5  0  0  0  0  0  0  0  0  0  0
   13.2221   26.7533   -3.8660 O   0  5  0  0  0  0  0  0  0  0  0  0
   15.0763   21.8976    0.2135 O   0  0  0  0  0  0  0  0  0  0  0  0
   12.7309   28.7651   -2.5356 O   0  0  0  0  0  0  0  0  0  0  0  0
   16.3668   25.4446   -0.0816 C   0  0  0  0  0  0  0  0  0  0  0  0
   13.0494   26.6361   -0.0587 C   0  0  0  0  0  0  0  0  0  0  0  0
   15.5700   24.3257   -0.4930 O   0  0  0  0  0  0  0  0  0  0  0  0
   12.8452   26.2532   -1.4481 O   0  0  0  0  0  0  0  0  0  0  0  0
   16.7494   26.2902   -1.2915 C   0  0  1  0  0  0  0  0  0  0  0  0
   12.3346   25.5342    0.8110 C   0  0  1  0  0  0  0  0  0  0  0  0
   17.8105   25.7717   -1.8279 O   0  0  0  0  0  0  0  0  0  0  0  0
   11.1607   25.4427    0.3339 O   0  0  0  0  0  0  0  0  0  0  0  0
   15.6863   26.3095   -2.3656 C   0  0  1  0  0  0  0  0  0  0  0  0
   12.9232   24.1382    0.5254 C   0  0  1  0  0  0  0  0  0  0  0  0
   15.0087   27.4793   -2.2211 O   0  0  0  0  0  0  0  0  0  0  0  0
   13.7761   23.7622    1.4862 O   0  0  0  0  0  0  0  0  0  0  0  0
   16.5107   26.3189   -3.6999 C   0  0  1  0  0  0  0  0  0  0  0  0
   11.7311   23.1597    0.4220 C   0  0  1  0  0  0  0  0  0  0  0  0
   16.5523   27.6945   -4.2652 O   0  0  0  0  0  0  0  0  0  0  0  0
   11.5981   22.3598    1.6820 O   0  0  0  0  0  0  0  0  0  0  0  0
   17.6998   25.9014   -3.4041 C   0  0  2  0  0  0  0  0  0  0  0  0
   10.6950   23.9125    0.2771 C   0  0  2  0  0  0  0  0  0  0  0  0
   16.3224   21.1674   -5.5284 N   0  0  0  0  0  0  0  0  0  0  0  0
   15.4580   22.1013   -5.0409 C   0  0  0  0  0  0  0  0  0  0  0  0
   15.9123   23.2851   -4.5178 N   0  0  0  0  0  0  0  0  0  0  0  0
   17.2586   23.5234   -4.4863 C   0  0  0  0  0  0  0  0  0  0  0  0
   18.1215   22.6114   -4.9555 C   0  0  0  0  0  0  0  0  0  0  0  0
   17.6509   21.4151   -5.4940 C   0  0  0  0  0  0  0  0  0  0  0  0
   18.4489   20.3789   -6.0181 N   0  0  0  0  0  0  0  0  0  0  0  0
   19.3685   23.1061   -4.8054 N   0  0  0  0  0  0  0  0  0  0  0  0
   19.2642   24.3371   -4.2285 C   0  0  0  0  0  0  0  0  0  0  0  0
   17.9642   24.6037   -4.0469 N   0  0  0  0  0  0  0  0  0  0  0  0
    9.1660   20.5784   -3.4196 N   0  0  0  0  0  0  0  0  0  0  0  0
    9.8782   20.2831   -2.3007 C   0  0  0  0  0  0  0  0  0  0  0  0
   10.2078   21.2813   -1.4277 N   0  0  0  0  0  0  0  0  0  0  0  0
    9.8209   22.5620   -1.6735 C   0  0  0  0  0  0  0  0  0  0  0  0
    9.1100   22.8617   -2.7794 C   0  0  0  0  0  0  0  0  0  0  0  0
    8.7820   21.8395   -3.6653 C   0  0  0  0  0  0  0  0  0  0  0  0
    8.0539   21.9324   -4.9048 N   0  0  0  0  0  0  0  0  0  0  0  0
    8.8734   24.1953   -2.7598 N   0  0  0  0  0  0  0  0  0  0  0  0
    9.4385   24.7131   -1.6318 C   0  0  0  0  0  0  0  0  0  0  0  0
   10.0192   23.6948   -0.9655 N   0  0  0  0  0  0  0  0  0  0  0  0
  1  3  1  1  0  0  0
  1  5  2  0  0  0  0
  1  9  1  0  0  0  0
  1 18  1  0  0  0  0
  2  4  1  6  0  0  0
  2  6  2  0  0  0  0
  2 10  1  0  0  0  0
  2 17  1  0  0  0  0
  7  9  1  0  0  0  0
  8 10  1  0  0  0  0
 11  7  1  1  0  0  0
 11 13  1  0  0  0  0
 11 15  1  0  0  0  0
 12  8  1  6  0  0  0
 12 14  1  0  0  0  0
 12 16  1  0  0  0  0
 13 23  1  0  0  0  0
 14 24  1  0  0  0  0
 15 17  1  1  0  0  0
 15 19  1  0  0  0  0
 16 18  1  1  0  0  0
 16 20  1  0  0  0  0
 19 21  1  1  0  0  0
 19 23  1  0  0  0  0
 20 22  1  1  0  0  0
 20 24  1  0  0  0  0
 23 34  1  6  0  0  0
 24 44  1  6  0  0  0
 25 26  2  0  0  0  0
 25 30  1  0  0  0  0
 26 27  1  0  0  0  0
 27 28  2  0  0  0  0
 28 29  1  0  0  0  0
 28 34  1  0  0  0  0
 29 30  2  0  0  0  0
 29 32  1  0  0  0  0
 30 31  1  0  0  0  0
 32 33  2  0  0  0  0
 33 34  1  0  0  0  0
 35 36  2  0  0  0  0
 35 40  1  0  0  0  0
 36 37  1  0  0  0  0
 37 38  2  0  0  0  0
 38 39  1  0  0  0  0
 38 44  1  0  0  0  0
 39 40  2  0  0  0  0
 39 42  1  0  0  0  0
 40 41  1  0  0  0  0
 42 43  2  0  0  0  0
 43 44  1  0  0  0  0
M  CHG  2   3  -1   4  -1
M  END
>  <CHROM.1>
92.84855201,156.22281179,13.97412232,24.20850682,-2.05257325,-0.08507314
0.32950665,0.70334228

>  <Name>
ligand

>  <RI>
0

>  <Rbt.Current_Directory>
/home/itssahil/PROJECTS/Mol_Feturizer/New_Systems/rnas/4QLM

>  <Rbt.Executable>
rbdock ($Id: //depot/dev/client3/rdock/2013.1/src/exe/rbdock.cxx#4 $)

>  <Rbt.Library>
libRbt.so (2013.1, Build901 2013/11/27)

>  <Rbt.Parameter_File>
/export/apps/rDock/src/rDock_2013.1_src/data/scripts/dock_solv.prm

>  <Rbt.Receptor>
prm/blind_docking_40.prm

>  <SCORE>
23.5855

>  <SCORE.INTER>
18.0443

>  <SCORE.INTER.CONST>
1

>  <SCORE.INTER.POLAR>
0

>  <SCORE.INTER.ROT>
2

>  <SCORE.INTER.SOLV>
46.9965

>  <SCORE.INTER.VDW>
-8.5693

>  <SCORE.INTER.norm>
0.410097

>  <SCORE.INTRA>
-0.0161682

>  <SCORE.INTRA.DIHEDRAL>
-0.0420032

>  <SCORE.INTRA.DIHEDRAL.0>
2.32994

>  <SCORE.INTRA.POLAR>
0

>  <SCORE.INTRA.POLAR.0>
0

>  <SCORE.INTRA.REPUL>
0

>  <SCORE.INTRA.REPUL.0>
0

>  <SCORE.INTRA.SOLV>
0.0737454

>  <SCORE.INTRA.SOLV.lig_0>
-117.703

>  <SCORE.INTRA.VDW>
-0.0320394

>  <SCORE.INTRA.VDW.0>
-1.59997

>  <SCORE.INTRA.norm>
-0.00036746

>  <SCORE.RESTR>
5.5574

>  <SCORE.RESTR.CAVITY>
5.5574

>  <SCORE.RESTR.norm>
0.126305

>  <SCORE.SYSTEM>
0

>  <SCORE.SYSTEM.CONST>
0

>  <SCORE.SYSTEM.DIHEDRAL>
0

>  <SCORE.SYSTEM.SOLV>
0

>  <SCORE.SYSTEM.norm>
0

>  <SCORE.heavy>
44

>  <SCORE.norm>
0.536034

>  <RMSD>
26.814

$$$$
ligand
 OpenBabel11021811513D
libRbt.so/2013.1/901 2013/11/27
 44 50  0  0  0  0  0  0  0  0999 V2000
   12.8147   27.4511   -2.1306 P   0  0  2  0  0  0  0  0  0  0  0  0
   15.3363   23.2840    0.2110 P   0  0  1  0  0  0  0  0  0  0  0  0
   11.8170   28.3918   -1.4597 O   0  5  0  0  0  0  0  0  0  0  0  0
   15.2774   22.1727   -0.8086 O   0  5  0  0  0  0  0  0  0  0  0  0
   12.4813   27.4672   -3.6030 O   0  0  0  0  0  0  0  0  0  0  0  0
   16.3491   22.8588    1.2983 O   0  0  0  0  0  0  0  0  0  0  0  0
   12.1335   26.1119   -0.0851 C   0  0  0  0  0  0  0  0  0  0  0  0
   15.6411   25.8473    0.1423 C   0  0  0  0  0  0  0  0  0  0  0  0
   12.5889   26.0653   -1.4441 O   0  0  0  0  0  0  0  0  0  0  0  0
   15.6564   24.6375   -0.6668 O   0  0  0  0  0  0  0  0  0  0  0  0
   11.9102   24.6988    0.4428 C   0  0  1  0  0  0  0  0  0  0  0  0
   16.0984   27.0178   -0.8078 C   0  0  1  0  0  0  0  0  0  0  0  0
   10.7213   24.3187    0.0902 O   0  0  0  0  0  0  0  0  0  0  0  0
   17.1784   26.6124   -1.3401 O   0  0  0  0  0  0  0  0  0  0  0  0
   12.8763   23.6882   -0.1315 C   0  0  1  0  0  0  0  0  0  0  0  0
   15.1539   27.1458   -2.0196 C   0  0  1  0  0  0  0  0  0  0  0  0
   13.8399   23.4941    0.8078 O   0  0  0  0  0  0  0  0  0  0  0  0
   14.2919   28.1577   -1.8617 O   0  0  0  0  0  0  0  0  0  0  0  0
   12.0039   22.3947   -0.2923 C   0  0  1  0  0  0  0  0  0  0  0  0
   16.0451   27.3598   -3.2642 C   0  0  1  0  0  0  0  0  0  0  0  0
   12.2846   21.4475    0.8201 O   0  0  0  0  0  0  0  0  0  0  0  0
   16.0425   28.8023   -3.6697 O   0  0  0  0  0  0  0  0  0  0  0  0
   10.7672   22.7770   -0.2768 C   0  0  2  0  0  0  0  0  0  0  0  0
   17.2296   27.0194   -2.8871 C   0  0  2  0  0  0  0  0  0  0  0  0
   10.7727   21.8072   -5.5570 N   0  0  0  0  0  0  0  0  0  0  0  0
   11.8781   21.9084   -4.7665 C   0  0  0  0  0  0  0  0  0  0  0  0
   11.7694   22.1582   -3.4222 N   0  0  0  0  0  0  0  0  0  0  0  0
   10.5258   22.3097   -2.8738 C   0  0  0  0  0  0  0  0  0  0  0  0
    9.4296   22.2200   -3.6397 C   0  0  0  0  0  0  0  0  0  0  0  0
    9.5485   21.9565   -5.0032 C   0  0  0  0  0  0  0  0  0  0  0  0
    8.4804   21.8383   -5.9143 N   0  0  0  0  0  0  0  0  0  0  0  0
    8.3537   22.4036   -2.8454 N   0  0  0  0  0  0  0  0  0  0  0  0
    8.8021   22.6160   -1.5753 C   0  0  0  0  0  0  0  0  0  0  0  0
   10.1394   22.5413   -1.5873 N   0  0  0  0  0  0  0  0  0  0  0  0
   18.3129   21.9293   -3.0794 N   0  0  0  0  0  0  0  0  0  0  0  0
   17.7667   22.6067   -2.0358 C   0  0  0  0  0  0  0  0  0  0  0  0
   17.5511   23.9518   -2.1433 N   0  0  0  0  0  0  0  0  0  0  0  0
   17.8758   24.6084   -3.2896 C   0  0  0  0  0  0  0  0  0  0  0  0
   18.4139   23.9418   -4.3309 C   0  0  0  0  0  0  0  0  0  0  0  0
   18.6338   22.5727   -4.2114 C   0  0  0  0  0  0  0  0  0  0  0  0
   19.2087   21.6736   -5.1790 N   0  0  0  0  0  0  0  0  0  0  0  0
   18.6323   24.8424   -5.3190 N   0  0  0  0  0  0  0  0  0  0  0  0
   18.2198   26.0662   -4.8806 C   0  0  0  0  0  0  0  0  0  0  0  0
   17.7510   25.9103   -3.6261 N   0  0  0  0  0  0  0  0  0  0  0  0
  1  3  1  1  0  0  0
  1  5  2  0  0  0  0
  1  9  1  0  0  0  0
  1 18  1  0  0  0  0
  2  4  1  6  0  0  0
  2  6  2  0  0  0  0
  2 10  1  0  0  0  0
  2 17  1  0  0  0  0
  7  9  1  0  0  0  0
  8 10  1  0  0  0  0
 11  7  1  6  0  0  0
 11 13  1  0  0  0  0
 11 15  1  0  0  0  0
 12  8  1  1  0  0  0
 12 14  1  0  0  0  0
 12 16  1  0  0  0  0
 13 23  1  0  0  0  0
 14 24  1  0  0  0  0
 15 17  1  1  0  0  0
 15 19  1  0  0  0  0
 16 18  1  1  0  0  0
 16 20  1  0  0  0  0
 19 21  1  1  0  0  0
 19 23  1  0  0  0  0
 20 22  1  1  0  0  0
 20 24  1  0  0  0  0
 23 34  1  6  0  0  0
 24 44  1  6  0  0  0
 25 26  2  0  0  0  0
 25 30  1  0  0  0  0
 26 27  1  0  0  0  0
 27 28  2  0  0  0  0
 28 29  1  0  0  0  0
 28 34  1  0  0  0  0
 29 30  2  0  0  0  0
 29 32  1  0  0  0  0
 30 31  1  0  0  0  0
 32 33  2  0  0  0  0
 33 34  1  0  0  0  0
 35 36  2  0  0  0  0
 35 40  1  0  0  0  0
 36 37  1  0  0  0  0
 37 38  2  0  0  0  0
 38 39  1  0  0  0  0
 38 44  1  0  0  0  0
 39 40  2  0  0  0  0
 39 42  1  0  0  0  0
 40 41  1  0  0  0  0
 42 43  2  0  0  0  0
 43 44  1  0  0  0  0
M  CHG  2   3  -1   4  -1
M  END
>  <CHROM.1>
102.13912426,17.20409128,14.05852331,24.41907011,-2.08820565,2.88086514,-0.17740606
-2.79464628

>  <Name>
ligand

>  <RI>
0

>  <Rbt.Current_Directory>
/home/itssahil/PROJECTS/Mol_Feturizer/New_Systems/rnas/4QLM

>  <Rbt.Executable>
rbdock ($Id: //depot/dev/client3/rdock/2013.1/src/exe/rbdock.cxx#4 $)

>  <Rbt.Library>
libRbt.so (2013.1, Build901 2013/11/27)

>  <Rbt.Parameter_File>
/export/apps/rDock/src/rDock_2013.1_src/data/scripts/dock_solv.prm

>  <Rbt.Receptor>
prm/blind_docking_40.prm

>  <SCORE>
18.6913

>  <SCORE.INTER>
11.1815

>  <SCORE.INTER.CONST>
1

>  <SCORE.INTER.POLAR>
0

>  <SCORE.INTER.ROT>
2

>  <SCORE.INTER.SOLV>
43.3219

>  <SCORE.INTER.VDW>
-11.9196

>  <SCORE.INTER.norm>
0.254126

>  <SCORE.INTRA>
-0.291176

>  <SCORE.INTRA.DIHEDRAL>
-0.0168702

>  <SCORE.INTRA.DIHEDRAL.0>
2.32994

>  <SCORE.INTRA.POLAR>
0

>  <SCORE.INTRA.POLAR.0>
0

>  <SCORE.INTRA.REPUL>
0

>  <SCORE.INTRA.REPUL.0>
0

>  <SCORE.INTRA.SOLV>
1.51282

>  <SCORE.INTRA.SOLV.lig_0>
-117.703

>  <SCORE.INTRA.VDW>
-1.03915

>  <SCORE.INTRA.VDW.0>
-1.59997

>  <SCORE.INTRA.norm>
-0.00661764

>  <SCORE.RESTR>
7.80092

>  <SCORE.RESTR.CAVITY>
7.80092

>  <SCORE.RESTR.norm>
0.177294

>  <SCORE.SYSTEM>
0

>  <SCORE.SYSTEM.CONST>
0

>  <SCORE.SYSTEM.DIHEDRAL>
0

>  <SCORE.SYSTEM.SOLV>
0

>  <SCORE.SYSTEM.norm>
0

>  <SCORE.heavy>
44

>  <SCORE.norm>
0.424802

>  <RMSD>
26.816

$$$$
ligand
 OpenBabel11021811513D
libRbt.so/2013.1/901 2013/11/27
 44 50  0  0  0  0  0  0  0  0999 V2000
   14.9387   23.3750    0.4797 P   0  0  2  0  0  0  0  0  0  0  0  0
   12.8200   27.0014   -2.9211 P   0  0  1  0  0  0  0  0  0  0  0  0
   16.0560   23.6315    1.4879 O   0  5  0  0  0  0  0  0  0  0  0  0
   12.6758   26.2661   -4.2313 O   0  5  0  0  0  0  0  0  0  0  0  0
   14.9997   21.9023    0.1523 O   0  0  0  0  0  0  0  0  0  0  0  0
   12.0148   28.3155   -3.0388 O   0  0  0  0  0  0  0  0  0  0  0  0
   15.9590   25.5211   -0.4116 C   0  0  0  0  0  0  0  0  0  0  0  0
   12.5472   26.4068   -0.4230 C   0  0  0  0  0  0  0  0  0  0  0  0
   15.2640   24.3082   -0.7311 O   0  0  0  0  0  0  0  0  0  0  0  0
   12.3668   25.9085   -1.7787 O   0  0  0  0  0  0  0  0  0  0  0  0
   16.2526   26.3089   -1.6838 C   0  0  1  0  0  0  0  0  0  0  0  0
   11.9432   25.3100    0.5329 C   0  0  1  0  0  0  0  0  0  0  0  0
   17.3519   25.8512   -2.1982 O   0  0  0  0  0  0  0  0  0  0  0  0
   10.7785   25.0790    0.0812 O   0  0  0  0  0  0  0  0  0  0  0  0
   15.1829   26.1552   -2.7405 C   0  0  1  0  0  0  0  0  0  0  0  0
   12.6541   23.9559    0.3377 C   0  0  1  0  0  0  0  0  0  0  0  0
   14.4029   27.2664   -2.6686 O   0  0  0  0  0  0  0  0  0  0  0  0
   13.5459   23.7283    1.3097 O   0  0  0  0  0  0  0  0  0  0  0  0
   15.9917   26.1434   -4.0843 C   0  0  1  0  0  0  0  0  0  0  0  0
   11.5552   22.8690    0.3215 C   0  0  1  0  0  0  0  0  0  0  0  0
   15.9029   27.4731   -4.7458 O   0  0  0  0  0  0  0  0  0  0  0  0
   11.5065   22.1526    1.6367 O   0  0  0  0  0  0  0  0  0  0  0  0
   17.2163   25.8572   -3.7778 C   0  0  2  0  0  0  0  0  0  0  0  0
   10.4537   23.5129    0.1395 C   0  0  2  0  0  0  0  0  0  0  0  0
   18.5743   20.6718   -3.4796 N   0  0  0  0  0  0  0  0  0  0  0  0
   18.2707   21.4759   -2.4220 C   0  0  0  0  0  0  0  0  0  0  0  0
   17.9334   22.7928   -2.6049 N   0  0  0  0  0  0  0  0  0  0  0  0
   17.9063   23.3007   -3.8743 C   0  0  0  0  0  0  0  0  0  0  0  0
   18.2094   22.5242   -4.9238 C   0  0  0  0  0  0  0  0  0  0  0  0
   18.5419   21.1845   -4.7300 C   0  0  0  0  0  0  0  0  0  0  0  0
   18.8790   20.2658   -5.7435 N   0  0  0  0  0  0  0  0  0  0  0  0
   18.0981   23.2751   -6.0400 N   0  0  0  0  0  0  0  0  0  0  0  0
   17.7279   24.5324   -5.6638 C   0  0  0  0  0  0  0  0  0  0  0  0
   17.5923   24.5459   -4.3313 N   0  0  0  0  0  0  0  0  0  0  0  0
   10.7863   21.6714   -4.7204 N   0  0  0  0  0  0  0  0  0  0  0  0
   11.8139   21.8771   -3.8554 C   0  0  0  0  0  0  0  0  0  0  0  0
   11.5575   22.3765   -2.6095 N   0  0  0  0  0  0  0  0  0  0  0  0
   10.2811   22.6607   -2.2347 C   0  0  0  0  0  0  0  0  0  0  0  0
    9.2560   22.4548   -3.0861 C   0  0  0  0  0  0  0  0  0  0  0  0
    9.5266   21.9497   -4.3545 C   0  0  0  0  0  0  0  0  0  0  0  0
    8.5989   21.6725   -5.4211 N   0  0  0  0  0  0  0  0  0  0  0  0
    8.1195   22.8252   -2.4488 N   0  0  0  0  0  0  0  0  0  0  0  0
    8.4516   23.2551   -1.1979 C   0  0  0  0  0  0  0  0  0  0  0  0
    9.7899   23.1466   -1.0743 N   0  0  0  0  0  0  0  0  0  0  0  0
  1  3  1  1  0  0  0
  1  5  2  0  0  0  0
  1  9  1  0  0  0  0
  1 18  1  0  0  0  0
  2  4  1  6  0  0  0
  2  6  2  0  0  0  0
  2 10  1  0  0  0  0
  2 17  1  0  0  0  0
  7  9  1  0  0  0  0
  8 10  1  0  0  0  0
 11  7  1  1  0  0  0
 11 13  1  0  0  0  0
 11 15  1  0  0  0  0
 12  8  1  6  0  0  0
 12 14  1  0  0  0  0
 12 16  1  0  0  0  0
 13 23  1  0  0  0  0
 14 24  1  0  0  0  0
 15 17  1  6  0  0  0
 15 19  1  0  0  0  0
 16 18  1  1  0  0  0
 16 20  1  0  0  0  0
 19 21  1  1  0  0  0
 19 23  1  0  0  0  0
 20 22  1  1  0  0  0
 20 24  1  0  0  0  0
 23 34  1  1  0  0  0
 24 44  1  6  0  0  0
 25 26  2  0  0  0  0
 25 30  1  0  0  0  0
 26 27  1  0  0  0  0
 27 28  2  0  0  0  0
 28 29  1  0  0  0  0
 28 34  1  0  0  0  0
 29 30  2  0  0  0  0
 29 32  1  0  0  0  0
 30 31  1  0  0  0  0
 32 33  2  0  0  0  0
 33 34  1  0  0  0  0
 35 36  2  0  0  0  0
 35 40  1  0  0  0  0
 36 37  1  0  0  0  0
 37 38  2  0  0  0  0
 38 39  1  0  0  0  0
 38 44  1  0  0  0  0
 39 40  2  0  0  0  0
 39 42  1  0  0  0  0
 40 41  1  0  0  0  0
 42 43  2  0  0  0  0
 43 44  1  0  0  0  0
M  CHG  2   3  -1   4  -1
M  END
>  <CHROM.1>
7.57908266,93.37746290,13.95442205,24.06831754,-2.22941495,-0.20023787,0.23284534
0.71537486

>  <Name>
ligand

>  <RI>
0

>  <Rbt.Current_Directory>
/home/itssahil/PROJECTS/Mol_Feturizer/New_Systems/rnas/4QLM

>  <Rbt.Executable>
rbdock ($Id: //depot/dev/client3/rdock/2013.1/src/exe/rbdock.cxx#4 $)

>  <Rbt.Library>
libRbt.so (2013.1, Build901 2013/11/27)

>  <Rbt.Parameter_File>
/export/apps/rDock/src/rDock_2013.1_src/data/scripts/dock_solv.prm

>  <Rbt.Receptor>
prm/blind_docking_60.prm

>  <SCORE>
28.4775

>  <SCORE.INTER>
24.3609

>  <SCORE.INTER.CONST>
1

>  <SCORE.INTER.POLAR>
0

>  <SCORE.INTER.ROT>
2

>  <SCORE.INTER.SOLV>
54.8879

>  <SCORE.INTER.VDW>
-6.98873

>  <SCORE.INTER.norm>
0.553656

>  <SCORE.INTRA>
-0.465486

>  <SCORE.INTRA.DIHEDRAL>
0.129484

>  <SCORE.INTRA.DIHEDRAL.0>
2.32994

>  <SCORE.INTRA.POLAR>
0

>  <SCORE.INTRA.POLAR.0>
0

>  <SCORE.INTRA.REPUL>
0

>  <SCORE.INTRA.REPUL.0>
0

>  <SCORE.INTRA.SOLV>
0.0726808

>  <SCORE.INTRA.SOLV.lig_0>
-117.703

>  <SCORE.INTRA.VDW>
-0.566569

>  <SCORE.INTRA.VDW.0>
-1.59997

>  <SCORE.INTRA.norm>
-0.0105792

>  <SCORE.RESTR>
4.58215

>  <SCORE.RESTR.CAVITY>
4.58215

>  <SCORE.RESTR.norm>
0.10414

>  <SCORE.SYSTEM>
0

>  <SCORE.SYSTEM.CONST>
0

>  <SCORE.SYSTEM.DIHEDRAL>
0

>  <SCORE.SYSTEM.SOLV>
0

>  <SCORE.SYSTEM.norm>
0

>  <SCORE.heavy>
44

>  <SCORE.norm>
0.647217

>  <RMSD>
26.816

$$$$
ligand
 OpenBabel11021811513D
libRbt.so/2013.1/901 2013/11/27
 44 50  0  0  0  0  0  0  0  0999 V2000
   14.9856   23.4386    0.4597 P   0  0  2  0  0  0  0  0  0  0  0  0
   12.8821   27.0553   -2.9609 P   0  0  1  0  0  0  0  0  0  0  0  0
   16.1198   23.6898    1.4501 O   0  5  0  0  0  0  0  0  0  0  0  0
   12.7091   26.3057   -4.2594 O   0  5  0  0  0  0  0  0  0  0  0  0
   15.0185   21.9612    0.1507 O   0  0  0  0  0  0  0  0  0  0  0  0
   12.0968   28.3808   -3.0855 O   0  0  0  0  0  0  0  0  0  0  0  0
   16.0289   25.5561   -0.4725 C   0  0  0  0  0  0  0  0  0  0  0  0
   12.6320   26.4974   -0.4520 C   0  0  0  0  0  0  0  0  0  0  0  0
   15.3102   24.3508   -0.7672 O   0  0  0  0  0  0  0  0  0  0  0  0
   12.4260   25.9848   -1.7986 O   0  0  0  0  0  0  0  0  0  0  0  0
   16.3188   26.3227   -1.7585 C   0  0  1  0  0  0  0  0  0  0  0  0
   12.0228   25.4230    0.5257 C   0  0  1  0  0  0  0  0  0  0  0  0
   17.4037   25.8405   -2.2808 O   0  0  0  0  0  0  0  0  0  0  0  0
   10.8487   25.2052    0.0919 O   0  0  0  0  0  0  0  0  0  0  0  0
   15.2332   26.1730   -2.7993 C   0  0  1  0  0  0  0  0  0  0  0  0
   12.7090   24.0550    0.3392 C   0  0  1  0  0  0  0  0  0  0  0  0
   14.4722   27.2976   -2.7321 O   0  0  0  0  0  0  0  0  0  0  0  0
   13.6095   23.8253    1.3026 O   0  0  0  0  0  0  0  0  0  0  0  0
   16.0241   26.1307   -4.1531 C   0  0  1  0  0  0  0  0  0  0  0  0
   11.5926   22.9861    0.3512 C   0  0  1  0  0  0  0  0  0  0  0  0
   15.9484   27.4531   -4.8307 O   0  0  0  0  0  0  0  0  0  0  0  0
   11.5493   22.2876    1.6761 O   0  0  0  0  0  0  0  0  0  0  0  0
   17.2479   25.8285   -3.8584 C   0  0  2  0  0  0  0  0  0  0  0  0
   10.4994   23.6455    0.1748 C   0  0  2  0  0  0  0  0  0  0  0  0
   18.5817   20.6400   -3.5086 N   0  0  0  0  0  0  0  0  0  0  0  0
   18.3211   21.4662   -2.4567 C   0  0  0  0  0  0  0  0  0  0  0  0
   17.9861   22.7818   -2.6528 N   0  0  0  0  0  0  0  0  0  0  0  0
   17.9173   23.2657   -3.9301 C   0  0  0  0  0  0  0  0  0  0  0  0
   18.1778   22.4672   -4.9745 C   0  0  0  0  0  0  0  0  0  0  0  0
   18.5082   21.1291   -4.7667 C   0  0  0  0  0  0  0  0  0  0  0  0
   18.8031   20.1889   -5.7737 N   0  0  0  0  0  0  0  0  0  0  0  0
   18.0318   23.1975   -6.1003 N   0  0  0  0  0  0  0  0  0  0  0  0
   17.6835   24.4643   -5.7355 C   0  0  0  0  0  0  0  0  0  0  0  0
   17.5954   24.5042   -4.3995 N   0  0  0  0  0  0  0  0  0  0  0  0
   10.7202   21.6183   -4.6171 N   0  0  0  0  0  0  0  0  0  0  0  0
   11.7591   21.7964   -3.7595 C   0  0  0  0  0  0  0  0  0  0  0  0
   11.5331   22.3528   -2.5321 N   0  0  0  0  0  0  0  0  0  0  0  0
   10.2753   22.7214   -2.1680 C   0  0  0  0  0  0  0  0  0  0  0  0
    9.2389   22.5435   -3.0120 C   0  0  0  0  0  0  0  0  0  0  0  0
    9.4787   21.9796   -4.2617 C   0  0  0  0  0  0  0  0  0  0  0  0
    8.5351   21.7176   -5.3182 N   0  0  0  0  0  0  0  0  0  0  0  0
    8.1260   22.9994   -2.3885 N   0  0  0  0  0  0  0  0  0  0  0  0
    8.4838   23.4537   -1.1535 C   0  0  0  0  0  0  0  0  0  0  0  0
    9.8141   23.2746   -1.0256 N   0  0  0  0  0  0  0  0  0  0  0  0
  1  3  1  1  0  0  0
  1  5  2  0  0  0  0
  1  9  1  0  0  0  0
  1 18  1  0  0  0  0
  2  4  1  6  0  0  0
  2  6  2  0  0  0  0
  2 10  1  0  0  0  0
  2 17  1  0  0  0  0
  7  9  1  0  0  0  0
  8 10  1  0  0  0  0
 11  7  1  1  0  0  0
 11 13  1  0  0  0  0
 11 15  1  0  0  0  0
 12  8  1  6  0  0  0
 12 14  1  0  0  0  0
 12 16  1  0  0  0  0
 13 23  1  0  0  0  0
 14 24  1  0  0  0  0
 15 17  1  6  0  0  0
 15 19  1  0  0  0  0
 16 18  1  1  0  0  0
 16 20  1  0  0  0  0
 19 21  1  1  0  0  0
 19 23  1  0  0  0  0
 20 22  1  1  0  0  0
 20 24  1  0  0  0  0
 23 34  1  1  0  0  0
 24 44  1  6  0  0  0
 25 26  2  0  0  0  0
 25 30  1  0  0  0  0
 26 27  1  0  0  0  0
 27 28  2  0  0  0  0
 28 29  1  0  0  0  0
 28 34  1  0  0  0  0
 29 30  2  0  0  0  0
 29 32  1  0  0  0  0
 30 31  1  0  0  0  0
 32 33  2  0  0  0  0
 33 34  1  0  0  0  0
 35 36  2  0  0  0  0
 35 40  1  0  0  0  0
 36 37  1  0  0  0  0
 37 38  2  0  0  0  0
 38 39  1  0  0  0  0
 38 44  1  0  0  0  0
 39 40  2  0  0  0  0
 39 42  1  0  0  0  0
 40 41  1  0  0  0  0
 42 43  2  0  0  0  0
 43 44  1  0  0  0  0
M  CHG  2   3  -1   4  -1
M  END
>  <CHROM.1>
6.12987321,96.08955340,13.98000751,24.10512740,-2.24189465,-0.20598407,0.24346355
0.65546907

>  <Name>
ligand

>  <RI>
0

>  <Rbt.Current_Directory>
/home/itssahil/PROJECTS/Mol_Feturizer/New_Systems/rnas/4QLM

>  <Rbt.Executable>
rbdock ($Id: //depot/dev/client3/rdock/2013.1/src/exe/rbdock.cxx#4 $)

>  <Rbt.Library>
libRbt.so (2013.1, Build901 2013/11/27)

>  <Rbt.Parameter_File>
/export/apps/rDock/src/rDock_2013.1_src/data/scripts/dock_solv.prm

>  <Rbt.Receptor>
prm/blind_docking_40.prm

>  <SCORE>
27.9863

>  <SCORE.INTER>
23.8448

>  <SCORE.INTER.CONST>
1

>  <SCORE.INTER.POLAR>
0

>  <SCORE.INTER.ROT>
2

>  <SCORE.INTER.SOLV>
54.5925

>  <SCORE.INTER.VDW>
-7.23427

>  <SCORE.INTER.norm>
0.541928

>  <SCORE.INTRA>
-0.279073

>  <SCORE.INTRA.DIHEDRAL>
0.121958

>  <SCORE.INTRA.DIHEDRAL.0>
2.32994

>  <SCORE.INTRA.POLAR>
0

>  <SCORE.INTRA.POLAR.0>
0

>  <SCORE.INTRA.REPUL>
0

>  <SCORE.INTRA.REPUL.0>
0

>  <SCORE.INTRA.SOLV>
0.0768023

>  <SCORE.INTRA.SOLV.lig_0>
-117.703

>  <SCORE.INTRA.VDW>
-0.378453

>  <SCORE.INTRA.VDW.0>
-1.59997

>  <SCORE.INTRA.norm>
-0.00634257

>  <SCORE.RESTR>
4.42051

>  <SCORE.RESTR.CAVITY>
4.42051

>  <SCORE.RESTR.norm>
0.100466

>  <SCORE.SYSTEM>
0

>  <SCORE.SYSTEM.CONST>
0

>  <SCORE.SYSTEM.DIHEDRAL>
0

>  <SCORE.SYSTEM.SOLV>
0

>  <SCORE.SYSTEM.norm>
0

>  <SCORE.heavy>
44

>  <SCORE.norm>
0.636051

>  <RMSD>
26.817

$$$$
ligand
 OpenBabel11021811513D
libRbt.so/2013.1/901 2013/11/27
 44 50  0  0  0  0  0  0  0  0999 V2000
   14.9832   23.4353    0.4627 P   0  0  2  0  0  0  0  0  0  0  0  0
   12.8764   27.0527   -2.9552 P   0  0  1  0  0  0  0  0  0  0  0  0
   16.1176   23.6866    1.4528 O   0  5  0  0  0  0  0  0  0  0  0  0
   12.7032   26.3037   -4.2540 O   0  5  0  0  0  0  0  0  0  0  0  0
   15.0167   21.9580    0.1529 O   0  0  0  0  0  0  0  0  0  0  0  0
   12.0903   28.3778   -3.0788 O   0  0  0  0  0  0  0  0  0  0  0  0
   16.0250   25.5538   -0.4688 C   0  0  0  0  0  0  0  0  0  0  0  0
   12.6276   26.4933   -0.4465 C   0  0  0  0  0  0  0  0  0  0  0  0
   15.3068   24.3482   -0.7639 O   0  0  0  0  0  0  0  0  0  0  0  0
   12.4214   25.9812   -1.7933 O   0  0  0  0  0  0  0  0  0  0  0  0
   16.3139   26.3212   -1.7545 C   0  0  1  0  0  0  0  0  0  0  0  0
   12.0193   25.4180    0.5309 C   0  0  1  0  0  0  0  0  0  0  0  0
   17.3989   25.8398   -2.2775 O   0  0  0  0  0  0  0  0  0  0  0  0
   10.8452   25.1999    0.0975 O   0  0  0  0  0  0  0  0  0  0  0  0
   15.2280   26.1715   -2.7950 C   0  0  1  0  0  0  0  0  0  0  0  0
   12.7062   24.0505    0.3434 C   0  0  1  0  0  0  0  0  0  0  0  0
   14.4665   27.2956   -2.7269 O   0  0  0  0  0  0  0  0  0  0  0  0
   13.6072   23.8208    1.3064 O   0  0  0  0  0  0  0  0  0  0  0  0
   16.0184   26.1303   -4.1492 C   0  0  1  0  0  0  0  0  0  0  0  0
   11.5903   22.9810    0.3553 C   0  0  1  0  0  0  0  0  0  0  0  0
   15.9417   27.4530   -4.8260 O   0  0  0  0  0  0  0  0  0  0  0  0
   11.5479   22.2818    1.6799 O   0  0  0  0  0  0  0  0  0  0  0  0
   17.2424   25.8285   -3.8551 C   0  0  2  0  0  0  0  0  0  0  0  0
   10.4967   23.6400    0.1797 C   0  0  2  0  0  0  0  0  0  0  0  0
   18.5849   20.6421   -3.5085 N   0  0  0  0  0  0  0  0  0  0  0  0
   18.3261   21.4681   -2.4559 C   0  0  0  0  0  0  0  0  0  0  0  0
   17.9886   22.7831   -2.6513 N   0  0  0  0  0  0  0  0  0  0  0  0
   17.9154   23.2668   -3.9284 C   0  0  0  0  0  0  0  0  0  0  0  0
   18.1743   22.4685   -4.9734 C   0  0  0  0  0  0  0  0  0  0  0  0
   18.5073   21.1310   -4.7665 C   0  0  0  0  0  0  0  0  0  0  0  0
   18.8008   20.1911   -5.7741 N   0  0  0  0  0  0  0  0  0  0  0  0
   18.0241   23.1986   -6.0989 N   0  0  0  0  0  0  0  0  0  0  0  0
   17.6749   24.4649   -5.7333 C   0  0  0  0  0  0  0  0  0  0  0  0
   17.5904   24.5047   -4.3971 N   0  0  0  0  0  0  0  0  0  0  0  0
   10.7125   21.5933   -4.6042 N   0  0  0  0  0  0  0  0  0  0  0  0
   11.7510   21.7674   -3.7453 C   0  0  0  0  0  0  0  0  0  0  0  0
   11.5266   22.3300   -2.5204 N   0  0  0  0  0  0  0  0  0  0  0  0
   10.2707   22.7086   -2.1600 C   0  0  0  0  0  0  0  0  0  0  0  0
    9.2346   22.5348   -3.0054 C   0  0  0  0  0  0  0  0  0  0  0  0
    9.4728   21.9646   -4.2525 C   0  0  0  0  0  0  0  0  0  0  0  0
    8.5295   21.7052   -5.3098 N   0  0  0  0  0  0  0  0  0  0  0  0
    8.1238   23.0007   -2.3858 N   0  0  0  0  0  0  0  0  0  0  0  0
    8.4824   23.4571   -1.1517 C   0  0  0  0  0  0  0  0  0  0  0  0
    9.8112   23.2694   -1.0206 N   0  0  0  0  0  0  0  0  0  0  0  0
  1  3  1  1  0  0  0
  1  5  2  0  0  0  0
  1  9  1  0  0  0  0
  1 18  1  0  0  0  0
  2  4  1  6  0  0  0
  2  6  2  0  0  0  0
  2 10  1  0  0  0  0
  2 17  1  0  0  0  0
  7  9  1  0  0  0  0
  8 10  1  0  0  0  0
 11  7  1  1  0  0  0
 11 13  1  0  0  0  0
 11 15  1  0  0  0  0
 12  8  1  6  0  0  0
 12 14  1  0  0  0  0
 12 16  1  0  0  0  0
 13 23  1  0  0  0  0
 14 24  1  0  0  0  0
 15 17  1  6  0  0  0
 15 19  1  0  0  0  0
 16 18  1  1  0  0  0
 16 20  1  0  0  0  0
 19 21  1  1  0  0  0
 19 23  1  0  0  0  0
 20 22  1  1  0  0  0
 20 24  1  0  0  0  0
 23 34  1  1  0  0  0
 24 44  1  6  0  0  0
 25 26  2  0  0  0  0
 25 30  1  0  0  0  0
 26 27  1  0  0  0  0
 27 28  2  0  0  0  0
 28 29  1  0  0  0  0
 28 34  1  0  0  0  0
 29 30  2  0  0  0  0
 29 32  1  0  0  0  0
 30 31  1  0  0  0  0
 32 33  2  0  0  0  0
 33 34  1  0  0  0  0
 35 36  2  0  0  0  0
 35 40  1  0  0  0  0
 36 37  1  0  0  0  0
 37 38  2  0  0  0  0
 38 39  1  0  0  0  0
 38 44  1  0  0  0  0
 39 40  2  0  0  0  0
 39 42  1  0  0  0  0
 40 41  1  0  0  0  0
 42 43  2  0  0  0  0
 43 44  1  0  0  0  0
M  CHG  2   3  -1   4  -1
M  END
>  <CHROM.1>
5.97865676,96.59924989,13.97619261,24.10106747,-2.23746772,-0.20282316,0.24627501
0.64632670

>  <Name>
ligand

>  <RI>
0

>  <Rbt.Current_Directory>
/home/itssahil/PROJECTS/Mol_Feturizer/New_Systems/rnas/4QLM

>  <Rbt.Executable>
rbdock ($Id: //depot/dev/client3/rdock/2013.1/src/exe/rbdock.cxx#4 $)

>  <Rbt.Library>
libRbt.so (2013.1, Build901 2013/11/27)

>  <Rbt.Parameter_File>
/export/apps/rDock/src/rDock_2013.1_src/data/scripts/dock_solv.prm

>  <Rbt.Receptor>
prm/blind_docking_40.prm

>  <SCORE>
27.8978

>  <SCORE.INTER>
23.7115

>  <SCORE.INTER.CONST>
1

>  <SCORE.INTER.POLAR>
0

>  <SCORE.INTER.ROT>
2

>  <SCORE.INTER.SOLV>
54.5234

>  <SCORE.INTER.VDW>
-7.30014

>  <SCORE.INTER.norm>
0.538898

>  <SCORE.INTRA>
-0.256541

>  <SCORE.INTRA.DIHEDRAL>
0.121104

>  <SCORE.INTRA.DIHEDRAL.0>
2.32994

>  <SCORE.INTRA.POLAR>
0

>  <SCORE.INTRA.POLAR.0>
0

>  <SCORE.INTRA.REPUL>
0

>  <SCORE.INTRA.REPUL.0>
0

>  <SCORE.INTRA.SOLV>
0.0775048

>  <SCORE.INTRA.SOLV.lig_0>
-117.703

>  <SCORE.INTRA.VDW>
-0.355846

>  <SCORE.INTRA.VDW.0>
-1.59997

>  <SCORE.INTRA.norm>
-0.00583049

>  <SCORE.RESTR>
4.44285

>  <SCORE.RESTR.CAVITY>
4.44285

>  <SCORE.RESTR.norm>
0.100974

>  <SCORE.SYSTEM>
0

>  <SCORE.SYSTEM.CONST>
0

>  <SCORE.SYSTEM.DIHEDRAL>
0

>  <SCORE.SYSTEM.SOLV>
0

>  <SCORE.SYSTEM.norm>
0

>  <SCORE.heavy>
44

>  <SCORE.norm>
0.634041

>  <RMSD>
26.817

$$$$
ligand
 OpenBabel11021811513D
libRbt.so/2013.1/901 2013/11/27
 44 50  0  0  0  0  0  0  0  0999 V2000
   14.9858   23.4363    0.4609 P   0  0  2  0  0  0  0  0  0  0  0  0
   12.8784   27.0528   -2.9575 P   0  0  1  0  0  0  0  0  0  0  0  0
   16.1205   23.6879    1.4508 O   0  5  0  0  0  0  0  0  0  0  0  0
   12.7051   26.3035   -4.2562 O   0  5  0  0  0  0  0  0  0  0  0  0
   15.0193   21.9589    0.1515 O   0  0  0  0  0  0  0  0  0  0  0  0
   12.0924   28.3778   -3.0813 O   0  0  0  0  0  0  0  0  0  0  0  0
   16.0275   25.5546   -0.4713 C   0  0  0  0  0  0  0  0  0  0  0  0
   12.6301   26.4940   -0.4486 C   0  0  0  0  0  0  0  0  0  0  0  0
   15.3093   24.3490   -0.7659 O   0  0  0  0  0  0  0  0  0  0  0  0
   12.4236   25.9817   -1.7953 O   0  0  0  0  0  0  0  0  0  0  0  0
   16.3162   26.3217   -1.7572 C   0  0  1  0  0  0  0  0  0  0  0  0
   12.0220   25.4190    0.5291 C   0  0  1  0  0  0  0  0  0  0  0  0
   17.4011   25.8402   -2.2802 O   0  0  0  0  0  0  0  0  0  0  0  0
   10.8478   25.2008    0.0959 O   0  0  0  0  0  0  0  0  0  0  0  0
   15.2301   26.1717   -2.7975 C   0  0  1  0  0  0  0  0  0  0  0  0
   12.7089   24.0515    0.3418 C   0  0  1  0  0  0  0  0  0  0  0  0
   14.4686   27.2958   -2.7295 O   0  0  0  0  0  0  0  0  0  0  0  0
   13.6100   23.8220    1.3047 O   0  0  0  0  0  0  0  0  0  0  0  0
   16.0203   26.1302   -4.1517 C   0  0  1  0  0  0  0  0  0  0  0  0
   11.5930   22.9819    0.3541 C   0  0  1  0  0  0  0  0  0  0  0  0
   15.9435   27.4527   -4.8289 O   0  0  0  0  0  0  0  0  0  0  0  0
   11.5508   22.2830    1.6789 O   0  0  0  0  0  0  0  0  0  0  0  0
   17.2444   25.8285   -3.8578 C   0  0  2  0  0  0  0  0  0  0  0  0
   10.4994   23.6408    0.1785 C   0  0  2  0  0  0  0  0  0  0  0  0
   18.5825   20.6411   -3.5102 N   0  0  0  0  0  0  0  0  0  0  0  0
   18.3225   21.4669   -2.4578 C   0  0  0  0  0  0  0  0  0  0  0  0
   17.9863   22.7823   -2.6534 N   0  0  0  0  0  0  0  0  0  0  0  0
   17.9157   23.2663   -3.9305 C   0  0  0  0  0  0  0  0  0  0  0  0
   18.1757   22.4681   -4.9753 C   0  0  0  0  0  0  0  0  0  0  0  0
   18.5073   21.1303   -4.7681 C   0  0  0  0  0  0  0  0  0  0  0  0
   18.8019   20.1904   -5.7756 N   0  0  0  0  0  0  0  0  0  0  0  0
   18.0279   23.1985   -6.1009 N   0  0  0  0  0  0  0  0  0  0  0  0
   17.6790   24.4650   -5.7355 C   0  0  0  0  0  0  0  0  0  0  0  0
   17.5923   24.5046   -4.3995 N   0  0  0  0  0  0  0  0  0  0  0  0
   10.7151   21.5962   -4.6062 N   0  0  0  0  0  0  0  0  0  0  0  0
   11.7538   21.7711   -3.7478 C   0  0  0  0  0  0  0  0  0  0  0  0
   11.5294   22.3330   -2.5225 N   0  0  0  0  0  0  0  0  0  0  0  0
   10.2732   22.7101   -2.1614 C   0  0  0  0  0  0  0  0  0  0  0  0
    9.2370   22.5354   -3.0063 C   0  0  0  0  0  0  0  0  0  0  0  0
    9.4752   21.9660   -4.2538 C   0  0  0  0  0  0  0  0  0  0  0  0
    8.5316   21.7059   -5.3107 N   0  0  0  0  0  0  0  0  0  0  0  0
    8.1259   22.9999   -2.3860 N   0  0  0  0  0  0  0  0  0  0  0  0
    8.4846   23.4562   -1.1519 C   0  0  0  0  0  0  0  0  0  0  0  0
    9.8136   23.2699   -1.0216 N   0  0  0  0  0  0  0  0  0  0  0  0
  1  3  1  1  0  0  0
  1  5  2  0  0  0  0
  1  9  1  0  0  0  0
  1 18  1  0  0  0  0
  2  4  1  6  0  0  0
  2  6  2  0  0  0  0
  2 10  1  0  0  0  0
  2 17  1  0  0  0  0
  7  9  1  0  0  0  0
  8 10  1  0  0  0  0
 11  7  1  1  0  0  0
 11 13  1  0  0  0  0
 11 15  1  0  0  0  0
 12  8  1  6  0  0  0
 12 14  1  0  0  0  0
 12 16  1  0  0  0  0
 13 23  1  0  0  0  0
 14 24  1  0  0  0  0
 15 17  1  6  0  0  0
 15 19  1  0  0  0  0
 16 18  1  1  0  0  0
 16 20  1  0  0  0  0
 19 21  1  1  0  0  0
 19 23  1  0  0  0  0
 20 22  1  1  0  0  0
 20 24  1  0  0  0  0
 23 34  1  1  0  0  0
 24 44  1  6  0  0  0
 25 26  2  0  0  0  0
 25 30  1  0  0  0  0
 26 27  1  0  0  0  0
 27 28  2  0  0  0  0
 28 29  1  0  0  0  0
 28 34  1  0  0  0  0
 29 30  2  0  0  0  0
 29 32  1  0  0  0  0
 30 31  1  0  0  0  0
 32 33  2  0  0  0  0
 33 34  1  0  0  0  0
 35 36  2  0  0  0  0
 35 40  1  0  0  0  0
 36 37  1  0  0  0  0
 37 38  2  0  0  0  0
 38 39  1  0  0  0  0
 38 44  1  0  0  0  0
 39 40  2  0  0  0  0
 39 42  1  0  0  0  0
 40 41  1  0  0  0  0
 42 43  2  0  0  0  0
 43 44  1  0  0  0  0
M  CHG  2   3  -1   4  -1
M  END
>  <CHROM.1>
6.09656697,96.52421851,13.97819033,24.10156579,-2.23934284,-0.20319380,0.24632732
0.64689612

>  <Name>
ligand

>  <RI>
0

>  <Rbt.Current_Directory>
/home/itssahil/PROJECTS/Mol_Feturizer/New_Systems/rnas/4QLM

>  <Rbt.Executable>
rbdock ($Id: //depot/dev/client3/rdock/2013.1/src/exe/rbdock.cxx#4 $)

>  <Rbt.Library>
libRbt.so (2013.1, Build901 2013/11/27)

>  <Rbt.Parameter_File>
/export/apps/rDock/src/rDock_2013.1_src/data/scripts/dock_solv.prm

>  <Rbt.Receptor>
prm/blind_docking_40.prm

>  <SCORE>
27.951

>  <SCORE.INTER>
23.7883

>  <SCORE.INTER.CONST>
1

>  <SCORE.INTER.POLAR>
0

>  <SCORE.INTER.ROT>
2

>  <SCORE.INTER.SOLV>
54.5391

>  <SCORE.INTER.VDW>
-7.25417

>  <SCORE.INTER.norm>
0.540643

>  <SCORE.INTRA>
-0.264183

>  <SCORE.INTRA.DIHEDRAL>
0.121712

>  <SCORE.INTRA.DIHEDRAL.0>
2.32994

>  <SCORE.INTRA.POLAR>
0

>  <SCORE.INTRA.POLAR.0>
0

>  <SCORE.INTRA.REPUL>
0

>  <SCORE.INTRA.REPUL.0>
0

>  <SCORE.INTRA.SOLV>
0.0772908

>  <SCORE.INTRA.SOLV.lig_0>
-117.703

>  <SCORE.INTRA.VDW>
-0.363684

>  <SCORE.INTRA.VDW.0>
-1.59997

>  <SCORE.INTRA.norm>
-0.00600415

>  <SCORE.RESTR>
4.42689

>  <SCORE.RESTR.CAVITY>
4.42689

>  <SCORE.RESTR.norm>
0.100611

>  <SCORE.SYSTEM>
0

>  <SCORE.SYSTEM.CONST>
0

>  <SCORE.SYSTEM.DIHEDRAL>
0

>  <SCORE.SYSTEM.SOLV>
0

>  <SCORE.SYSTEM.norm>
0

>  <SCORE.heavy>
44

>  <SCORE.norm>
0.63525

>  <RMSD>
26.818

$$$$
ligand
 OpenBabel11021811513D
libRbt.so/2013.1/901 2013/11/27
 44 50  0  0  0  0  0  0  0  0999 V2000
   14.9868   23.4362    0.4629 P   0  0  2  0  0  0  0  0  0  0  0  0
   12.8776   27.0545   -2.9526 P   0  0  1  0  0  0  0  0  0  0  0  0
   16.1217   23.6873    1.4525 O   0  5  0  0  0  0  0  0  0  0  0  0
   12.7040   26.3059   -4.2516 O   0  5  0  0  0  0  0  0  0  0  0  0
   15.0203   21.9590    0.1526 O   0  0  0  0  0  0  0  0  0  0  0  0
   12.0914   28.3795   -3.0753 O   0  0  0  0  0  0  0  0  0  0  0  0
   16.0278   25.5552   -0.4684 C   0  0  0  0  0  0  0  0  0  0  0  0
   12.6303   26.4942   -0.4439 C   0  0  0  0  0  0  0  0  0  0  0  0
   15.3096   24.3496   -0.7635 O   0  0  0  0  0  0  0  0  0  0  0  0
   12.4234   25.9826   -1.7908 O   0  0  0  0  0  0  0  0  0  0  0  0
   16.3159   26.3231   -1.7540 C   0  0  1  0  0  0  0  0  0  0  0  0
   12.0227   25.4185    0.5334 C   0  0  1  0  0  0  0  0  0  0  0  0
   17.4007   25.8421   -2.2777 O   0  0  0  0  0  0  0  0  0  0  0  0
   10.8484   25.2004    0.1005 O   0  0  0  0  0  0  0  0  0  0  0  0
   15.2295   26.1735   -2.7940 C   0  0  1  0  0  0  0  0  0  0  0  0
   12.7097   24.0512    0.3450 C   0  0  1  0  0  0  0  0  0  0  0  0
   14.4678   27.2976   -2.7250 O   0  0  0  0  0  0  0  0  0  0  0  0
   13.6112   23.8212    1.3074 O   0  0  0  0  0  0  0  0  0  0  0  0
   16.0192   26.1330   -4.1485 C   0  0  1  0  0  0  0  0  0  0  0  0
   11.5939   22.9815    0.3571 C   0  0  1  0  0  0  0  0  0  0  0  0
   15.9419   27.4559   -4.8249 O   0  0  0  0  0  0  0  0  0  0  0  0
   11.5523   22.2818    1.6815 O   0  0  0  0  0  0  0  0  0  0  0  0
   17.2434   25.8313   -3.8553 C   0  0  2  0  0  0  0  0  0  0  0  0
   10.5001   23.6404    0.1823 C   0  0  2  0  0  0  0  0  0  0  0  0
   18.5864   20.6448   -3.5112 N   0  0  0  0  0  0  0  0  0  0  0  0
   18.3278   21.4703   -2.4581 C   0  0  0  0  0  0  0  0  0  0  0  0
   17.9902   22.7855   -2.6529 N   0  0  0  0  0  0  0  0  0  0  0  0
   17.9166   23.2696   -3.9298 C   0  0  0  0  0  0  0  0  0  0  0  0
   18.1751   22.4718   -4.9752 C   0  0  0  0  0  0  0  0  0  0  0  0
   18.5082   21.1341   -4.7689 C   0  0  0  0  0  0  0  0  0  0  0  0
   18.8015   20.1947   -5.7771 N   0  0  0  0  0  0  0  0  0  0  0  0
   18.0244   23.2022   -6.1003 N   0  0  0  0  0  0  0  0  0  0  0  0
   17.6753   24.4684   -5.7341 C   0  0  0  0  0  0  0  0  0  0  0  0
   17.5913   24.5077   -4.3979 N   0  0  0  0  0  0  0  0  0  0  0  0
   10.7191   21.6243   -4.6143 N   0  0  0  0  0  0  0  0  0  0  0  0
   11.7589   21.8036   -3.7581 C   0  0  0  0  0  0  0  0  0  0  0  0
   11.5333   22.3567   -2.5291 N   0  0  0  0  0  0  0  0  0  0  0  0
   10.2750   22.7207   -2.1621 C   0  0  0  0  0  0  0  0  0  0  0  0
    9.2377   22.5416   -3.0048 C   0  0  0  0  0  0  0  0  0  0  0  0
    9.4770   21.9812   -4.2561 C   0  0  0  0  0  0  0  0  0  0  0  0
    8.5326   21.7187   -5.3117 N   0  0  0  0  0  0  0  0  0  0  0  0
    8.1245   22.9928   -2.3785 N   0  0  0  0  0  0  0  0  0  0  0  0
    8.4830   23.4454   -1.1430 C   0  0  0  0  0  0  0  0  0  0  0  0
    9.8140   23.2701   -1.0177 N   0  0  0  0  0  0  0  0  0  0  0  0
  1  3  1  1  0  0  0
  1  5  2  0  0  0  0
  1  9  1  0  0  0  0
  1 18  1  0  0  0  0
  2  4  1  6  0  0  0
  2  6  2  0  0  0  0
  2 10  1  0  0  0  0
  2 17  1  0  0  0  0
  7  9  1  0  0  0  0
  8 10  1  0  0  0  0
 11  7  1  1  0  0  0
 11 13  1  0  0  0  0
 11 15  1  0  0  0  0
 12  8  1  6  0  0  0
 12 14  1  0  0  0  0
 12 16  1  0  0  0  0
 13 23  1  0  0  0  0
 14 24  1  0  0  0  0
 15 17  1  6  0  0  0
 15 19  1  0  0  0  0
 16 18  1  1  0  0  0
 16 20  1  0  0  0  0
 19 21  1  1  0  0  0
 19 23  1  0  0  0  0
 20 22  1  1  0  0  0
 20 24  1  0  0  0  0
 23 34  1  1  0  0  0
 24 44  1  6  0  0  0
 25 26  2  0  0  0  0
 25 30  1  0  0  0  0
 26 27  1  0  0  0  0
 27 28  2  0  0  0  0
 28 29  1  0  0  0  0
 28 34  1  0  0  0  0
 29 30  2  0  0  0  0
 29 32  1  0  0  0  0
 30 31  1  0  0  0  0
 32 33  2  0  0  0  0
 33 34  1  0  0  0  0
 35 36  2  0  0  0  0
 35 40  1  0  0  0  0
 36 37  1  0  0  0  0
 37 38  2  0  0  0  0
 38 39  1  0  0  0  0
 38 44  1  0  0  0  0
 39 40  2  0  0  0  0
 39 42  1  0  0  0  0
 40 41  1  0  0  0  0
 42 43  2  0  0  0  0
 43 44  1  0  0  0  0
M  CHG  2   3  -1   4  -1
M  END
>  <CHROM.1>
5.98976677,95.93092784,13.97866154,24.10499773,-2.23741387,-0.20725614,0.24343840
0.66064365

>  <Name>
ligand

>  <RI>
0

>  <Rbt.Current_Directory>
/home/itssahil/PROJECTS/Mol_Feturizer/New_Systems/rnas/4QLM

>  <Rbt.Executable>
rbdock ($Id: //depot/dev/client3/rdock/2013.1/src/exe/rbdock.cxx#4 $)

>  <Rbt.Library>
libRbt.so (2013.1, Build901 2013/11/27)

>  <Rbt.Parameter_File>
/export/apps/rDock/src/rDock_2013.1_src/data/scripts/dock_solv.prm

>  <Rbt.Receptor>
prm/blind_docking_40.prm

>  <SCORE>
27.8913

>  <SCORE.INTER>
23.7215

>  <SCORE.INTER.CONST>
1

>  <SCORE.INTER.POLAR>
0

>  <SCORE.INTER.ROT>
2

>  <SCORE.INTER.SOLV>
54.5158

>  <SCORE.INTER.VDW>
-7.29091

>  <SCORE.INTER.norm>
0.539126

>  <SCORE.INTRA>
-0.277641

>  <SCORE.INTRA.DIHEDRAL>
0.121279

>  <SCORE.INTRA.DIHEDRAL.0>
2.32994

>  <SCORE.INTRA.POLAR>
0

>  <SCORE.INTRA.POLAR.0>
0

>  <SCORE.INTRA.REPUL>
0

>  <SCORE.INTRA.REPUL.0>
0

>  <SCORE.INTRA.SOLV>
0.0768

>  <SCORE.INTRA.SOLV.lig_0>
-117.703

>  <SCORE.INTRA.VDW>
-0.37668

>  <SCORE.INTRA.VDW.0>
-1.59997

>  <SCORE.INTRA.norm>
-0.00631001

>  <SCORE.RESTR>
4.44738

>  <SCORE.RESTR.CAVITY>
4.44738

>  <SCORE.RESTR.norm>
0.101077

>  <SCORE.SYSTEM>
0

>  <SCORE.SYSTEM.CONST>
0

>  <SCORE.SYSTEM.DIHEDRAL>
0

>  <SCORE.SYSTEM.SOLV>
0

>  <SCORE.SYSTEM.norm>
0

>  <SCORE.heavy>
44

>  <SCORE.norm>
0.633892

>  <RMSD>
26.818

$$$$
ligand
 OpenBabel11021811513D
libRbt.so/2013.1/901 2013/11/27
 44 50  0  0  0  0  0  0  0  0999 V2000
   13.3960   27.1375   -2.7900 P   0  0  2  0  0  0  0  0  0  0  0  0
   15.3104   23.4619    0.6786 P   0  0  1  0  0  0  0  0  0  0  0  0
   12.5399   28.3505   -2.4347 O   0  5  0  0  0  0  0  0  0  0  0  0
   15.0963   22.1341   -0.0064 O   0  5  0  0  0  0  0  0  0  0  0  0
   13.0678   26.7983   -4.2241 O   0  0  0  0  0  0  0  0  0  0  0  0
   16.2541   23.2153    1.8776 O   0  0  0  0  0  0  0  0  0  0  0  0
   12.5347   26.5081   -0.4871 C   0  0  0  0  0  0  0  0  0  0  0  0
   15.9709   25.8451   -0.0649 C   0  0  0  0  0  0  0  0  0  0  0  0
   12.9788   26.0335   -1.7654 O   0  0  0  0  0  0  0  0  0  0  0  0
   15.8165   24.4704   -0.5179 O   0  0  0  0  0  0  0  0  0  0  0  0
   12.1160   25.3347    0.3923 C   0  0  1  0  0  0  0  0  0  0  0  0
   16.5872   26.6411   -1.2765 C   0  0  1  0  0  0  0  0  0  0  0  0
   10.8855   25.0369    0.1102 O   0  0  0  0  0  0  0  0  0  0  0  0
   17.5997   25.9648   -1.6392 O   0  0  0  0  0  0  0  0  0  0  0  0
   12.9311   24.0856    0.1475 C   0  0  1  0  0  0  0  0  0  0  0  0
   15.6695   26.5616   -2.5129 C   0  0  1  0  0  0  0  0  0  0  0  0
   13.8583   24.0256    1.1400 O   0  0  0  0  0  0  0  0  0  0  0  0
   14.9576   27.6849   -2.6653 O   0  0  0  0  0  0  0  0  0  0  0  0
   11.8863   22.9268    0.3075 C   0  0  1  0  0  0  0  0  0  0  0  0
   16.5816   26.3077   -3.7347 C   0  0  1  0  0  0  0  0  0  0  0  0
   12.0320   22.2881    1.6433 O   0  0  0  0  0  0  0  0  0  0  0  0
   16.7807   27.5727   -4.5127 O   0  0  0  0  0  0  0  0  0  0  0  0
   10.7153   23.4619    0.1730 C   0  0  2  0  0  0  0  0  0  0  0  0
   17.7069   25.9261   -3.2356 C   0  0  2  0  0  0  0  0  0  0  0  0
    8.6807   19.6822   -3.0512 N   0  0  0  0  0  0  0  0  0  0  0  0
    9.2157   19.4693   -1.8161 C   0  0  0  0  0  0  0  0  0  0  0  0
    9.7101   20.5072   -1.0677 N   0  0  0  0  0  0  0  0  0  0  0  0
    9.6637   21.7748   -1.5788 C   0  0  0  0  0  0  0  0  0  0  0  0
    9.1471   21.9989   -2.7950 C   0  0  0  0  0  0  0  0  0  0  0  0
    8.6382   20.9399   -3.5449 C   0  0  0  0  0  0  0  0  0  0  0  0
    8.0707   21.0405   -4.8305 N   0  0  0  0  0  0  0  0  0  0  0  0
    9.2244   23.3242   -3.0396 N   0  0  0  0  0  0  0  0  0  0  0  0
    9.8046   23.9167   -1.9572 C   0  0  0  0  0  0  0  0  0  0  0  0
   10.0603   22.9663   -1.0487 N   0  0  0  0  0  0  0  0  0  0  0  0
   16.7752   21.7812   -6.2476 N   0  0  0  0  0  0  0  0  0  0  0  0
   16.0711   22.9430   -6.2206 C   0  0  0  0  0  0  0  0  0  0  0  0
   16.4435   23.9380   -5.3611 N   0  0  0  0  0  0  0  0  0  0  0  0
   17.5157   23.7694   -4.5412 C   0  0  0  0  0  0  0  0  0  0  0  0
   18.2219   22.6209   -4.5658 C   0  0  0  0  0  0  0  0  0  0  0  0
   17.8333   21.6112   -5.4414 C   0  0  0  0  0  0  0  0  0  0  0  0
   18.4235   20.3095   -5.6206 N   0  0  0  0  0  0  0  0  0  0  0  0
   19.2162   22.7373   -3.6532 N   0  0  0  0  0  0  0  0  0  0  0  0
   19.1204   23.9669   -3.0712 C   0  0  0  0  0  0  0  0  0  0  0  0
   18.0678   24.5983   -3.6292 N   0  0  0  0  0  0  0  0  0  0  0  0
  1  3  1  1  0  0  0
  1  5  2  0  0  0  0
  1  9  1  0  0  0  0
  1 18  1  0  0  0  0
  2  4  1  6  0  0  0
  2  6  2  0  0  0  0
  2 10  1  0  0  0  0
  2 17  1  0  0  0  0
  7  9  1  0  0  0  0
  8 10  1  0  0  0  0
 11  7  1  6  0  0  0
 11 13  1  0  0  0  0
 11 15  1  0  0  0  0
 12  8  1  1  0  0  0
 12 14  1  0  0  0  0
 12 16  1  0  0  0  0
 13 23  1  0  0  0  0
 14 24  1  0  0  0  0
 15 17  1  1  0  0  0
 15 19  1  0  0  0  0
 16 18  1  6  0  0  0
 16 20  1  0  0  0  0
 19 21  1  1  0  0  0
 19 23  1  0  0  0  0
 20 22  1  1  0  0  0
 20 24  1  0  0  0  0
 23 34  1  6  0  0  0
 24 44  1  1  0  0  0
 25 26  2  0  0  0  0
 25 30  1  0  0  0  0
 26 27  1  0  0  0  0
 27 28  2  0  0  0  0
 28 29  1  0  0  0  0
 28 34  1  0  0  0  0
 29 30  2  0  0  0  0
 29 32  1  0  0  0  0
 30 31  1  0  0  0  0
 32 33  2  0  0  0  0
 33 34  1  0  0  0  0
 35 36  2  0  0  0  0
 35 40  1  0  0  0  0
 36 37  1  0  0  0  0
 37 38  2  0  0  0  0
 38 39  1  0  0  0  0
 38 44  1  0  0  0  0
 39 40  2  0  0  0  0
 39 42  1  0  0  0  0
 40 41  1  0  0  0  0
 42 43  2  0  0  0  0
 43 44  1  0  0  0  0
M  CHG  2   3  -1   4  -1
M  END
>  <CHROM.1>
179.32206706,129.36057219,13.98068497,24.06087069,-2.10508310,0.07658297
0.38652000,0.69331488

>  <Name>
ligand

>  <RI>
0

>  <Rbt.Current_Directory>
/home/itssahil/PROJECTS/Mol_Feturizer/New_Systems/rnas/4QLM

>  <Rbt.Executable>
rbdock ($Id: //depot/dev/client3/rdock/2013.1/src/exe/rbdock.cxx#4 $)

>  <Rbt.Library>
libRbt.so (2013.1, Build901 2013/11/27)

>  <Rbt.Parameter_File>
/export/apps/rDock/src/rDock_2013.1_src/data/scripts/dock_solv.prm

>  <Rbt.Receptor>
prm/blind_docking_40.prm

>  <SCORE>
27.2319

>  <SCORE.INTER>
22.0569

>  <SCORE.INTER.CONST>
1

>  <SCORE.INTER.POLAR>
0

>  <SCORE.INTER.ROT>
2

>  <SCORE.INTER.SOLV>
49.3526

>  <SCORE.INTER.VDW>
-6.67957

>  <SCORE.INTER.norm>
0.501294

>  <SCORE.INTRA>
0.916315

>  <SCORE.INTRA.DIHEDRAL>
0.0596108

>  <SCORE.INTRA.DIHEDRAL.0>
2.32994

>  <SCORE.INTRA.POLAR>
0

>  <SCORE.INTRA.POLAR.0>
0

>  <SCORE.INTRA.REPUL>
0

>  <SCORE.INTRA.REPUL.0>
0

>  <SCORE.INTRA.SOLV>
0.0626168

>  <SCORE.INTRA.SOLV.lig_0>
-117.703

>  <SCORE.INTRA.VDW>
0.855201

>  <SCORE.INTRA.VDW.0>
-1.59997

>  <SCORE.INTRA.norm>
0.0208253

>  <SCORE.RESTR>
4.25865

>  <SCORE.RESTR.CAVITY>
4.25865

>  <SCORE.RESTR.norm>
0.0967876

>  <SCORE.SYSTEM>
0

>  <SCORE.SYSTEM.CONST>
0

>  <SCORE.SYSTEM.DIHEDRAL>
0

>  <SCORE.SYSTEM.SOLV>
0

>  <SCORE.SYSTEM.norm>
0

>  <SCORE.heavy>
44

>  <SCORE.norm>
0.618907

>  <RMSD>
26.819

$$$$
ligand
 OpenBabel11021811513D
libRbt.so/2013.1/901 2013/11/27
 44 50  0  0  0  0  0  0  0  0999 V2000
   14.9869   23.4364    0.4618 P   0  0  2  0  0  0  0  0  0  0  0  0
   12.8860   27.0590   -2.9541 P   0  0  1  0  0  0  0  0  0  0  0  0
   16.1215   23.6854    1.4524 O   0  5  0  0  0  0  0  0  0  0  0  0
   12.7121   26.3111   -4.2535 O   0  5  0  0  0  0  0  0  0  0  0  0
   15.0184   21.9592    0.1511 O   0  0  0  0  0  0  0  0  0  0  0  0
   12.1018   28.3853   -3.0770 O   0  0  0  0  0  0  0  0  0  0  0  0
   16.0319   25.5541   -0.4680 C   0  0  0  0  0  0  0  0  0  0  0  0
   12.6359   26.4983   -0.4458 C   0  0  0  0  0  0  0  0  0  0  0  0
   15.3121   24.3497   -0.7641 O   0  0  0  0  0  0  0  0  0  0  0  0
   12.4292   25.9874   -1.7931 O   0  0  0  0  0  0  0  0  0  0  0  0
   16.3222   26.3220   -1.7532 C   0  0  1  0  0  0  0  0  0  0  0  0
   12.0259   25.4232    0.5307 C   0  0  1  0  0  0  0  0  0  0  0  0
   17.4066   25.8394   -2.2762 O   0  0  0  0  0  0  0  0  0  0  0  0
   10.8515   25.2070    0.0968 O   0  0  0  0  0  0  0  0  0  0  0  0
   15.2363   26.1744   -2.7940 C   0  0  1  0  0  0  0  0  0  0  0  0
   12.7109   24.0549    0.3424 C   0  0  1  0  0  0  0  0  0  0  0  0
   14.4764   27.2996   -2.7253 O   0  0  0  0  0  0  0  0  0  0  0  0
   13.6113   23.8233    1.3054 O   0  0  0  0  0  0  0  0  0  0  0  0
   16.0270   26.1330   -4.1480 C   0  0  1  0  0  0  0  0  0  0  0  0
   11.5935   22.9869    0.3533 C   0  0  1  0  0  0  0  0  0  0  0  0
   15.9523   27.4562   -4.8240 O   0  0  0  0  0  0  0  0  0  0  0  0
   11.5498   22.2868    1.6774 O   0  0  0  0  0  0  0  0  0  0  0  0
   17.2506   25.8294   -3.8539 C   0  0  2  0  0  0  0  0  0  0  0  0
   10.5009   23.6475    0.1779 C   0  0  2  0  0  0  0  0  0  0  0  0
   18.5888   20.6417   -3.5103 N   0  0  0  0  0  0  0  0  0  0  0  0
   18.3317   21.4675   -2.4572 C   0  0  0  0  0  0  0  0  0  0  0  0
   17.9952   22.7829   -2.6518 N   0  0  0  0  0  0  0  0  0  0  0  0
   17.9212   23.2671   -3.9286 C   0  0  0  0  0  0  0  0  0  0  0  0
   18.1783   22.4689   -4.9742 C   0  0  0  0  0  0  0  0  0  0  0  0
   18.5103   21.1310   -4.7681 C   0  0  0  0  0  0  0  0  0  0  0  0
   18.8020   20.1912   -5.7764 N   0  0  0  0  0  0  0  0  0  0  0  0
   18.0276   23.1995   -6.0993 N   0  0  0  0  0  0  0  0  0  0  0  0
   17.6799   24.4660   -5.7329 C   0  0  0  0  0  0  0  0  0  0  0  0
   17.5968   24.5055   -4.3966 N   0  0  0  0  0  0  0  0  0  0  0  0
   10.7138   21.5978   -4.6048 N   0  0  0  0  0  0  0  0  0  0  0  0
   11.7521   21.7688   -3.7451 C   0  0  0  0  0  0  0  0  0  0  0  0
   11.5285   22.3328   -2.5207 N   0  0  0  0  0  0  0  0  0  0  0  0
   10.2736   22.7158   -2.1616 C   0  0  0  0  0  0  0  0  0  0  0  0
    9.2377   22.5451   -3.0077 C   0  0  0  0  0  0  0  0  0  0  0  0
    9.4750   21.9735   -4.2544 C   0  0  0  0  0  0  0  0  0  0  0  0
    8.5318   21.7168   -5.3124 N   0  0  0  0  0  0  0  0  0  0  0  0
    8.1279   23.0151   -2.3893 N   0  0  0  0  0  0  0  0  0  0  0  0
    8.4870   23.4709   -1.1551 C   0  0  0  0  0  0  0  0  0  0  0  0
    9.8151   23.2787   -1.0228 N   0  0  0  0  0  0  0  0  0  0  0  0
  1  3  1  1  0  0  0
  1  5  2  0  0  0  0
  1  9  1  0  0  0  0
  1 18  1  0  0  0  0
  2  4  1  6  0  0  0
  2  6  2  0  0  0  0
  2 10  1  0  0  0  0
  2 17  1  0  0  0  0
  7  9  1  0  0  0  0
  8 10  1  0  0  0  0
 11  7  1  1  0  0  0
 11 13  1  0  0  0  0
 11 15  1  0  0  0  0
 12  8  1  6  0  0  0
 12 14  1  0  0  0  0
 12 16  1  0  0  0  0
 13 23  1  0  0  0  0
 14 24  1  0  0  0  0
 15 17  1  6  0  0  0
 15 19  1  0  0  0  0
 16 18  1  1  0  0  0
 16 20  1  0  0  0  0
 19 21  1  1  0  0  0
 19 23  1  0  0  0  0
 20 22  1  1  0  0  0
 20 24  1  0  0  0  0
 23 34  1  1  0  0  0
 24 44  1  6  0  0  0
 25 26  2  0  0  0  0
 25 30  1  0  0  0  0
 26 27  1  0  0  0  0
 27 28  2  0  0  0  0
 28 29  1  0  0  0  0
 28 34  1  0  0  0  0
 29 30  2  0  0  0  0
 29 32  1  0  0  0  0
 30 31  1  0  0  0  0
 32 33  2  0  0  0  0
 33 34  1  0  0  0  0
 35 36  2  0  0  0  0
 35 40  1  0  0  0  0
 36 37  1  0  0  0  0
 37 38  2  0  0  0  0
 38 39  1  0  0  0  0
 38 44  1  0  0  0  0
 39 40  2  0  0  0  0
 39 42  1  0  0  0  0
 40 41  1  0  0  0  0
 42 43  2  0  0  0  0
 43 44  1  0  0  0  0
M  CHG  2   3  -1   4  -1
M  END
>  <CHROM.1>
5.90018768,96.73619499,13.98164401,24.10497862,-2.23792608,-0.20308501,0.24572636
0.64493903

>  <Name>
ligand

>  <RI>
0

>  <Rbt.Current_Directory>
/home/itssahil/PROJECTS/Mol_Feturizer/New_Systems/rnas/4QLM

>  <Rbt.Executable>
rbdock ($Id: //depot/dev/client3/rdock/2013.1/src/exe/rbdock.cxx#4 $)

>  <Rbt.Library>
libRbt.so (2013.1, Build901 2013/11/27)

>  <Rbt.Parameter_File>
/export/apps/rDock/src/rDock_2013.1_src/data/scripts/dock_solv.prm

>  <Rbt.Receptor>
prm/blind_docking_40.prm

>  <SCORE>
27.8787

>  <SCORE.INTER>
23.6836

>  <SCORE.INTER.CONST>
1

>  <SCORE.INTER.POLAR>
0

>  <SCORE.INTER.ROT>
2

>  <SCORE.INTER.SOLV>
54.4898

>  <SCORE.INTER.VDW>
-7.30753

>  <SCORE.INTER.norm>
0.538263

>  <SCORE.INTRA>
-0.248779

>  <SCORE.INTRA.DIHEDRAL>
0.120681

>  <SCORE.INTRA.DIHEDRAL.0>
2.32994

>  <SCORE.INTRA.POLAR>
0

>  <SCORE.INTRA.POLAR.0>
0

>  <SCORE.INTRA.REPUL>
0

>  <SCORE.INTRA.REPUL.0>
0

>  <SCORE.INTRA.SOLV>
0.0777503

>  <SCORE.INTRA.SOLV.lig_0>
-117.703

>  <SCORE.INTRA.VDW>
-0.347995

>  <SCORE.INTRA.VDW.0>
-1.59997

>  <SCORE.INTRA.norm>
-0.00565408

>  <SCORE.RESTR>
4.44389

>  <SCORE.RESTR.CAVITY>
4.44389

>  <SCORE.RESTR.norm>
0.100998

>  <SCORE.SYSTEM>
0

>  <SCORE.SYSTEM.CONST>
0

>  <SCORE.SYSTEM.DIHEDRAL>
0

>  <SCORE.SYSTEM.SOLV>
0

>  <SCORE.SYSTEM.norm>
0

>  <SCORE.heavy>
44

>  <SCORE.norm>
0.633607

>  <RMSD>
26.820

$$$$
ligand
 OpenBabel11021811513D
libRbt.so/2013.1/901 2013/11/27
 44 50  0  0  0  0  0  0  0  0999 V2000
   14.9862   23.4333    0.4619 P   0  0  2  0  0  0  0  0  0  0  0  0
   12.8844   27.0569   -2.9524 P   0  0  1  0  0  0  0  0  0  0  0  0
   16.1203   23.6823    1.4530 O   0  5  0  0  0  0  0  0  0  0  0  0
   12.7114   26.3097   -4.2523 O   0  5  0  0  0  0  0  0  0  0  0  0
   15.0186   21.9564    0.1503 O   0  0  0  0  0  0  0  0  0  0  0  0
   12.0996   28.3829   -3.0747 O   0  0  0  0  0  0  0  0  0  0  0  0
   16.0303   25.5522   -0.4662 C   0  0  0  0  0  0  0  0  0  0  0  0
   12.6338   26.4945   -0.4445 C   0  0  0  0  0  0  0  0  0  0  0  0
   15.3113   24.3476   -0.7633 O   0  0  0  0  0  0  0  0  0  0  0  0
   12.4278   25.9844   -1.7921 O   0  0  0  0  0  0  0  0  0  0  0  0
   16.3206   26.3210   -1.7508 C   0  0  1  0  0  0  0  0  0  0  0  0
   12.0240   25.4185    0.5312 C   0  0  1  0  0  0  0  0  0  0  0  0
   17.4055   25.8394   -2.2738 O   0  0  0  0  0  0  0  0  0  0  0  0
   10.8500   25.2020    0.0968 O   0  0  0  0  0  0  0  0  0  0  0  0
   15.2351   26.1735   -2.7921 C   0  0  1  0  0  0  0  0  0  0  0  0
   12.7099   24.0507    0.3422 C   0  0  1  0  0  0  0  0  0  0  0  0
   14.4746   27.2982   -2.7229 O   0  0  0  0  0  0  0  0  0  0  0  0
   13.6101   23.8189    1.3054 O   0  0  0  0  0  0  0  0  0  0  0  0
   16.0263   26.1334   -4.1458 C   0  0  1  0  0  0  0  0  0  0  0  0
   11.5931   22.9821    0.3521 C   0  0  1  0  0  0  0  0  0  0  0  0
   15.9511   27.4570   -4.8210 O   0  0  0  0  0  0  0  0  0  0  0  0
   11.5493   22.2812    1.6758 O   0  0  0  0  0  0  0  0  0  0  0  0
   17.2499   25.8302   -3.8515 C   0  0  2  0  0  0  0  0  0  0  0  0
   10.5001   23.6422    0.1767 C   0  0  2  0  0  0  0  0  0  0  0  0
   18.5826   20.6409   -3.5109 N   0  0  0  0  0  0  0  0  0  0  0  0
   18.3223   21.4653   -2.4574 C   0  0  0  0  0  0  0  0  0  0  0  0
   17.9876   22.7813   -2.6513 N   0  0  0  0  0  0  0  0  0  0  0  0
   17.9187   23.2675   -3.9277 C   0  0  0  0  0  0  0  0  0  0  0  0
   18.1790   22.4707   -4.9735 C   0  0  0  0  0  0  0  0  0  0  0  0
   18.5091   21.1322   -4.7681 C   0  0  0  0  0  0  0  0  0  0  0  0
   18.8037   20.1936   -5.7768 N   0  0  0  0  0  0  0  0  0  0  0  0
   18.0330   23.2030   -6.0980 N   0  0  0  0  0  0  0  0  0  0  0  0
   17.6850   24.4693   -5.7310 C   0  0  0  0  0  0  0  0  0  0  0  0
   17.5970   24.5068   -4.3950 N   0  0  0  0  0  0  0  0  0  0  0  0
   10.7197   21.6168   -4.6159 N   0  0  0  0  0  0  0  0  0  0  0  0
   11.7583   21.7916   -3.7574 C   0  0  0  0  0  0  0  0  0  0  0  0
   11.5327   22.3481   -2.5299 N   0  0  0  0  0  0  0  0  0  0  0  0
   10.2756   22.7198   -2.1666 C   0  0  0  0  0  0  0  0  0  0  0  0
    9.2395   22.5451   -3.0116 C   0  0  0  0  0  0  0  0  0  0  0  0
    9.4788   21.9812   -4.2614 C   0  0  0  0  0  0  0  0  0  0  0  0
    8.5355   21.7222   -5.3189 N   0  0  0  0  0  0  0  0  0  0  0  0
    8.1272   23.0036   -2.3889 N   0  0  0  0  0  0  0  0  0  0  0  0
    8.4852   23.4564   -1.1533 C   0  0  0  0  0  0  0  0  0  0  0  0
    9.8149   23.2737   -1.0244 N   0  0  0  0  0  0  0  0  0  0  0  0
  1  3  1  1  0  0  0
  1  5  2  0  0  0  0
  1  9  1  0  0  0  0
  1 18  1  0  0  0  0
  2  4  1  6  0  0  0
  2  6  2  0  0  0  0
  2 10  1  0  0  0  0
  2 17  1  0  0  0  0
  7  9  1  0  0  0  0
  8 10  1  0  0  0  0
 11  7  1  1  0  0  0
 11 13  1  0  0  0  0
 11 15  1  0  0  0  0
 12  8  1  6  0  0  0
 12 14  1  0  0  0  0
 12 16  1  0  0  0  0
 13 23  1  0  0  0  0
 14 24  1  0  0  0  0
 15 17  1  6  0  0  0
 15 19  1  0  0  0  0
 16 18  1  1  0  0  0
 16 20  1  0  0  0  0
 19 21  1  1  0  0  0
 19 23  1  0  0  0  0
 20 22  1  1  0  0  0
 20 24  1  0  0  0  0
 23 34  1  1  0  0  0
 24 44  1  6  0  0  0
 25 26  2  0  0  0  0
 25 30  1  0  0  0  0
 26 27  1  0  0  0  0
 27 28  2  0  0  0  0
 28 29  1  0  0  0  0
 28 34  1  0  0  0  0
 29 30  2  0  0  0  0
 29 32  1  0  0  0  0
 30 31  1  0  0  0  0
 32 33  2  0  0  0  0
 33 34  1  0  0  0  0
 35 36  2  0  0  0  0
 35 40  1  0  0  0  0
 36 37  1  0  0  0  0
 37 38  2  0  0  0  0
 38 39  1  0  0  0  0
 38 44  1  0  0  0  0
 39 40  2  0  0  0  0
 39 42  1  0  0  0  0
 40 41  1  0  0  0  0
 42 43  2  0  0  0  0
 43 44  1  0  0  0  0
M  CHG  2   3  -1   4  -1
M  END
>  <CHROM.1>
6.11273558,96.24797521,13.98117128,24.10452698,-2.23835043,-0.20518551,0.24390321
0.65411174

>  <Name>
ligand

>  <RI>
0

>  <Rbt.Current_Directory>
/home/itssahil/PROJECTS/Mol_Feturizer/New_Systems/rnas/4QLM

>  <Rbt.Executable>
rbdock ($Id: //depot/dev/client3/rdock/2013.1/src/exe/rbdock.cxx#4 $)

>  <Rbt.Library>
libRbt.so (2013.1, Build901 2013/11/27)

>  <Rbt.Parameter_File>
/export/apps/rDock/src/rDock_2013.1_src/data/scripts/dock_solv.prm

>  <Rbt.Receptor>
prm/blind_docking_40.prm

>  <SCORE>
27.8999

>  <SCORE.INTER>
23.7296

>  <SCORE.INTER.CONST>
1

>  <SCORE.INTER.POLAR>
0

>  <SCORE.INTER.ROT>
2

>  <SCORE.INTER.SOLV>
54.5235

>  <SCORE.INTER.VDW>
-7.28811

>  <SCORE.INTER.norm>
0.539309

>  <SCORE.INTRA>
-0.273408

>  <SCORE.INTRA.DIHEDRAL>
0.121844

>  <SCORE.INTRA.DIHEDRAL.0>
2.32994

>  <SCORE.INTRA.POLAR>
0

>  <SCORE.INTRA.POLAR.0>
0

>  <SCORE.INTRA.REPUL>
0

>  <SCORE.INTRA.REPUL.0>
0

>  <SCORE.INTRA.SOLV>
0.0769863

>  <SCORE.INTRA.SOLV.lig_0>
-117.703

>  <SCORE.INTRA.VDW>
-0.372823

>  <SCORE.INTRA.VDW.0>
-1.59997

>  <SCORE.INTRA.norm>
-0.00621383

>  <SCORE.RESTR>
4.44374

>  <SCORE.RESTR.CAVITY>
4.44374

>  <SCORE.RESTR.norm>
0.100994

>  <SCORE.SYSTEM>
0

>  <SCORE.SYSTEM.CONST>
0

>  <SCORE.SYSTEM.DIHEDRAL>
0

>  <SCORE.SYSTEM.SOLV>
0

>  <SCORE.SYSTEM.norm>
0

>  <SCORE.heavy>
44

>  <SCORE.norm>
0.634089

>  <RMSD>
26.820

$$$$
ligand
 OpenBabel11021811513D
libRbt.so/2013.1/901 2013/11/27
 44 50  0  0  0  0  0  0  0  0999 V2000
   14.9870   23.4399    0.4628 P   0  0  2  0  0  0  0  0  0  0  0  0
   12.8831   27.0564   -2.9577 P   0  0  1  0  0  0  0  0  0  0  0  0
   16.1198   23.6917    1.4546 O   0  5  0  0  0  0  0  0  0  0  0  0
   12.7124   26.3074   -4.2569 O   0  5  0  0  0  0  0  0  0  0  0  0
   15.0218   21.9626    0.1530 O   0  0  0  0  0  0  0  0  0  0  0  0
   12.0965   28.3811   -3.0824 O   0  0  0  0  0  0  0  0  0  0  0  0
   16.0290   25.5591   -0.4669 C   0  0  0  0  0  0  0  0  0  0  0  0
   12.6310   26.4966   -0.4495 C   0  0  0  0  0  0  0  0  0  0  0  0
   15.3119   24.3531   -0.7632 O   0  0  0  0  0  0  0  0  0  0  0  0
   12.4270   25.9846   -1.7967 O   0  0  0  0  0  0  0  0  0  0  0  0
   16.3193   26.3268   -1.7521 C   0  0  1  0  0  0  0  0  0  0  0  0
   12.0219   25.4209    0.5269 C   0  0  1  0  0  0  0  0  0  0  0  0
   17.4053   25.8461   -2.2735 O   0  0  0  0  0  0  0  0  0  0  0  0
   10.8486   25.2022    0.0917 O   0  0  0  0  0  0  0  0  0  0  0  0
   15.2350   26.1765   -2.7942 C   0  0  1  0  0  0  0  0  0  0  0  0
   12.7099   24.0538    0.3403 C   0  0  1  0  0  0  0  0  0  0  0  0
   14.4728   27.3003   -2.7271 O   0  0  0  0  0  0  0  0  0  0  0  0
   13.6096   23.8245    1.3045 O   0  0  0  0  0  0  0  0  0  0  0  0
   16.0275   26.1360   -4.1472 C   0  0  1  0  0  0  0  0  0  0  0  0
   11.5946   22.9837    0.3504 C   0  0  1  0  0  0  0  0  0  0  0  0
   15.9510   27.4587   -4.8240 O   0  0  0  0  0  0  0  0  0  0  0  0
   11.5506   22.2843    1.6748 O   0  0  0  0  0  0  0  0  0  0  0  0
   17.2512   25.8349   -3.8514 C   0  0  2  0  0  0  0  0  0  0  0  0
   10.5009   23.6420    0.1732 C   0  0  2  0  0  0  0  0  0  0  0  0
   18.5928   20.6483   -3.5033 N   0  0  0  0  0  0  0  0  0  0  0  0
   18.3308   21.4738   -2.4511 C   0  0  0  0  0  0  0  0  0  0  0  0
   17.9939   22.7889   -2.6468 N   0  0  0  0  0  0  0  0  0  0  0  0
   17.9245   23.2732   -3.9239 C   0  0  0  0  0  0  0  0  0  0  0  0
   18.1863   22.4754   -4.9686 C   0  0  0  0  0  0  0  0  0  0  0  0
   18.5187   21.1377   -4.7613 C   0  0  0  0  0  0  0  0  0  0  0  0
   18.8151   20.1983   -5.7686 N   0  0  0  0  0  0  0  0  0  0  0  0
   18.0393   23.2060   -6.0941 N   0  0  0  0  0  0  0  0  0  0  0  0
   17.6891   24.4721   -5.7289 C   0  0  0  0  0  0  0  0  0  0  0  0
   17.6008   24.5114   -4.3929 N   0  0  0  0  0  0  0  0  0  0  0  0
   10.7257   21.6006   -4.6124 N   0  0  0  0  0  0  0  0  0  0  0  0
   11.7630   21.7760   -3.7523 C   0  0  0  0  0  0  0  0  0  0  0  0
   11.5362   22.3369   -2.5271 N   0  0  0  0  0  0  0  0  0  0  0  0
   10.2791   22.7125   -2.1676 C   0  0  0  0  0  0  0  0  0  0  0  0
    9.2443   22.5373   -3.0141 C   0  0  0  0  0  0  0  0  0  0  0  0
    9.4849   21.9689   -4.2616 C   0  0  0  0  0  0  0  0  0  0  0  0
    8.5432   21.7085   -5.3201 N   0  0  0  0  0  0  0  0  0  0  0  0
    8.1318   23.0003   -2.3952 N   0  0  0  0  0  0  0  0  0  0  0  0
    8.4882   23.4562   -1.1603 C   0  0  0  0  0  0  0  0  0  0  0  0
    9.8173   23.2711   -1.0281 N   0  0  0  0  0  0  0  0  0  0  0  0
  1  3  1  1  0  0  0
  1  5  2  0  0  0  0
  1  9  1  0  0  0  0
  1 18  1  0  0  0  0
  2  4  1  6  0  0  0
  2  6  2  0  0  0  0
  2 10  1  0  0  0  0
  2 17  1  0  0  0  0
  7  9  1  0  0  0  0
  8 10  1  0  0  0  0
 11  7  1  1  0  0  0
 11 13  1  0  0  0  0
 11 15  1  0  0  0  0
 12  8  1  6  0  0  0
 12 14  1  0  0  0  0
 12 16  1  0  0  0  0
 13 23  1  0  0  0  0
 14 24  1  0  0  0  0
 15 17  1  6  0  0  0
 15 19  1  0  0  0  0
 16 18  1  1  0  0  0
 16 20  1  0  0  0  0
 19 21  1  1  0  0  0
 19 23  1  0  0  0  0
 20 22  1  1  0  0  0
 20 24  1  0  0  0  0
 23 34  1  1  0  0  0
 24 44  1  6  0  0  0
 25 26  2  0  0  0  0
 25 30  1  0  0  0  0
 26 27  1  0  0  0  0
 27 28  2  0  0  0  0
 28 29  1  0  0  0  0
 28 34  1  0  0  0  0
 29 30  2  0  0  0  0
 29 32  1  0  0  0  0
 30 31  1  0  0  0  0
 32 33  2  0  0  0  0
 33 34  1  0  0  0  0
 35 36  2  0  0  0  0
 35 40  1  0  0  0  0
 36 37  1  0  0  0  0
 37 38  2  0  0  0  0
 38 39  1  0  0  0  0
 38 44  1  0  0  0  0
 39 40  2  0  0  0  0
 39 42  1  0  0  0  0
 40 41  1  0  0  0  0
 42 43  2  0  0  0  0
 43 44  1  0  0  0  0
M  CHG  2   3  -1   4  -1
M  END
>  <CHROM.1>
6.06799821,96.49359362,13.98344171,24.10566335,-2.23886268,-0.20196301,0.24514297
0.64769852

>  <Name>
ligand

>  <RI>
0

>  <Rbt.Current_Directory>
/home/itssahil/PROJECTS/Mol_Feturizer/New_Systems/rnas/4QLM

>  <Rbt.Executable>
rbdock ($Id: //depot/dev/client3/rdock/2013.1/src/exe/rbdock.cxx#4 $)

>  <Rbt.Library>
libRbt.so (2013.1, Build901 2013/11/27)

>  <Rbt.Parameter_File>
/export/apps/rDock/src/rDock_2013.1_src/data/scripts/dock_solv.prm

>  <Rbt.Receptor>
prm/blind_docking_40.prm

>  <SCORE>
27.9843

>  <SCORE.INTER>
23.8233

>  <SCORE.INTER.CONST>
1

>  <SCORE.INTER.POLAR>
0

>  <SCORE.INTER.ROT>
2

>  <SCORE.INTER.SOLV>
54.5455

>  <SCORE.INTER.VDW>
-7.23299

>  <SCORE.INTER.norm>
0.541438

>  <SCORE.INTRA>
-0.26383

>  <SCORE.INTRA.DIHEDRAL>
0.121574

>  <SCORE.INTRA.DIHEDRAL.0>
2.32994

>  <SCORE.INTRA.POLAR>
0

>  <SCORE.INTRA.POLAR.0>
0

>  <SCORE.INTRA.REPUL>
0

>  <SCORE.INTRA.REPUL.0>
0

>  <SCORE.INTRA.SOLV>
0.0772922

>  <SCORE.INTRA.SOLV.lig_0>
-117.703

>  <SCORE.INTRA.VDW>
-0.363263

>  <SCORE.INTRA.VDW.0>
-1.59997

>  <SCORE.INTRA.norm>
-0.00599614

>  <SCORE.RESTR>
4.42488

>  <SCORE.RESTR.CAVITY>
4.42488

>  <SCORE.RESTR.norm>
0.100565

>  <SCORE.SYSTEM>
0

>  <SCORE.SYSTEM.CONST>
0

>  <SCORE.SYSTEM.DIHEDRAL>
0

>  <SCORE.SYSTEM.SOLV>
0

>  <SCORE.SYSTEM.norm>
0

>  <SCORE.heavy>
44

>  <SCORE.norm>
0.636007

>  <RMSD>
26.821

$$$$
ligand
 OpenBabel11021811513D
libRbt.so/2013.1/901 2013/11/27
 44 50  0  0  0  0  0  0  0  0999 V2000
   14.9839   23.4265    0.4653 P   0  0  2  0  0  0  0  0  0  0  0  0
   12.8786   27.0480   -2.9492 P   0  0  1  0  0  0  0  0  0  0  0  0
   16.1186   23.6764    1.4555 O   0  5  0  0  0  0  0  0  0  0  0  0
   12.7050   26.3002   -4.2487 O   0  5  0  0  0  0  0  0  0  0  0  0
   15.0167   21.9495    0.1542 O   0  0  0  0  0  0  0  0  0  0  0  0
   12.0931   28.3735   -3.0715 O   0  0  0  0  0  0  0  0  0  0  0  0
   16.0267   25.5454   -0.4643 C   0  0  0  0  0  0  0  0  0  0  0  0
   12.6297   26.4864   -0.4410 C   0  0  0  0  0  0  0  0  0  0  0  0
   15.3079   24.3404   -0.7605 O   0  0  0  0  0  0  0  0  0  0  0  0
   12.4231   25.9757   -1.7883 O   0  0  0  0  0  0  0  0  0  0  0  0
   16.3159   26.3139   -1.7494 C   0  0  1  0  0  0  0  0  0  0  0  0
   12.0210   25.4106    0.5355 C   0  0  1  0  0  0  0  0  0  0  0  0
   17.4006   25.8325   -2.2729 O   0  0  0  0  0  0  0  0  0  0  0  0
   10.8467   25.1934    0.1019 O   0  0  0  0  0  0  0  0  0  0  0  0
   15.2298   26.1655   -2.7900 C   0  0  1  0  0  0  0  0  0  0  0  0
   12.7073   24.0429    0.3467 C   0  0  1  0  0  0  0  0  0  0  0  0
   14.4688   27.2900   -2.7208 O   0  0  0  0  0  0  0  0  0  0  0  0
   13.6082   23.8119    1.3094 O   0  0  0  0  0  0  0  0  0  0  0  0
   16.0201   26.1253   -4.1442 C   0  0  1  0  0  0  0  0  0  0  0  0
   11.5909   22.9739    0.3577 C   0  0  1  0  0  0  0  0  0  0  0  0
   15.9440   27.4486   -4.8198 O   0  0  0  0  0  0  0  0  0  0  0  0
   11.5482   22.2735    1.6816 O   0  0  0  0  0  0  0  0  0  0  0  0
   17.2440   25.8227   -3.8505 C   0  0  2  0  0  0  0  0  0  0  0  0
   10.4976   23.6335    0.1827 C   0  0  2  0  0  0  0  0  0  0  0  0
   18.5949   20.6381   -3.5086 N   0  0  0  0  0  0  0  0  0  0  0  0
   18.3395   21.4639   -2.4550 C   0  0  0  0  0  0  0  0  0  0  0  0
   17.9995   22.7785   -2.6492 N   0  0  0  0  0  0  0  0  0  0  0  0
   17.9201   23.2618   -3.9261 C   0  0  0  0  0  0  0  0  0  0  0  0
   18.1754   22.4636   -4.9721 C   0  0  0  0  0  0  0  0  0  0  0  0
   18.5110   21.1265   -4.7663 C   0  0  0  0  0  0  0  0  0  0  0  0
   18.8014   20.1868   -5.7750 N   0  0  0  0  0  0  0  0  0  0  0  0
   18.0193   23.1932   -6.0970 N   0  0  0  0  0  0  0  0  0  0  0  0
   17.6701   24.4591   -5.7302 C   0  0  0  0  0  0  0  0  0  0  0  0
   17.5914   24.4992   -4.3936 N   0  0  0  0  0  0  0  0  0  0  0  0
   10.7164   21.6139   -4.6124 N   0  0  0  0  0  0  0  0  0  0  0  0
   11.7557   21.7909   -3.7552 C   0  0  0  0  0  0  0  0  0  0  0  0
   11.5302   22.3454   -2.5268 N   0  0  0  0  0  0  0  0  0  0  0  0
   10.2725   22.7130   -2.1614 C   0  0  0  0  0  0  0  0  0  0  0  0
    9.2357   22.5361   -3.0051 C   0  0  0  0  0  0  0  0  0  0  0  0
    9.4750   21.9743   -4.2558 C   0  0  0  0  0  0  0  0  0  0  0  0
    8.5310   21.7136   -5.3123 N   0  0  0  0  0  0  0  0  0  0  0  0
    8.1230   22.9907   -2.3804 N   0  0  0  0  0  0  0  0  0  0  0  0
    8.4813   23.4431   -1.1447 C   0  0  0  0  0  0  0  0  0  0  0  0
    9.8118   23.2643   -1.0179 N   0  0  0  0  0  0  0  0  0  0  0  0
  1  3  1  1  0  0  0
  1  5  2  0  0  0  0
  1  9  1  0  0  0  0
  1 18  1  0  0  0  0
  2  4  1  6  0  0  0
  2  6  2  0  0  0  0
  2 10  1  0  0  0  0
  2 17  1  0  0  0  0
  7  9  1  0  0  0  0
  8 10  1  0  0  0  0
 11  7  1  1  0  0  0
 11 13  1  0  0  0  0
 11 15  1  0  0  0  0
 12  8  1  6  0  0  0
 12 14  1  0  0  0  0
 12 16  1  0  0  0  0
 13 23  1  0  0  0  0
 14 24  1  0  0  0  0
 15 17  1  6  0  0  0
 15 19  1  0  0  0  0
 16 18  1  1  0  0  0
 16 20  1  0  0  0  0
 19 21  1  1  0  0  0
 19 23  1  0  0  0  0
 20 22  1  1  0  0  0
 20 24  1  0  0  0  0
 23 34  1  1  0  0  0
 24 44  1  6  0  0  0
 25 26  2  0  0  0  0
 25 30  1  0  0  0  0
 26 27  1  0  0  0  0
 27 28  2  0  0  0  0
 28 29  1  0  0  0  0
 28 34  1  0  0  0  0
 29 30  2  0  0  0  0
 29 32  1  0  0  0  0
 30 31  1  0  0  0  0
 32 33  2  0  0  0  0
 33 34  1  0  0  0  0
 35 36  2  0  0  0  0
 35 40  1  0  0  0  0
 36 37  1  0  0  0  0
 37 38  2  0  0  0  0
 38 39  1  0  0  0  0
 38 44  1  0  0  0  0
 39 40  2  0  0  0  0
 39 42  1  0  0  0  0
 40 41  1  0  0  0  0
 42 43  2  0  0  0  0
 43 44  1  0  0  0  0
M  CHG  2   3  -1   4  -1
M  END
>  <CHROM.1>
5.70386518,96.07312718,13.97815117,24.09716204,-2.23495396,-0.20697237,0.24272441
0.66009311

>  <Name>
ligand

>  <RI>
0

>  <Rbt.Current_Directory>
/home/itssahil/PROJECTS/Mol_Feturizer/New_Systems/rnas/4QLM

>  <Rbt.Executable>
rbdock ($Id: //depot/dev/client3/rdock/2013.1/src/exe/rbdock.cxx#4 $)

>  <Rbt.Library>
libRbt.so (2013.1, Build901 2013/11/27)

>  <Rbt.Parameter_File>
/export/apps/rDock/src/rDock_2013.1_src/data/scripts/dock_solv.prm

>  <Rbt.Receptor>
prm/blind_docking_40.prm

>  <SCORE>
27.9159

>  <SCORE.INTER>
23.7314

>  <SCORE.INTER.CONST>
1

>  <SCORE.INTER.POLAR>
0

>  <SCORE.INTER.ROT>
2

>  <SCORE.INTER.SOLV>
54.5667

>  <SCORE.INTER.VDW>
-7.30127

>  <SCORE.INTER.norm>
0.539351

>  <SCORE.INTRA>
-0.260211

>  <SCORE.INTRA.DIHEDRAL>
0.119808

>  <SCORE.INTRA.DIHEDRAL.0>
2.32994

>  <SCORE.INTRA.POLAR>
0

>  <SCORE.INTRA.POLAR.0>
0

>  <SCORE.INTRA.REPUL>
0

>  <SCORE.INTRA.REPUL.0>
0

>  <SCORE.INTRA.SOLV>
0.0772768

>  <SCORE.INTRA.SOLV.lig_0>
-117.703

>  <SCORE.INTRA.VDW>
-0.358753

>  <SCORE.INTRA.VDW.0>
-1.59997

>  <SCORE.INTRA.norm>
-0.00591389

>  <SCORE.RESTR>
4.44465

>  <SCORE.RESTR.CAVITY>
4.44465

>  <SCORE.RESTR.norm>
0.101015

>  <SCORE.SYSTEM>
0

>  <SCORE.SYSTEM.CONST>
0

>  <SCORE.SYSTEM.DIHEDRAL>
0

>  <SCORE.SYSTEM.SOLV>
0

>  <SCORE.SYSTEM.norm>
0

>  <SCORE.heavy>
44

>  <SCORE.norm>
0.634451

>  <RMSD>
26.822

$$$$
ligand
 OpenBabel11021811513D
libRbt.so/2013.1/901 2013/11/27
 44 50  0  0  0  0  0  0  0  0999 V2000
   14.9852   23.4199    0.4672 P   0  0  2  0  0  0  0  0  0  0  0  0
   12.8741   27.0420   -2.9430 P   0  0  1  0  0  0  0  0  0  0  0  0
   16.1192   23.6705    1.4580 O   0  5  0  0  0  0  0  0  0  0  0  0
   12.7021   26.2956   -4.2436 O   0  5  0  0  0  0  0  0  0  0  0  0
   15.0207   21.9433    0.1542 O   0  0  0  0  0  0  0  0  0  0  0  0
   12.0864   28.3663   -3.0638 O   0  0  0  0  0  0  0  0  0  0  0  0
   16.0244   25.5418   -0.4595 C   0  0  0  0  0  0  0  0  0  0  0  0
   12.6258   26.4768   -0.4356 C   0  0  0  0  0  0  0  0  0  0  0  0
   15.3078   24.3360   -0.7574 O   0  0  0  0  0  0  0  0  0  0  0  0
   12.4204   25.9674   -1.7836 O   0  0  0  0  0  0  0  0  0  0  0  0
   16.3125   26.3124   -1.7436 C   0  0  1  0  0  0  0  0  0  0  0  0
   12.0188   25.3986    0.5394 C   0  0  1  0  0  0  0  0  0  0  0  0
   17.3981   25.8336   -2.2674 O   0  0  0  0  0  0  0  0  0  0  0  0
   10.8450   25.1799    0.1053 O   0  0  0  0  0  0  0  0  0  0  0  0
   15.2268   26.1635   -2.7845 C   0  0  1  0  0  0  0  0  0  0  0  0
   12.7075   24.0324    0.3490 C   0  0  1  0  0  0  0  0  0  0  0  0
   14.4638   27.2865   -2.7140 O   0  0  0  0  0  0  0  0  0  0  0  0
   13.6087   23.8018    1.3115 O   0  0  0  0  0  0  0  0  0  0  0  0
   16.0175   26.1264   -4.1386 C   0  0  1  0  0  0  0  0  0  0  0  0
   11.5930   22.9614    0.3583 C   0  0  1  0  0  0  0  0  0  0  0  0
   15.9391   27.4504   -4.8126 O   0  0  0  0  0  0  0  0  0  0  0  0
   11.5513   22.2592    1.6814 O   0  0  0  0  0  0  0  0  0  0  0  0
   17.2419   25.8255   -3.8451 C   0  0  2  0  0  0  0  0  0  0  0  0
   10.4985   23.6193    0.1840 C   0  0  2  0  0  0  0  0  0  0  0  0
   18.5804   20.6374   -3.5098 N   0  0  0  0  0  0  0  0  0  0  0  0
   18.3172   21.4599   -2.4556 C   0  0  0  0  0  0  0  0  0  0  0  0
   17.9813   22.7758   -2.6481 N   0  0  0  0  0  0  0  0  0  0  0  0
   17.9140   23.2637   -3.9239 C   0  0  0  0  0  0  0  0  0  0  0  0
   18.1772   22.4688   -4.9704 C   0  0  0  0  0  0  0  0  0  0  0  0
   18.5086   21.1304   -4.7664 C   0  0  0  0  0  0  0  0  0  0  0  0
   18.8062   20.1937   -5.7759 N   0  0  0  0  0  0  0  0  0  0  0  0
   18.0323   23.2027   -6.0941 N   0  0  0  0  0  0  0  0  0  0  0  0
   17.6821   24.4679   -5.7258 C   0  0  0  0  0  0  0  0  0  0  0  0
   17.5916   24.5034   -4.3899 N   0  0  0  0  0  0  0  0  0  0  0  0
   10.7213   21.6033   -4.6125 N   0  0  0  0  0  0  0  0  0  0  0  0
   11.7601   21.7805   -3.7546 C   0  0  0  0  0  0  0  0  0  0  0  0
   11.5335   22.3340   -2.5259 N   0  0  0  0  0  0  0  0  0  0  0  0
   10.2754   22.7003   -2.1608 C   0  0  0  0  0  0  0  0  0  0  0  0
    9.2391   22.5232   -3.0052 C   0  0  0  0  0  0  0  0  0  0  0  0
    9.4794   21.9625   -4.2562 C   0  0  0  0  0  0  0  0  0  0  0  0
    8.5361   21.7019   -5.3133 N   0  0  0  0  0  0  0  0  0  0  0  0
    8.1257   22.9765   -2.3806 N   0  0  0  0  0  0  0  0  0  0  0  0
    8.4831   23.4284   -1.1445 C   0  0  0  0  0  0  0  0  0  0  0  0
    9.8136   23.2505   -1.0171 N   0  0  0  0  0  0  0  0  0  0  0  0
  1  3  1  1  0  0  0
  1  5  2  0  0  0  0
  1  9  1  0  0  0  0
  1 18  1  0  0  0  0
  2  4  1  6  0  0  0
  2  6  2  0  0  0  0
  2 10  1  0  0  0  0
  2 17  1  0  0  0  0
  7  9  1  0  0  0  0
  8 10  1  0  0  0  0
 11  7  1  1  0  0  0
 11 13  1  0  0  0  0
 11 15  1  0  0  0  0
 12  8  1  6  0  0  0
 12 14  1  0  0  0  0
 12 16  1  0  0  0  0
 13 23  1  0  0  0  0
 14 24  1  0  0  0  0
 15 17  1  6  0  0  0
 15 19  1  0  0  0  0
 16 18  1  1  0  0  0
 16 20  1  0  0  0  0
 19 21  1  1  0  0  0
 19 23  1  0  0  0  0
 20 22  1  1  0  0  0
 20 24  1  0  0  0  0
 23 34  1  1  0  0  0
 24 44  1  6  0  0  0
 25 26  2  0  0  0  0
 25 30  1  0  0  0  0
 26 27  1  0  0  0  0
 27 28  2  0  0  0  0
 28 29  1  0  0  0  0
 28 34  1  0  0  0  0
 29 30  2  0  0  0  0
 29 32  1  0  0  0  0
 30 31  1  0  0  0  0
 32 33  2  0  0  0  0
 33 34  1  0  0  0  0
 35 36  2  0  0  0  0
 35 40  1  0  0  0  0
 36 37  1  0  0  0  0
 37 38  2  0  0  0  0
 38 39  1  0  0  0  0
 38 44  1  0  0  0  0
 39 40  2  0  0  0  0
 39 42  1  0  0  0  0
 40 41  1  0  0  0  0
 42 43  2  0  0  0  0
 43 44  1  0  0  0  0
M  CHG  2   3  -1   4  -1
M  END
>  <CHROM.1>
6.25501589,96.14024084,13.97727030,24.09160330,-2.23226070,-0.20415165,0.24536426
0.65598399

>  <Name>
ligand

>  <RI>
0

>  <Rbt.Current_Directory>
/home/itssahil/PROJECTS/Mol_Feturizer/New_Systems/rnas/4QLM

>  <Rbt.Executable>
rbdock ($Id: //depot/dev/client3/rdock/2013.1/src/exe/rbdock.cxx#4 $)

>  <Rbt.Library>
libRbt.so (2013.1, Build901 2013/11/27)

>  <Rbt.Parameter_File>
/export/apps/rDock/src/rDock_2013.1_src/data/scripts/dock_solv.prm

>  <Rbt.Receptor>
prm/blind_docking_40.prm

>  <SCORE>
27.9165

>  <SCORE.INTER>
23.7549

>  <SCORE.INTER.CONST>
1

>  <SCORE.INTER.POLAR>
0

>  <SCORE.INTER.ROT>
2

>  <SCORE.INTER.SOLV>
54.543

>  <SCORE.INTER.VDW>
-7.27773

>  <SCORE.INTER.norm>
0.539884

>  <SCORE.INTRA>
-0.283149

>  <SCORE.INTRA.DIHEDRAL>
0.122577

>  <SCORE.INTRA.DIHEDRAL.0>
2.32994

>  <SCORE.INTRA.POLAR>
0

>  <SCORE.INTRA.POLAR.0>
0

>  <SCORE.INTRA.REPUL>
0

>  <SCORE.INTRA.REPUL.0>
0

>  <SCORE.INTRA.SOLV>
0.0767097

>  <SCORE.INTRA.SOLV.lig_0>
-117.703

>  <SCORE.INTRA.VDW>
-0.382792

>  <SCORE.INTRA.VDW.0>
-1.59997

>  <SCORE.INTRA.norm>
-0.00643521

>  <SCORE.RESTR>
4.44472

>  <SCORE.RESTR.CAVITY>
4.44472

>  <SCORE.RESTR.norm>
0.101016

>  <SCORE.SYSTEM>
0

>  <SCORE.SYSTEM.CONST>
0

>  <SCORE.SYSTEM.DIHEDRAL>
0

>  <SCORE.SYSTEM.SOLV>
0

>  <SCORE.SYSTEM.norm>
0

>  <SCORE.heavy>
44

>  <SCORE.norm>
0.634465

>  <RMSD>
26.824

$$$$
ligand
 OpenBabel11021811513D
libRbt.so/2013.1/901 2013/11/27
 44 50  0  0  0  0  0  0  0  0999 V2000
   14.9425   23.3508    0.5129 P   0  0  2  0  0  0  0  0  0  0  0  0
   12.9643   27.1045   -2.8340 P   0  0  1  0  0  0  0  0  0  0  0  0
   16.0936   23.5394    1.4977 O   0  5  0  0  0  0  0  0  0  0  0  0
   12.7507   26.3833   -4.1425 O   0  5  0  0  0  0  0  0  0  0  0  0
   14.9120   21.8783    0.1808 O   0  0  0  0  0  0  0  0  0  0  0  0
   12.2335   28.4630   -2.9316 O   0  0  0  0  0  0  0  0  0  0  0  0
   16.0653   25.4380   -0.3949 C   0  0  0  0  0  0  0  0  0  0  0  0
   12.7104   26.5178   -0.3321 C   0  0  0  0  0  0  0  0  0  0  0  0
   15.2952   24.2680   -0.7024 O   0  0  0  0  0  0  0  0  0  0  0  0
   12.4733   26.0354   -1.6848 O   0  0  0  0  0  0  0  0  0  0  0  0
   16.3768   26.2122   -1.6713 C   0  0  1  0  0  0  0  0  0  0  0  0
   12.0647   25.4540    0.6339 C   0  0  1  0  0  0  0  0  0  0  0  0
   17.4369   25.6941   -2.2098 O   0  0  0  0  0  0  0  0  0  0  0  0
   10.8794   25.2917    0.2064 O   0  0  0  0  0  0  0  0  0  0  0  0
   15.2781   26.1238   -2.7054 C   0  0  1  0  0  0  0  0  0  0  0  0
   12.6925   24.0621    0.4206 C   0  0  1  0  0  0  0  0  0  0  0  0
   14.5647   27.2775   -2.6145 O   0  0  0  0  0  0  0  0  0  0  0  0
   13.5900   23.7804    1.3729 O   0  0  0  0  0  0  0  0  0  0  0  0
   16.0564   26.0704   -4.0661 C   0  0  1  0  0  0  0  0  0  0  0  0
   11.5330   23.0400    0.4252 C   0  0  1  0  0  0  0  0  0  0  0  0
   16.0302   27.4052   -4.7225 O   0  0  0  0  0  0  0  0  0  0  0  0
   11.4709   22.3230    1.7394 O   0  0  0  0  0  0  0  0  0  0  0  0
   17.2688   25.7134   -3.7862 C   0  0  2  0  0  0  0  0  0  0  0  0
   10.4667   23.7466    0.2680 C   0  0  2  0  0  0  0  0  0  0  0  0
   18.6475   20.5307   -3.5399 N   0  0  0  0  0  0  0  0  0  0  0  0
   18.5039   21.3664   -2.4731 C   0  0  0  0  0  0  0  0  0  0  0  0
   18.1455   22.6795   -2.6427 N   0  0  0  0  0  0  0  0  0  0  0  0
   17.9330   23.1512   -3.9086 C   0  0  0  0  0  0  0  0  0  0  0  0
   18.0774   22.3433   -4.9682 C   0  0  0  0  0  0  0  0  0  0  0  0
   18.4326   21.0078   -4.7864 C   0  0  0  0  0  0  0  0  0  0  0  0
   18.6157   20.0586   -5.8114 N   0  0  0  0  0  0  0  0  0  0  0  0
   17.8045   23.0627   -6.0773 N   0  0  0  0  0  0  0  0  0  0  0  0
   17.4957   24.3324   -5.6875 C   0  0  0  0  0  0  0  0  0  0  0  0
   17.5573   24.3847   -4.3505 N   0  0  0  0  0  0  0  0  0  0  0  0
    9.1000   20.1588   -3.2506 N   0  0  0  0  0  0  0  0  0  0  0  0
    9.8898   19.9713   -2.1609 C   0  0  0  0  0  0  0  0  0  0  0  0
   10.1605   21.0252   -1.3344 N   0  0  0  0  0  0  0  0  0  0  0  0
    9.6384   22.2536   -1.5969 C   0  0  0  0  0  0  0  0  0  0  0  0
    8.8501   22.4460   -2.6738 C   0  0  0  0  0  0  0  0  0  0  0  0
    8.5827   21.3680   -3.5126 C   0  0  0  0  0  0  0  0  0  0  0  0
    7.7913   21.3486   -4.7160 N   0  0  0  0  0  0  0  0  0  0  0  0
    8.4847   23.7504   -2.6804 N   0  0  0  0  0  0  0  0  0  0  0  0
    9.0488   24.3577   -1.5974 C   0  0  0  0  0  0  0  0  0  0  0  0
    9.7576   23.4232   -0.9324 N   0  0  0  0  0  0  0  0  0  0  0  0
  1  3  1  1  0  0  0
  1  5  2  0  0  0  0
  1  9  1  0  0  0  0
  1 18  1  0  0  0  0
  2  4  1  6  0  0  0
  2  6  2  0  0  0  0
  2 10  1  0  0  0  0
  2 17  1  0  0  0  0
  7  9  1  0  0  0  0
  8 10  1  0  0  0  0
 11  7  1  1  0  0  0
 11 13  1  0  0  0  0
 11 15  1  0  0  0  0
 12  8  1  6  0  0  0
 12 14  1  0  0  0  0
 12 16  1  0  0  0  0
 13 23  1  0  0  0  0
 14 24  1  0  0  0  0
 15 17  1  6  0  0  0
 15 19  1  0  0  0  0
 16 18  1  1  0  0  0
 16 20  1  0  0  0  0
 19 21  1  1  0  0  0
 19 23  1  0  0  0  0
 20 22  1  1  0  0  0
 20 24  1  0  0  0  0
 23 34  1  1  0  0  0
 24 44  1  6  0  0  0
 25 26  2  0  0  0  0
 25 30  1  0  0  0  0
 26 27  1  0  0  0  0
 27 28  2  0  0  0  0
 28 29  1  0  0  0  0
 28 34  1  0  0  0  0
 29 30  2  0  0  0  0
 29 32  1  0  0  0  0
 30 31  1  0  0  0  0
 32 33  2  0  0  0  0
 33 34  1  0  0  0  0
 35 36  2  0  0  0  0
 35 40  1  0  0  0  0
 36 37  1  0  0  0  0
 37 38  2  0  0  0  0
 38 39  1  0  0  0  0
 38 44  1  0  0  0  0
 39 40  2  0  0  0  0
 39 42  1  0  0  0  0
 40 41  1  0  0  0  0
 42 43  2  0  0  0  0
 43 44  1  0  0  0  0
M  CHG  2   3  -1   4  -1
M  END
>  <CHROM.1>
-0.49035171,151.96935617,13.84917758,23.98047308,-2.07078715,-0.00718049
0.30453989,0.25900814

>  <Name>
ligand

>  <RI>
0

>  <Rbt.Current_Directory>
/home/itssahil/PROJECTS/Mol_Feturizer/New_Systems/rnas/4QLM

>  <Rbt.Executable>
rbdock ($Id: //depot/dev/client3/rdock/2013.1/src/exe/rbdock.cxx#4 $)

>  <Rbt.Library>
libRbt.so (2013.1, Build901 2013/11/27)

>  <Rbt.Parameter_File>
/export/apps/rDock/src/rDock_2013.1_src/data/scripts/dock_solv.prm

>  <Rbt.Receptor>
prm/blind_docking_60.prm

>  <SCORE>
24.3086

>  <SCORE.INTER>
19.415

>  <SCORE.INTER.CONST>
1

>  <SCORE.INTER.POLAR>
0

>  <SCORE.INTER.ROT>
2

>  <SCORE.INTER.SOLV>
49.5825

>  <SCORE.INTER.VDW>
-8.51748

>  <SCORE.INTER.norm>
0.441251

>  <SCORE.INTRA>
0.634747

>  <SCORE.INTRA.DIHEDRAL>
0.0656883

>  <SCORE.INTRA.DIHEDRAL.0>
2.32994

>  <SCORE.INTRA.POLAR>
0

>  <SCORE.INTRA.POLAR.0>
0

>  <SCORE.INTRA.REPUL>
0

>  <SCORE.INTRA.REPUL.0>
0

>  <SCORE.INTRA.SOLV>
0.130706

>  <SCORE.INTRA.SOLV.lig_0>
-117.703

>  <SCORE.INTRA.VDW>
0.53655

>  <SCORE.INTRA.VDW.0>
-1.59997

>  <SCORE.INTRA.norm>
0.0144261

>  <SCORE.RESTR>
4.25881

>  <SCORE.RESTR.CAVITY>
4.25881

>  <SCORE.RESTR.norm>
0.096791

>  <SCORE.SYSTEM>
0

>  <SCORE.SYSTEM.CONST>
0

>  <SCORE.SYSTEM.DIHEDRAL>
0

>  <SCORE.SYSTEM.SOLV>
0

>  <SCORE.SYSTEM.norm>
0

>  <SCORE.heavy>
44

>  <SCORE.norm>
0.552468

>  <RMSD>
26.827

$$$$
ligand
 OpenBabel11021811513D
libRbt.so/2013.1/901 2013/11/27
 44 50  0  0  0  0  0  0  0  0999 V2000
   14.9494   23.3513    0.5129 P   0  0  2  0  0  0  0  0  0  0  0  0
   12.9621   27.1001   -2.8341 P   0  0  1  0  0  0  0  0  0  0  0  0
   16.1021   23.5418    1.4956 O   0  5  0  0  0  0  0  0  0  0  0  0
   12.7468   26.3773   -4.1416 O   0  5  0  0  0  0  0  0  0  0  0  0
   14.9195   21.8784    0.1824 O   0  0  0  0  0  0  0  0  0  0  0  0
   12.2300   28.4578   -2.9319 O   0  0  0  0  0  0  0  0  0  0  0  0
   16.0688   25.4385   -0.3990 C   0  0  0  0  0  0  0  0  0  0  0  0
   12.7132   26.5156   -0.3312 C   0  0  0  0  0  0  0  0  0  0  0  0
   15.2992   24.2676   -0.7039 O   0  0  0  0  0  0  0  0  0  0  0  0
   12.4740   26.0317   -1.6830 O   0  0  0  0  0  0  0  0  0  0  0  0
   16.3774   26.2117   -1.6766 C   0  0  1  0  0  0  0  0  0  0  0  0
   12.0701   25.4523    0.6370 C   0  0  1  0  0  0  0  0  0  0  0  0
   17.4370   25.6939   -2.2166 O   0  0  0  0  0  0  0  0  0  0  0  0
   10.8842   25.2886    0.2118 O   0  0  0  0  0  0  0  0  0  0  0  0
   15.2770   26.1213   -2.7087 C   0  0  1  0  0  0  0  0  0  0  0  0
   12.6986   24.0607    0.4240 C   0  0  1  0  0  0  0  0  0  0  0  0
   14.5628   27.2745   -2.6177 O   0  0  0  0  0  0  0  0  0  0  0  0
   13.5981   23.7806    1.3750 O   0  0  0  0  0  0  0  0  0  0  0  0
   16.0529   26.0672   -4.0707 C   0  0  1  0  0  0  0  0  0  0  0  0
   11.5400   23.0376    0.4316 C   0  0  1  0  0  0  0  0  0  0  0  0
   16.0244   27.4013   -4.7284 O   0  0  0  0  0  0  0  0  0  0  0  0
   11.4808   22.3219    1.7467 O   0  0  0  0  0  0  0  0  0  0  0  0
   17.2661   25.7115   -3.7926 C   0  0  2  0  0  0  0  0  0  0  0  0
   10.4728   23.7431    0.2756 C   0  0  2  0  0  0  0  0  0  0  0  0
   18.6429   20.5285   -3.5430 N   0  0  0  0  0  0  0  0  0  0  0  0
   18.4986   21.3646   -2.4766 C   0  0  0  0  0  0  0  0  0  0  0  0
   18.1408   22.6778   -2.6471 N   0  0  0  0  0  0  0  0  0  0  0  0
   17.9295   23.1490   -3.9134 C   0  0  0  0  0  0  0  0  0  0  0  0
   18.0746   22.3406   -4.9725 C   0  0  0  0  0  0  0  0  0  0  0  0
   18.4292   21.0051   -4.7899 C   0  0  0  0  0  0  0  0  0  0  0  0
   18.6129   20.0554   -5.8142 N   0  0  0  0  0  0  0  0  0  0  0  0
   17.8029   23.0597   -6.0822 N   0  0  0  0  0  0  0  0  0  0  0  0
   17.4942   24.3295   -5.6932 C   0  0  0  0  0  0  0  0  0  0  0  0
   17.5546   24.3824   -4.3562 N   0  0  0  0  0  0  0  0  0  0  0  0
    9.1355   20.1599   -3.2588 N   0  0  0  0  0  0  0  0  0  0  0  0
    9.9334   19.9760   -2.1744 C   0  0  0  0  0  0  0  0  0  0  0  0
   10.1944   21.0282   -1.3425 N   0  0  0  0  0  0  0  0  0  0  0  0
    9.6547   22.2512   -1.5945 C   0  0  0  0  0  0  0  0  0  0  0  0
    8.8584   22.4399   -2.6661 C   0  0  0  0  0  0  0  0  0  0  0  0
    8.6009   21.3637   -3.5104 C   0  0  0  0  0  0  0  0  0  0  0  0
    7.8036   21.3415   -4.7099 N   0  0  0  0  0  0  0  0  0  0  0  0
    8.4756   23.7394   -2.6625 N   0  0  0  0  0  0  0  0  0  0  0  0
    9.0373   24.3472   -1.5785 C   0  0  0  0  0  0  0  0  0  0  0  0
    9.7619   23.4180   -0.9231 N   0  0  0  0  0  0  0  0  0  0  0  0
  1  3  1  1  0  0  0
  1  5  2  0  0  0  0
  1  9  1  0  0  0  0
  1 18  1  0  0  0  0
  2  4  1  6  0  0  0
  2  6  2  0  0  0  0
  2 10  1  0  0  0  0
  2 17  1  0  0  0  0
  7  9  1  0  0  0  0
  8 10  1  0  0  0  0
 11  7  1  1  0  0  0
 11 13  1  0  0  0  0
 11 15  1  0  0  0  0
 12  8  1  6  0  0  0
 12 14  1  0  0  0  0
 12 16  1  0  0  0  0
 13 23  1  0  0  0  0
 14 24  1  0  0  0  0
 15 17  1  6  0  0  0
 15 19  1  0  0  0  0
 16 18  1  1  0  0  0
 16 20  1  0  0  0  0
 19 21  1  1  0  0  0
 19 23  1  0  0  0  0
 20 22  1  1  0  0  0
 20 24  1  0  0  0  0
 23 34  1  1  0  0  0
 24 44  1  6  0  0  0
 25 26  2  0  0  0  0
 25 30  1  0  0  0  0
 26 27  1  0  0  0  0
 27 28  2  0  0  0  0
 28 29  1  0  0  0  0
 28 34  1  0  0  0  0
 29 30  2  0  0  0  0
 29 32  1  0  0  0  0
 30 31  1  0  0  0  0
 32 33  2  0  0  0  0
 33 34  1  0  0  0  0
 35 36  2  0  0  0  0
 35 40  1  0  0  0  0
 36 37  1  0  0  0  0
 37 38  2  0  0  0  0
 38 39  1  0  0  0  0
 38 44  1  0  0  0  0
 39 40  2  0  0  0  0
 39 42  1  0  0  0  0
 40 41  1  0  0  0  0
 42 43  2  0  0  0  0
 43 44  1  0  0  0  0
M  CHG  2   3  -1   4  -1
M  END
>  <CHROM.1>
-0.32042784,151.11732896,13.85300607,23.97804547,-2.07101615,-0.00956283
0.30642428,0.26087834

>  <Name>
ligand

>  <RI>
0

>  <Rbt.Current_Directory>
/home/itssahil/PROJECTS/Mol_Feturizer/New_Systems/rnas/4QLM

>  <Rbt.Executable>
rbdock ($Id: //depot/dev/client3/rdock/2013.1/src/exe/rbdock.cxx#4 $)

>  <Rbt.Library>
libRbt.so (2013.1, Build901 2013/11/27)

>  <Rbt.Parameter_File>
/export/apps/rDock/src/rDock_2013.1_src/data/scripts/dock_solv.prm

>  <Rbt.Receptor>
prm/blind_docking_60.prm

>  <SCORE>
24.5215

>  <SCORE.INTER>
19.6984

>  <SCORE.INTER.CONST>
1

>  <SCORE.INTER.POLAR>
0

>  <SCORE.INTER.ROT>
2

>  <SCORE.INTER.SOLV>
49.6522

>  <SCORE.INTER.VDW>
-8.3518

>  <SCORE.INTER.norm>
0.447691

>  <SCORE.INTRA>
0.614599

>  <SCORE.INTRA.DIHEDRAL>
0.0665826

>  <SCORE.INTRA.DIHEDRAL.0>
2.32994

>  <SCORE.INTRA.POLAR>
0

>  <SCORE.INTRA.POLAR.0>
0

>  <SCORE.INTRA.REPUL>
0

>  <SCORE.INTRA.REPUL.0>
0

>  <SCORE.INTRA.SOLV>
0.130437

>  <SCORE.INTRA.SOLV.lig_0>
-117.703

>  <SCORE.INTRA.VDW>
0.516089

>  <SCORE.INTRA.VDW.0>
-1.59997

>  <SCORE.INTRA.norm>
0.0139681

>  <SCORE.RESTR>
4.20853

>  <SCORE.RESTR.CAVITY>
4.20853

>  <SCORE.RESTR.norm>
0.0956483

>  <SCORE.SYSTEM>
0

>  <SCORE.SYSTEM.CONST>
0

>  <SCORE.SYSTEM.DIHEDRAL>
0

>  <SCORE.SYSTEM.SOLV>
0

>  <SCORE.SYSTEM.norm>
0

>  <SCORE.heavy>
44

>  <SCORE.norm>
0.557307

>  <RMSD>
26.830

$$$$
ligand
 OpenBabel11021811513D
libRbt.so/2013.1/901 2013/11/27
 44 50  0  0  0  0  0  0  0  0999 V2000
   14.8765   23.1028    0.5045 P   0  0  2  0  0  0  0  0  0  0  0  0
   13.4012   27.0795   -2.8443 P   0  0  1  0  0  0  0  0  0  0  0  0
   16.0483   23.1375    1.4823 O   0  5  0  0  0  0  0  0  0  0  0  0
   13.0847   26.3900   -4.1491 O   0  5  0  0  0  0  0  0  0  0  0  0
   14.6462   21.6468    0.1778 O   0  0  0  0  0  0  0  0  0  0  0  0
   12.8592   28.5236   -2.9426 O   0  0  0  0  0  0  0  0  0  0  0  0
   16.2643   25.0175   -0.4168 C   0  0  0  0  0  0  0  0  0  0  0  0
   13.0856   26.5390   -0.3390 C   0  0  0  0  0  0  0  0  0  0  0  0
   15.3421   23.9609   -0.7159 O   0  0  0  0  0  0  0  0  0  0  0  0
   12.7777   26.0893   -1.6886 O   0  0  0  0  0  0  0  0  0  0  0  0
   16.6695   25.7393   -1.6975 C   0  0  1  0  0  0  0  0  0  0  0  0
   12.3085   25.5744    0.6343 C   0  0  1  0  0  0  0  0  0  0  0  0
   17.6471   25.0818   -2.2401 O   0  0  0  0  0  0  0  0  0  0  0  0
   11.1096   25.5718    0.2140 O   0  0  0  0  0  0  0  0  0  0  0  0
   15.5628   25.7967   -2.7252 C   0  0  1  0  0  0  0  0  0  0  0  0
   12.7421   24.1101    0.4223 C   0  0  1  0  0  0  0  0  0  0  0  0
   15.0116   27.0362   -2.6343 O   0  0  0  0  0  0  0  0  0  0  0  0
   13.5992   23.7127    1.3706 O   0  0  0  0  0  0  0  0  0  0  0  0
   16.3187   25.6354   -4.0900 C   0  0  1  0  0  0  0  0  0  0  0  0
   11.4557   23.2533    0.4369 C   0  0  1  0  0  0  0  0  0  0  0  0
   16.4683   26.9599   -4.7509 O   0  0  0  0  0  0  0  0  0  0  0  0
   11.3055   22.5547    1.7540 O   0  0  0  0  0  0  0  0  0  0  0  0
   17.4737   25.1193   -3.8156 C   0  0  2  0  0  0  0  0  0  0  0  0
   10.4932   24.0964    0.2832 C   0  0  2  0  0  0  0  0  0  0  0  0
   19.9765   21.0757   -6.3069 N   0  0  0  0  0  0  0  0  0  0  0  0
   20.5262   22.2860   -6.0065 C   0  0  0  0  0  0  0  0  0  0  0  0
   19.7999   23.2562   -5.3641 N   0  0  0  0  0  0  0  0  0  0  0  0
   18.5007   22.9971   -5.0248 C   0  0  0  0  0  0  0  0  0  0  0  0
   17.9440   21.8141   -5.3199 C   0  0  0  0  0  0  0  0  0  0  0  0
   18.6919   20.8303   -5.9644 C   0  0  0  0  0  0  0  0  0  0  0  0
   18.2277   19.5511   -6.3292 N   0  0  0  0  0  0  0  0  0  0  0  0
   16.6712   21.8322   -4.8706 N   0  0  0  0  0  0  0  0  0  0  0  0
   16.4462   23.0493   -4.2986 C   0  0  0  0  0  0  0  0  0  0  0  0
   17.5774   23.7623   -4.3769 N   0  0  0  0  0  0  0  0  0  0  0  0
    8.7200   20.7284   -3.2711 N   0  0  0  0  0  0  0  0  0  0  0  0
    9.4995   20.4422   -2.1955 C   0  0  0  0  0  0  0  0  0  0  0  0
    9.8878   21.4485   -1.3566 N   0  0  0  0  0  0  0  0  0  0  0  0
    9.4923   22.7284   -1.5928 C   0  0  0  0  0  0  0  0  0  0  0  0
    8.7150   23.0192   -2.6556 C   0  0  0  0  0  0  0  0  0  0  0  0
    8.3274   21.9888   -3.5072 C   0  0  0  0  0  0  0  0  0  0  0  0
    7.5236   22.0714   -4.6997 N   0  0  0  0  0  0  0  0  0  0  0  0
    8.4864   24.3543   -2.6370 N   0  0  0  0  0  0  0  0  0  0  0  0
    9.1234   24.8819   -1.5527 C   0  0  0  0  0  0  0  0  0  0  0  0
    9.7399   23.8682   -0.9120 N   0  0  0  0  0  0  0  0  0  0  0  0
  1  3  1  1  0  0  0
  1  5  2  0  0  0  0
  1  9  1  0  0  0  0
  1 18  1  0  0  0  0
  2  4  1  6  0  0  0
  2  6  2  0  0  0  0
  2 10  1  0  0  0  0
  2 17  1  0  0  0  0
  7  9  1  0  0  0  0
  8 10  1  0  0  0  0
 11  7  1  1  0  0  0
 11 13  1  0  0  0  0
 11 15  1  0  0  0  0
 12  8  1  6  0  0  0
 12 14  1  0  0  0  0
 12 16  1  0  0  0  0
 13 23  1  0  0  0  0
 14 24  1  0  0  0  0
 15 17  1  6  0  0  0
 15 19  1  0  0  0  0
 16 18  1  1  0  0  0
 16 20  1  0  0  0  0
 19 21  1  1  0  0  0
 19 23  1  0  0  0  0
 20 22  1  1  0  0  0
 20 24  1  0  0  0  0
 23 34  1  1  0  0  0
 24 44  1  6  0  0  0
 25 26  2  0  0  0  0
 25 30  1  0  0  0  0
 26 27  1  0  0  0  0
 27 28  2  0  0  0  0
 28 29  1  0  0  0  0
 28 34  1  0  0  0  0
 29 30  2  0  0  0  0
 29 32  1  0  0  0  0
 30 31  1  0  0  0  0
 32 33  2  0  0  0  0
 33 34  1  0  0  0  0
 35 36  2  0  0  0  0
 35 40  1  0  0  0  0
 36 37  1  0  0  0  0
 37 38  2  0  0  0  0
 38 39  1  0  0  0  0
 38 44  1  0  0  0  0
 39 40  2  0  0  0  0
 39 42  1  0  0  0  0
 40 41  1  0  0  0  0
 42 43  2  0  0  0  0
 43 44  1  0  0  0  0
M  CHG  2   3  -1   4  -1
M  END
>  <CHROM.1>
-101.48540337,149.81483448,13.98599685,23.95498864,-2.26857977,-2.86104232
-0.29620865,-2.49020700

>  <Name>
ligand

>  <RI>
0

>  <Rbt.Current_Directory>
/home/itssahil/PROJECTS/Mol_Feturizer/New_Systems/rnas/4QLM

>  <Rbt.Executable>
rbdock ($Id: //depot/dev/client3/rdock/2013.1/src/exe/rbdock.cxx#4 $)

>  <Rbt.Library>
libRbt.so (2013.1, Build901 2013/11/27)

>  <Rbt.Parameter_File>
/export/apps/rDock/src/rDock_2013.1_src/data/scripts/dock_solv.prm

>  <Rbt.Receptor>
prm/blind_docking_60.prm

>  <SCORE>
12.5161

>  <SCORE.INTER>
3.21496

>  <SCORE.INTER.CONST>
1

>  <SCORE.INTER.POLAR>
0

>  <SCORE.INTER.ROT>
2

>  <SCORE.INTER.SOLV>
49.7049

>  <SCORE.INTER.VDW>
-19.3583

>  <SCORE.INTER.norm>
0.0730674

>  <SCORE.INTRA>
2.6659

>  <SCORE.INTRA.DIHEDRAL>
0.15032

>  <SCORE.INTRA.DIHEDRAL.0>
2.32994

>  <SCORE.INTRA.POLAR>
0

>  <SCORE.INTRA.POLAR.0>
0

>  <SCORE.INTRA.REPUL>
0

>  <SCORE.INTRA.REPUL.0>
0

>  <SCORE.INTRA.SOLV>
0.0700429

>  <SCORE.INTRA.SOLV.lig_0>
-117.703

>  <SCORE.INTRA.VDW>
2.55572

>  <SCORE.INTRA.VDW.0>
-1.59997

>  <SCORE.INTRA.norm>
0.0605887

>  <SCORE.RESTR>
6.63526

>  <SCORE.RESTR.CAVITY>
6.63526

>  <SCORE.RESTR.norm>
0.150801

>  <SCORE.SYSTEM>
0

>  <SCORE.SYSTEM.CONST>
0

>  <SCORE.SYSTEM.DIHEDRAL>
0

>  <SCORE.SYSTEM.SOLV>
0

>  <SCORE.SYSTEM.norm>
0

>  <SCORE.heavy>
44

>  <SCORE.norm>
0.284457

>  <RMSD>
26.833

$$$$
ligand
 OpenBabel11021811513D
libRbt.so/2013.1/901 2013/11/27
 44 50  0  0  0  0  0  0  0  0999 V2000
   14.9542   23.3569    0.5149 P   0  0  2  0  0  0  0  0  0  0  0  0
   12.9683   27.1002   -2.8391 P   0  0  1  0  0  0  0  0  0  0  0  0
   16.1045   23.5499    1.4998 O   0  5  0  0  0  0  0  0  0  0  0  0
   12.7568   26.3762   -4.1464 O   0  5  0  0  0  0  0  0  0  0  0  0
   14.9272   21.8837    0.1854 O   0  0  0  0  0  0  0  0  0  0  0  0
   12.2344   28.4568   -2.9394 O   0  0  0  0  0  0  0  0  0  0  0  0
   16.0724   25.4451   -0.3962 C   0  0  0  0  0  0  0  0  0  0  0  0
   12.7150   26.5173   -0.3362 C   0  0  0  0  0  0  0  0  0  0  0  0
   15.3051   24.2728   -0.7019 O   0  0  0  0  0  0  0  0  0  0  0  0
   12.4794   26.0320   -1.6881 O   0  0  0  0  0  0  0  0  0  0  0  0
   16.3825   26.2178   -1.6738 C   0  0  1  0  0  0  0  0  0  0  0  0
   12.0715   25.4537    0.6314 C   0  0  1  0  0  0  0  0  0  0  0  0
   17.4440   25.7012   -2.2111 O   0  0  0  0  0  0  0  0  0  0  0  0
   10.8867   25.2879    0.2038 O   0  0  0  0  0  0  0  0  0  0  0  0
   15.2843   26.1250   -2.7081 C   0  0  1  0  0  0  0  0  0  0  0  0
   12.7025   24.0629    0.4207 C   0  0  1  0  0  0  0  0  0  0  0  0
   14.5683   27.2773   -2.6195 O   0  0  0  0  0  0  0  0  0  0  0  0
   13.6004   23.7849    1.3738 O   0  0  0  0  0  0  0  0  0  0  0  0
   16.0632   26.0710   -4.0685 C   0  0  1  0  0  0  0  0  0  0  0  0
   11.5454   23.0381    0.4267 C   0  0  1  0  0  0  0  0  0  0  0  0
   16.0341   27.4047   -4.7272 O   0  0  0  0  0  0  0  0  0  0  0  0
   11.4845   22.3232    1.7422 O   0  0  0  0  0  0  0  0  0  0  0  0
   17.2763   25.7173   -3.7876 C   0  0  2  0  0  0  0  0  0  0  0  0
   10.4775   23.7419    0.2680 C   0  0  2  0  0  0  0  0  0  0  0  0
   18.6380   20.5308   -3.5290 N   0  0  0  0  0  0  0  0  0  0  0  0
   18.4837   21.3660   -2.4633 C   0  0  0  0  0  0  0  0  0  0  0  0
   18.1309   22.6802   -2.6361 N   0  0  0  0  0  0  0  0  0  0  0  0
   17.9350   23.1535   -3.9041 C   0  0  0  0  0  0  0  0  0  0  0  0
   18.0901   22.3460   -4.9626 C   0  0  0  0  0  0  0  0  0  0  0  0
   18.4394   21.0094   -4.7776 C   0  0  0  0  0  0  0  0  0  0  0  0
   18.6323   20.0605   -5.8011 N   0  0  0  0  0  0  0  0  0  0  0  0
   17.8325   23.0671   -6.0743 N   0  0  0  0  0  0  0  0  0  0  0  0
   17.5224   24.3372   -5.6872 C   0  0  0  0  0  0  0  0  0  0  0  0
   17.5680   24.3883   -4.3495 N   0  0  0  0  0  0  0  0  0  0  0  0
    9.1192   20.1446   -3.2441 N   0  0  0  0  0  0  0  0  0  0  0  0
    9.9090   19.9608   -2.1538 C   0  0  0  0  0  0  0  0  0  0  0  0
   10.1773   21.0168   -1.3291 N   0  0  0  0  0  0  0  0  0  0  0  0
    9.6529   22.2437   -1.5943 C   0  0  0  0  0  0  0  0  0  0  0  0
    8.8647   22.4325   -2.6719 C   0  0  0  0  0  0  0  0  0  0  0  0
    8.5997   21.3522   -3.5087 C   0  0  0  0  0  0  0  0  0  0  0  0
    7.8088   21.3290   -4.7124 N   0  0  0  0  0  0  0  0  0  0  0  0
    8.4967   23.7361   -2.6812 N   0  0  0  0  0  0  0  0  0  0  0  0
    9.0592   24.3467   -1.5992 C   0  0  0  0  0  0  0  0  0  0  0  0
    9.7695   23.4148   -0.9320 N   0  0  0  0  0  0  0  0  0  0  0  0
  1  3  1  1  0  0  0
  1  5  2  0  0  0  0
  1  9  1  0  0  0  0
  1 18  1  0  0  0  0
  2  4  1  6  0  0  0
  2  6  2  0  0  0  0
  2 10  1  0  0  0  0
  2 17  1  0  0  0  0
  7  9  1  0  0  0  0
  8 10  1  0  0  0  0
 11  7  1  1  0  0  0
 11 13  1  0  0  0  0
 11 15  1  0  0  0  0
 12  8  1  6  0  0  0
 12 14  1  0  0  0  0
 12 16  1  0  0  0  0
 13 23  1  0  0  0  0
 14 24  1  0  0  0  0
 15 17  1  6  0  0  0
 15 19  1  0  0  0  0
 16 18  1  1  0  0  0
 16 20  1  0  0  0  0
 19 21  1  1  0  0  0
 19 23  1  0  0  0  0
 20 22  1  1  0  0  0
 20 24  1  0  0  0  0
 23 34  1  1  0  0  0
 24 44  1  6  0  0  0
 25 26  2  0  0  0  0
 25 30  1  0  0  0  0
 26 27  1  0  0  0  0
 27 28  2  0  0  0  0
 28 29  1  0  0  0  0
 28 34  1  0  0  0  0
 29 30  2  0  0  0  0
 29 32  1  0  0  0  0
 30 31  1  0  0  0  0
 32 33  2  0  0  0  0
 33 34  1  0  0  0  0
 35 36  2  0  0  0  0
 35 40  1  0  0  0  0
 36 37  1  0  0  0  0
 37 38  2  0  0  0  0
 38 39  1  0  0  0  0
 38 44  1  0  0  0  0
 39 40  2  0  0  0  0
 39 42  1  0  0  0  0
 40 41  1  0  0  0  0
 42 43  2  0  0  0  0
 43 44  1  0  0  0  0
M  CHG  2   3  -1   4  -1
M  END
>  <CHROM.1>
0.25857217,151.99290985,13.85815581,23.97898233,-2.06988097,-0.00405498,0.30541547
0.25638005

>  <Name>
ligand

>  <RI>
0

>  <Rbt.Current_Directory>
/home/itssahil/PROJECTS/Mol_Feturizer/New_Systems/rnas/4QLM

>  <Rbt.Executable>
rbdock ($Id: //depot/dev/client3/rdock/2013.1/src/exe/rbdock.cxx#4 $)

>  <Rbt.Library>
libRbt.so (2013.1, Build901 2013/11/27)

>  <Rbt.Parameter_File>
/export/apps/rDock/src/rDock_2013.1_src/data/scripts/dock_solv.prm

>  <Rbt.Receptor>
prm/blind_docking_60.prm

>  <SCORE>
24.6376

>  <SCORE.INTER>
19.8561

>  <SCORE.INTER.CONST>
1

>  <SCORE.INTER.POLAR>
0

>  <SCORE.INTER.ROT>
2

>  <SCORE.INTER.SOLV>
49.6578

>  <SCORE.INTER.VDW>
-8.24854

>  <SCORE.INTER.norm>
0.451274

>  <SCORE.INTRA>
0.59405

>  <SCORE.INTRA.DIHEDRAL>
0.0697795

>  <SCORE.INTRA.DIHEDRAL.0>
2.32994

>  <SCORE.INTRA.POLAR>
0

>  <SCORE.INTRA.POLAR.0>
0

>  <SCORE.INTRA.REPUL>
0

>  <SCORE.INTRA.REPUL.0>
0

>  <SCORE.INTRA.SOLV>
0.129854

>  <SCORE.INTRA.SOLV.lig_0>
-117.703

>  <SCORE.INTRA.VDW>
0.494234

>  <SCORE.INTRA.VDW.0>
-1.59997

>  <SCORE.INTRA.norm>
0.0135011

>  <SCORE.RESTR>
4.18749

>  <SCORE.RESTR.CAVITY>
4.18749

>  <SCORE.RESTR.norm>
0.0951703

>  <SCORE.SYSTEM>
0

>  <SCORE.SYSTEM.CONST>
0

>  <SCORE.SYSTEM.DIHEDRAL>
0

>  <SCORE.SYSTEM.SOLV>
0

>  <SCORE.SYSTEM.norm>
0

>  <SCORE.heavy>
44

>  <SCORE.norm>
0.559946

>  <RMSD>
26.834

$$$$
ligand
 OpenBabel11021811513D
libRbt.so/2013.1/901 2013/11/27
 44 50  0  0  0  0  0  0  0  0999 V2000
   15.1354   23.3422    0.6893 P   0  0  2  0  0  0  0  0  0  0  0  0
   13.4124   27.3868   -2.4536 P   0  0  1  0  0  0  0  0  0  0  0  0
   16.2430   23.4249    1.7366 O   0  5  0  0  0  0  0  0  0  0  0  0
   13.2429   26.7702   -3.8207 O   0  5  0  0  0  0  0  0  0  0  0  0
   15.0837   21.8995    0.2470 O   0  0  0  0  0  0  0  0  0  0  0  0
   12.7214   28.7691   -2.4824 O   0  0  0  0  0  0  0  0  0  0  0  0
   16.3519   25.4576   -0.0081 C   0  0  0  0  0  0  0  0  0  0  0  0
   13.0259   26.6251   -0.0166 C   0  0  0  0  0  0  0  0  0  0  0  0
   15.5681   24.3359   -0.4368 O   0  0  0  0  0  0  0  0  0  0  0  0
   12.8409   26.2505   -1.4109 O   0  0  0  0  0  0  0  0  0  0  0  0
   16.7427   26.3144   -1.2076 C   0  0  1  0  0  0  0  0  0  0  0  0
   12.3088   25.5121    0.8369 C   0  0  1  0  0  0  0  0  0  0  0  0
   17.8137   25.8072   -1.7348 O   0  0  0  0  0  0  0  0  0  0  0  0
   11.1414   25.4155    0.3452 O   0  0  0  0  0  0  0  0  0  0  0  0
   15.6922   26.3336   -2.2941 C   0  0  1  0  0  0  0  0  0  0  0  0
   12.9109   24.1223    0.5487 C   0  0  1  0  0  0  0  0  0  0  0  0
   15.0045   27.4974   -2.1496 O   0  0  0  0  0  0  0  0  0  0  0  0
   13.7550   23.7458    1.5170 O   0  0  0  0  0  0  0  0  0  0  0  0
   16.5324   26.3582   -3.6184 C   0  0  1  0  0  0  0  0  0  0  0  0
   11.7271   23.1361    0.4244 C   0  0  1  0  0  0  0  0  0  0  0  0
   16.5707   27.7380   -4.1736 O   0  0  0  0  0  0  0  0  0  0  0  0
   11.5850   22.3265    1.6772 O   0  0  0  0  0  0  0  0  0  0  0  0
   17.7209   25.9472   -3.3113 C   0  0  2  0  0  0  0  0  0  0  0  0
   10.6875   23.8824    0.2723 C   0  0  2  0  0  0  0  0  0  0  0  0
   16.4014   21.2289   -5.5063 N   0  0  0  0  0  0  0  0  0  0  0  0
   15.5243   22.1563   -5.0289 C   0  0  0  0  0  0  0  0  0  0  0  0
   15.9644   23.3365   -4.4858 N   0  0  0  0  0  0  0  0  0  0  0  0
   17.3090   23.5778   -4.4237 C   0  0  0  0  0  0  0  0  0  0  0  0
   18.1841   22.6722   -4.8826 C   0  0  0  0  0  0  0  0  0  0  0  0
   17.7282   21.4796   -5.4415 C   0  0  0  0  0  0  0  0  0  0  0  0
   18.5398   20.4501   -5.9577 N   0  0  0  0  0  0  0  0  0  0  0  0
   19.4263   23.1686   -4.7017 N   0  0  0  0  0  0  0  0  0  0  0  0
   19.3065   24.3942   -4.1162 C   0  0  0  0  0  0  0  0  0  0  0  0
   18.0022   24.6559   -3.9598 N   0  0  0  0  0  0  0  0  0  0  0  0
    9.1695   20.5533   -3.4335 N   0  0  0  0  0  0  0  0  0  0  0  0
    9.8600   20.2532   -2.3024 C   0  0  0  0  0  0  0  0  0  0  0  0
   10.1900   21.2506   -1.4285 N   0  0  0  0  0  0  0  0  0  0  0  0
    9.8249   22.5355   -1.6858 C   0  0  0  0  0  0  0  0  0  0  0  0
    9.1356   22.8401   -2.8040 C   0  0  0  0  0  0  0  0  0  0  0  0
    8.8071   21.8186   -3.6905 C   0  0  0  0  0  0  0  0  0  0  0  0
    8.0996   21.9161   -4.9416 N   0  0  0  0  0  0  0  0  0  0  0  0
    8.9174   24.1770   -2.7938 N   0  0  0  0  0  0  0  0  0  0  0  0
    9.4721   24.6919   -1.6593 C   0  0  0  0  0  0  0  0  0  0  0  0
   10.0281   23.6686   -0.9797 N   0  0  0  0  0  0  0  0  0  0  0  0
  1  3  1  1  0  0  0
  1  5  2  0  0  0  0
  1  9  1  0  0  0  0
  1 18  1  0  0  0  0
  2  4  1  6  0  0  0
  2  6  2  0  0  0  0
  2 10  1  0  0  0  0
  2 17  1  0  0  0  0
  7  9  1  0  0  0  0
  8 10  1  0  0  0  0
 11  7  1  1  0  0  0
 11 13  1  0  0  0  0
 11 15  1  0  0  0  0
 12  8  1  6  0  0  0
 12 14  1  0  0  0  0
 12 16  1  0  0  0  0
 13 23  1  0  0  0  0
 14 24  1  0  0  0  0
 15 17  1  1  0  0  0
 15 19  1  0  0  0  0
 16 18  1  1  0  0  0
 16 20  1  0  0  0  0
 19 21  1  1  0  0  0
 19 23  1  0  0  0  0
 20 22  1  1  0  0  0
 20 24  1  0  0  0  0
 23 34  1  6  0  0  0
 24 44  1  6  0  0  0
 25 26  2  0  0  0  0
 25 30  1  0  0  0  0
 26 27  1  0  0  0  0
 27 28  2  0  0  0  0
 28 29  1  0  0  0  0
 28 34  1  0  0  0  0
 29 30  2  0  0  0  0
 29 32  1  0  0  0  0
 30 31  1  0  0  0  0
 32 33  2  0  0  0  0
 33 34  1  0  0  0  0
 35 36  2  0  0  0  0
 35 40  1  0  0  0  0
 36 37  1  0  0  0  0
 37 38  2  0  0  0  0
 38 39  1  0  0  0  0
 38 44  1  0  0  0  0
 39 40  2  0  0  0  0
 39 42  1  0  0  0  0
 40 41  1  0  0  0  0
 42 43  2  0  0  0  0
 43 44  1  0  0  0  0
M  CHG  2   3  -1   4  -1
M  END
>  <CHROM.1>
93.45393947,157.61557083,13.98720730,24.21815314,-2.01503179,-0.06927892
0.32611154,0.70762757

>  <Name>
ligand

>  <RI>
0

>  <Rbt.Current_Directory>
/home/itssahil/PROJECTS/Mol_Feturizer/New_Systems/rnas/4QLM

>  <Rbt.Executable>
rbdock ($Id: //depot/dev/client3/rdock/2013.1/src/exe/rbdock.cxx#4 $)

>  <Rbt.Library>
libRbt.so (2013.1, Build901 2013/11/27)

>  <Rbt.Parameter_File>
/export/apps/rDock/src/rDock_2013.1_src/data/scripts/dock_solv.prm

>  <Rbt.Receptor>
prm/blind_docking_80.prm

>  <SCORE>
25.3316

>  <SCORE.INTER>
16.5377

>  <SCORE.INTER.CONST>
1

>  <SCORE.INTER.POLAR>
0

>  <SCORE.INTER.ROT>
2

>  <SCORE.INTER.SOLV>
46.7152

>  <SCORE.INTER.VDW>
-9.47995

>  <SCORE.INTER.norm>
0.375856

>  <SCORE.INTRA>
-0.0395907

>  <SCORE.INTRA.DIHEDRAL>
-0.040901

>  <SCORE.INTRA.DIHEDRAL.0>
2.32994

>  <SCORE.INTRA.POLAR>
0

>  <SCORE.INTRA.POLAR.0>
0

>  <SCORE.INTRA.REPUL>
0

>  <SCORE.INTRA.REPUL.0>
0

>  <SCORE.INTRA.SOLV>
0.0735429

>  <SCORE.INTRA.SOLV.lig_0>
-117.703

>  <SCORE.INTRA.VDW>
-0.0559117

>  <SCORE.INTRA.VDW.0>
-1.59997

>  <SCORE.INTRA.norm>
-0.000899789

>  <SCORE.RESTR>
8.83351

>  <SCORE.RESTR.CAVITY>
8.83351

>  <SCORE.RESTR.norm>
0.200762

>  <SCORE.SYSTEM>
0

>  <SCORE.SYSTEM.CONST>
0

>  <SCORE.SYSTEM.DIHEDRAL>
0

>  <SCORE.SYSTEM.SOLV>
0

>  <SCORE.SYSTEM.norm>
0

>  <SCORE.heavy>
44

>  <SCORE.norm>
0.575718

>  <RMSD>
26.838

$$$$
ligand
 OpenBabel11021811513D
libRbt.so/2013.1/901 2013/11/27
 44 50  0  0  0  0  0  0  0  0999 V2000
   13.4456   27.1684   -2.8214 P   0  0  2  0  0  0  0  0  0  0  0  0
   15.3209   23.4588    0.6322 P   0  0  1  0  0  0  0  0  0  0  0  0
   12.5844   28.3772   -2.4641 O   0  5  0  0  0  0  0  0  0  0  0  0
   15.1160   22.1380   -0.0688 O   0  5  0  0  0  0  0  0  0  0  0  0
   13.1348   26.8437   -4.2627 O   0  0  0  0  0  0  0  0  0  0  0  0
   16.2503   23.2006    1.8399 O   0  0  0  0  0  0  0  0  0  0  0  0
   12.5572   26.5151   -0.5356 C   0  0  0  0  0  0  0  0  0  0  0  0
   15.9885   25.8499   -0.0789 C   0  0  0  0  0  0  0  0  0  0  0  0
   13.0169   26.0538   -1.8132 O   0  0  0  0  0  0  0  0  0  0  0  0
   15.8406   24.4798   -0.5478 O   0  0  0  0  0  0  0  0  0  0  0  0
   12.1288   25.3325    0.3268 C   0  0  1  0  0  0  0  0  0  0  0  0
   16.6187   26.6585   -1.2749 C   0  0  1  0  0  0  0  0  0  0  0  0
   10.9020   25.0369    0.0269 O   0  0  0  0  0  0  0  0  0  0  0  0
   17.6360   25.9866   -1.6323 O   0  0  0  0  0  0  0  0  0  0  0  0
   12.9477   24.0865    0.0791 C   0  0  1  0  0  0  0  0  0  0  0  0
   15.7160   26.5911   -2.5230 C   0  0  1  0  0  0  0  0  0  0  0  0
   13.8629   24.0170    1.0820 O   0  0  0  0  0  0  0  0  0  0  0  0
   15.0052   27.7154   -2.6725 O   0  0  0  0  0  0  0  0  0  0  0  0
   11.9018   22.9255    0.2147 C   0  0  1  0  0  0  0  0  0  0  0  0
   16.6429   26.3502   -3.7363 C   0  0  1  0  0  0  0  0  0  0  0  0
   12.0320   22.2734    1.5455 O   0  0  0  0  0  0  0  0  0  0  0  0
   16.8504   27.6232   -4.4989 O   0  0  0  0  0  0  0  0  0  0  0  0
   10.7321   23.4613    0.0716 C   0  0  2  0  0  0  0  0  0  0  0  0
   17.7624   25.9642   -3.2276 C   0  0  2  0  0  0  0  0  0  0  0  0
   10.6849   21.6344   -4.9763 N   0  0  0  0  0  0  0  0  0  0  0  0
   11.7986   21.9262   -4.2472 C   0  0  0  0  0  0  0  0  0  0  0  0
   11.7034   22.3882   -2.9592 N   0  0  0  0  0  0  0  0  0  0  0  0
   10.4647   22.5587   -2.4052 C   0  0  0  0  0  0  0  0  0  0  0  0
    9.3600   22.2828   -3.1123 C   0  0  0  0  0  0  0  0  0  0  0  0
    9.4659   21.8047   -4.4173 C   0  0  0  0  0  0  0  0  0  0  0  0
    8.3879   21.4783   -5.2636 N   0  0  0  0  0  0  0  0  0  0  0  0
    8.2920   22.5349   -2.3262 N   0  0  0  0  0  0  0  0  0  0  0  0
    8.7534   22.9788   -1.1224 C   0  0  0  0  0  0  0  0  0  0  0  0
   10.0922   22.9777   -1.1629 N   0  0  0  0  0  0  0  0  0  0  0  0
   16.7955   21.8024   -6.2051 N   0  0  0  0  0  0  0  0  0  0  0  0
   16.0771   22.9548   -6.1582 C   0  0  0  0  0  0  0  0  0  0  0  0
   16.4620   23.9560   -5.3116 N   0  0  0  0  0  0  0  0  0  0  0  0
   17.5607   23.8030   -4.5242 C   0  0  0  0  0  0  0  0  0  0  0  0
   18.2810   22.6640   -4.5687 C   0  0  0  0  0  0  0  0  0  0  0  0
   17.8797   21.6479   -5.4311 C   0  0  0  0  0  0  0  0  0  0  0  0
   18.4815   20.3538   -5.6264 N   0  0  0  0  0  0  0  0  0  0  0  0
   19.3008   22.7951   -3.6868 N   0  0  0  0  0  0  0  0  0  0  0  0
   19.2062   24.0242   -3.1036 C   0  0  0  0  0  0  0  0  0  0  0  0
   18.1289   24.6407   -3.6303 N   0  0  0  0  0  0  0  0  0  0  0  0
  1  3  1  1  0  0  0
  1  5  2  0  0  0  0
  1  9  1  0  0  0  0
  1 18  1  0  0  0  0
  2  4  1  6  0  0  0
  2  6  2  0  0  0  0
  2 10  1  0  0  0  0
  2 17  1  0  0  0  0
  7  9  1  0  0  0  0
  8 10  1  0  0  0  0
 11  7  1  6  0  0  0
 11 13  1  0  0  0  0
 11 15  1  0  0  0  0
 12  8  1  1  0  0  0
 12 14  1  0  0  0  0
 12 16  1  0  0  0  0
 13 23  1  0  0  0  0
 14 24  1  0  0  0  0
 15 17  1  1  0  0  0
 15 19  1  0  0  0  0
 16 18  1  6  0  0  0
 16 20  1  0  0  0  0
 19 21  1  1  0  0  0
 19 23  1  0  0  0  0
 20 22  1  1  0  0  0
 20 24  1  0  0  0  0
 23 34  1  6  0  0  0
 24 44  1  6  0  0  0
 25 26  2  0  0  0  0
 25 30  1  0  0  0  0
 26 27  1  0  0  0  0
 27 28  2  0  0  0  0
 28 29  1  0  0  0  0
 28 34  1  0  0  0  0
 29 30  2  0  0  0  0
 29 32  1  0  0  0  0
 30 31  1  0  0  0  0
 32 33  2  0  0  0  0
 33 34  1  0  0  0  0
 35 36  2  0  0  0  0
 35 40  1  0  0  0  0
 36 37  1  0  0  0  0
 37 38  2  0  0  0  0
 38 39  1  0  0  0  0
 38 44  1  0  0  0  0
 39 40  2  0  0  0  0
 39 42  1  0  0  0  0
 40 41  1  0  0  0  0
 42 43  2  0  0  0  0
 43 44  1  0  0  0  0
M  CHG  2   3  -1   4  -1
M  END
>  <CHROM.1>
89.05754824,126.74866461,14.14505303,24.21639804,-2.27259697,-3.03006397
-0.28540830,-2.19281252

>  <Name>
ligand

>  <RI>
0

>  <Rbt.Current_Directory>
/home/itssahil/PROJECTS/Mol_Feturizer/New_Systems/rnas/4QLM

>  <Rbt.Executable>
rbdock ($Id: //depot/dev/client3/rdock/2013.1/src/exe/rbdock.cxx#4 $)

>  <Rbt.Library>
libRbt.so (2013.1, Build901 2013/11/27)

>  <Rbt.Parameter_File>
/export/apps/rDock/src/rDock_2013.1_src/data/scripts/dock_solv.prm

>  <Rbt.Receptor>
prm/blind_docking_40.prm

>  <SCORE>
24.025

>  <SCORE.INTER>
18.8465

>  <SCORE.INTER.CONST>
1

>  <SCORE.INTER.POLAR>
0

>  <SCORE.INTER.ROT>
2

>  <SCORE.INTER.SOLV>
52.1369

>  <SCORE.INTER.VDW>
-9.74799

>  <SCORE.INTER.norm>
0.428329

>  <SCORE.INTRA>
0.0573418

>  <SCORE.INTRA.DIHEDRAL>
-0.0381822

>  <SCORE.INTRA.DIHEDRAL.0>
2.32994

>  <SCORE.INTRA.POLAR>
0

>  <SCORE.INTRA.POLAR.0>
0

>  <SCORE.INTRA.REPUL>
0

>  <SCORE.INTRA.REPUL.0>
0

>  <SCORE.INTRA.SOLV>
0.0491805

>  <SCORE.INTRA.SOLV.lig_0>
-117.703

>  <SCORE.INTRA.VDW>
0.0518426

>  <SCORE.INTRA.VDW.0>
-1.59997

>  <SCORE.INTRA.norm>
0.00130322

>  <SCORE.RESTR>
5.12118

>  <SCORE.RESTR.CAVITY>
5.12118

>  <SCORE.RESTR.norm>
0.11639

>  <SCORE.SYSTEM>
0

>  <SCORE.SYSTEM.CONST>
0

>  <SCORE.SYSTEM.DIHEDRAL>
0

>  <SCORE.SYSTEM.SOLV>
0

>  <SCORE.SYSTEM.norm>
0

>  <SCORE.heavy>
44

>  <SCORE.norm>
0.546022

>  <RMSD>
26.840

$$$$
ligand
 OpenBabel11021811513D
libRbt.so/2013.1/901 2013/11/27
 44 50  0  0  0  0  0  0  0  0999 V2000
   15.0044   23.4394    0.4690 P   0  0  2  0  0  0  0  0  0  0  0  0
   12.9373   27.0762   -2.9526 P   0  0  1  0  0  0  0  0  0  0  0  0
   16.1457   23.6775    1.4545 O   0  5  0  0  0  0  0  0  0  0  0  0
   12.7491   26.3258   -4.2485 O   0  5  0  0  0  0  0  0  0  0  0  0
   15.0158   21.9609    0.1637 O   0  0  0  0  0  0  0  0  0  0  0  0
   12.1698   28.4119   -3.0775 O   0  0  0  0  0  0  0  0  0  0  0  0
   16.0729   25.5402   -0.4725 C   0  0  0  0  0  0  0  0  0  0  0  0
   12.6894   26.5279   -0.4413 C   0  0  0  0  0  0  0  0  0  0  0  0
   15.3367   24.3440   -0.7614 O   0  0  0  0  0  0  0  0  0  0  0  0
   12.4712   26.0148   -1.7859 O   0  0  0  0  0  0  0  0  0  0  0  0
   16.3683   26.2995   -1.7615 C   0  0  1  0  0  0  0  0  0  0  0  0
   12.0693   25.4643    0.5414 C   0  0  1  0  0  0  0  0  0  0  0  0
   17.4445   25.8012   -2.2867 O   0  0  0  0  0  0  0  0  0  0  0  0
   10.8907   25.2616    0.1127 O   0  0  0  0  0  0  0  0  0  0  0  0
   15.2767   26.1621   -2.7978 C   0  0  1  0  0  0  0  0  0  0  0  0
   12.7360   24.0867    0.3557 C   0  0  1  0  0  0  0  0  0  0  0  0
   14.5315   27.2972   -2.7305 O   0  0  0  0  0  0  0  0  0  0  0  0
   13.6370   23.8470    1.3162 O   0  0  0  0  0  0  0  0  0  0  0  0
   16.0618   26.1056   -4.1545 C   0  0  1  0  0  0  0  0  0  0  0  0
   11.6051   23.0332    0.3747 C   0  0  1  0  0  0  0  0  0  0  0  0
   16.0015   27.4272   -4.8351 O   0  0  0  0  0  0  0  0  0  0  0  0
   11.5573   22.3385    1.7015 O   0  0  0  0  0  0  0  0  0  0  0  0
   17.2824   25.7874   -3.8638 C   0  0  2  0  0  0  0  0  0  0  0  0
   10.5203   23.7071    0.2008 C   0  0  2  0  0  0  0  0  0  0  0  0
   18.6155   20.5993   -3.5065 N   0  0  0  0  0  0  0  0  0  0  0  0
   18.3904   21.4362   -2.4548 C   0  0  0  0  0  0  0  0  0  0  0  0
   18.0522   22.7507   -2.6529 N   0  0  0  0  0  0  0  0  0  0  0  0
   17.9437   23.2224   -3.9320 C   0  0  0  0  0  0  0  0  0  0  0  0
   18.1691   22.4133   -4.9764 C   0  0  0  0  0  0  0  0  0  0  0  0
   18.5031   21.0765   -4.7664 C   0  0  0  0  0  0  0  0  0  0  0  0
   18.7638   20.1259   -5.7731 N   0  0  0  0  0  0  0  0  0  0  0  0
   17.9889   23.1332   -6.1040 N   0  0  0  0  0  0  0  0  0  0  0  0
   17.6551   24.4043   -5.7405 C   0  0  0  0  0  0  0  0  0  0  0  0
   17.6096   24.4572   -4.4029 N   0  0  0  0  0  0  0  0  0  0  0  0
   10.6716   21.5595   -4.5411 N   0  0  0  0  0  0  0  0  0  0  0  0
   11.7123   21.7058   -3.6798 C   0  0  0  0  0  0  0  0  0  0  0  0
   11.5063   22.3015   -2.4674 N   0  0  0  0  0  0  0  0  0  0  0  0
   10.2660   22.7405   -2.1217 C   0  0  0  0  0  0  0  0  0  0  0  0
    9.2277   22.5946   -2.9694 C   0  0  0  0  0  0  0  0  0  0  0  0
    9.4473   21.9904   -4.2039 C   0  0  0  0  0  0  0  0  0  0  0  0
    8.4989   21.7509   -5.2614 N   0  0  0  0  0  0  0  0  0  0  0  0
    8.1348   23.1197   -2.3654 N   0  0  0  0  0  0  0  0  0  0  0  0
    8.5066   23.5845   -1.1383 C   0  0  0  0  0  0  0  0  0  0  0  0
    9.8254   23.3426   -0.9960 N   0  0  0  0  0  0  0  0  0  0  0  0
  1  3  1  1  0  0  0
  1  5  2  0  0  0  0
  1  9  1  0  0  0  0
  1 18  1  0  0  0  0
  2  4  1  6  0  0  0
  2  6  2  0  0  0  0
  2 10  1  0  0  0  0
  2 17  1  0  0  0  0
  7  9  1  0  0  0  0
  8 10  1  0  0  0  0
 11  7  1  1  0  0  0
 11 13  1  0  0  0  0
 11 15  1  0  0  0  0
 12  8  1  6  0  0  0
 12 14  1  0  0  0  0
 12 16  1  0  0  0  0
 13 23  1  0  0  0  0
 14 24  1  0  0  0  0
 15 17  1  6  0  0  0
 15 19  1  0  0  0  0
 16 18  1  1  0  0  0
 16 20  1  0  0  0  0
 19 21  1  1  0  0  0
 19 23  1  0  0  0  0
 20 22  1  1  0  0  0
 20 24  1  0  0  0  0
 23 34  1  1  0  0  0
 24 44  1  6  0  0  0
 25 26  2  0  0  0  0
 25 30  1  0  0  0  0
 26 27  1  0  0  0  0
 27 28  2  0  0  0  0
 28 29  1  0  0  0  0
 28 34  1  0  0  0  0
 29 30  2  0  0  0  0
 29 32  1  0  0  0  0
 30 31  1  0  0  0  0
 32 33  2  0  0  0  0
 33 34  1  0  0  0  0
 35 36  2  0  0  0  0
 35 40  1  0  0  0  0
 36 37  1  0  0  0  0
 37 38  2  0  0  0  0
 38 39  1  0  0  0  0
 38 44  1  0  0  0  0
 39 40  2  0  0  0  0
 39 42  1  0  0  0  0
 40 41  1  0  0  0  0
 42 43  2  0  0  0  0
 43 44  1  0  0  0  0
M  CHG  2   3  -1   4  -1
M  END
>  <CHROM.1>
4.35014537,98.56020880,14.00036614,24.10609570,-2.22702676,-0.20719190,0.24608917
0.61829760

>  <Name>
ligand

>  <RI>
0

>  <Rbt.Current_Directory>
/home/itssahil/PROJECTS/Mol_Feturizer/New_Systems/rnas/4QLM

>  <Rbt.Executable>
rbdock ($Id: //depot/dev/client3/rdock/2013.1/src/exe/rbdock.cxx#4 $)

>  <Rbt.Library>
libRbt.so (2013.1, Build901 2013/11/27)

>  <Rbt.Parameter_File>
/export/apps/rDock/src/rDock_2013.1_src/data/scripts/dock_solv.prm

>  <Rbt.Receptor>
prm/blind_docking_40.prm

>  <SCORE>
28.1482

>  <SCORE.INTER>
23.8405

>  <SCORE.INTER.CONST>
1

>  <SCORE.INTER.POLAR>
0

>  <SCORE.INTER.ROT>
2

>  <SCORE.INTER.SOLV>
54.421

>  <SCORE.INTER.VDW>
-7.17999

>  <SCORE.INTER.norm>
0.54183

>  <SCORE.INTRA>
-0.0687021

>  <SCORE.INTRA.DIHEDRAL>
0.112326

>  <SCORE.INTRA.DIHEDRAL.0>
2.32994

>  <SCORE.INTRA.POLAR>
0

>  <SCORE.INTRA.POLAR.0>
0

>  <SCORE.INTRA.REPUL>
0

>  <SCORE.INTRA.REPUL.0>
0

>  <SCORE.INTRA.SOLV>
0.0815659

>  <SCORE.INTRA.SOLV.lig_0>
-117.703

>  <SCORE.INTRA.VDW>
-0.165648

>  <SCORE.INTRA.VDW.0>
-1.59997

>  <SCORE.INTRA.norm>
-0.00156141

>  <SCORE.RESTR>
4.37636

>  <SCORE.RESTR.CAVITY>
4.37636

>  <SCORE.RESTR.norm>
0.0994627

>  <SCORE.SYSTEM>
0

>  <SCORE.SYSTEM.CONST>
0

>  <SCORE.SYSTEM.DIHEDRAL>
0

>  <SCORE.SYSTEM.SOLV>
0

>  <SCORE.SYSTEM.norm>
0

>  <SCORE.heavy>
44

>  <SCORE.norm>
0.639732

>  <RMSD>
26.841

$$$$
ligand
 OpenBabel11021811513D
libRbt.so/2013.1/901 2013/11/27
 44 50  0  0  0  0  0  0  0  0999 V2000
   14.9968   23.4336    0.4737 P   0  0  2  0  0  0  0  0  0  0  0  0
   12.9366   27.0729   -2.9493 P   0  0  1  0  0  0  0  0  0  0  0  0
   16.1377   23.6703    1.4600 O   0  5  0  0  0  0  0  0  0  0  0  0
   12.7484   26.3228   -4.2454 O   0  5  0  0  0  0  0  0  0  0  0  0
   15.0066   21.9550    0.1683 O   0  0  0  0  0  0  0  0  0  0  0  0
   12.1708   28.4096   -3.0747 O   0  0  0  0  0  0  0  0  0  0  0  0
   16.0686   25.5330   -0.4669 C   0  0  0  0  0  0  0  0  0  0  0  0
   12.6862   26.5248   -0.4382 C   0  0  0  0  0  0  0  0  0  0  0  0
   15.3311   24.3378   -0.7565 O   0  0  0  0  0  0  0  0  0  0  0  0
   12.4683   26.0121   -1.7830 O   0  0  0  0  0  0  0  0  0  0  0  0
   16.3658   26.2921   -1.7557 C   0  0  1  0  0  0  0  0  0  0  0  0
   12.0641   25.4620    0.5441 C   0  0  1  0  0  0  0  0  0  0  0  0
   17.4417   25.7925   -2.2802 O   0  0  0  0  0  0  0  0  0  0  0  0
   10.8855   25.2607    0.1144 O   0  0  0  0  0  0  0  0  0  0  0  0
   15.2748   26.1560   -2.7928 C   0  0  1  0  0  0  0  0  0  0  0  0
   12.7293   24.0835    0.3588 C   0  0  1  0  0  0  0  0  0  0  0  0
   14.5309   27.2920   -2.7260 O   0  0  0  0  0  0  0  0  0  0  0  0
   13.6293   23.8428    1.3200 O   0  0  0  0  0  0  0  0  0  0  0  0
   16.0608   26.0987   -4.1490 C   0  0  1  0  0  0  0  0  0  0  0  0
   11.5971   23.0314    0.3769 C   0  0  1  0  0  0  0  0  0  0  0  0
   16.0026   27.4203   -4.8296 O   0  0  0  0  0  0  0  0  0  0  0  0
   11.5475   22.3368    1.7036 O   0  0  0  0  0  0  0  0  0  0  0  0
   17.2808   25.7789   -3.8574 C   0  0  2  0  0  0  0  0  0  0  0  0
   10.5133   23.7066    0.2022 C   0  0  2  0  0  0  0  0  0  0  0  0
   18.6152   20.5912   -3.4995 N   0  0  0  0  0  0  0  0  0  0  0  0
   18.3925   21.4288   -2.4479 C   0  0  0  0  0  0  0  0  0  0  0  0
   18.0537   22.7431   -2.6461 N   0  0  0  0  0  0  0  0  0  0  0  0
   17.9421   23.2140   -3.9252 C   0  0  0  0  0  0  0  0  0  0  0  0
   18.1651   22.4041   -4.9696 C   0  0  0  0  0  0  0  0  0  0  0  0
   18.4996   21.0674   -4.7594 C   0  0  0  0  0  0  0  0  0  0  0  0
   18.7579   20.1161   -5.7661 N   0  0  0  0  0  0  0  0  0  0  0  0
   17.9820   23.1231   -6.0973 N   0  0  0  0  0  0  0  0  0  0  0  0
   17.6490   24.3945   -5.7340 C   0  0  0  0  0  0  0  0  0  0  0  0
   17.6068   24.4483   -4.3963 N   0  0  0  0  0  0  0  0  0  0  0  0
   10.6655   21.5596   -4.5399 N   0  0  0  0  0  0  0  0  0  0  0  0
   11.7059   21.7047   -3.6779 C   0  0  0  0  0  0  0  0  0  0  0  0
   11.4996   22.3004   -2.4655 N   0  0  0  0  0  0  0  0  0  0  0  0
   10.2595   22.7406   -2.1205 C   0  0  0  0  0  0  0  0  0  0  0  0
    9.2216   22.5959   -2.9690 C   0  0  0  0  0  0  0  0  0  0  0  0
    9.4414   21.9916   -4.2034 C   0  0  0  0  0  0  0  0  0  0  0  0
    8.4935   21.7532   -5.2616 N   0  0  0  0  0  0  0  0  0  0  0  0
    8.1288   23.1221   -2.3656 N   0  0  0  0  0  0  0  0  0  0  0  0
    8.5003   23.5863   -1.1383 C   0  0  0  0  0  0  0  0  0  0  0  0
    9.8188   23.3431   -0.9951 N   0  0  0  0  0  0  0  0  0  0  0  0
  1  3  1  1  0  0  0
  1  5  2  0  0  0  0
  1  9  1  0  0  0  0
  1 18  1  0  0  0  0
  2  4  1  6  0  0  0
  2  6  2  0  0  0  0
  2 10  1  0  0  0  0
  2 17  1  0  0  0  0
  7  9  1  0  0  0  0
  8 10  1  0  0  0  0
 11  7  1  1  0  0  0
 11 13  1  0  0  0  0
 11 15  1  0  0  0  0
 12  8  1  6  0  0  0
 12 14  1  0  0  0  0
 12 16  1  0  0  0  0
 13 23  1  0  0  0  0
 14 24  1  0  0  0  0
 15 17  1  6  0  0  0
 15 19  1  0  0  0  0
 16 18  1  1  0  0  0
 16 20  1  0  0  0  0
 19 21  1  1  0  0  0
 19 23  1  0  0  0  0
 20 22  1  1  0  0  0
 20 24  1  0  0  0  0
 23 34  1  1  0  0  0
 24 44  1  6  0  0  0
 25 26  2  0  0  0  0
 25 30  1  0  0  0  0
 26 27  1  0  0  0  0
 27 28  2  0  0  0  0
 28 29  1  0  0  0  0
 28 34  1  0  0  0  0
 29 30  2  0  0  0  0
 29 32  1  0  0  0  0
 30 31  1  0  0  0  0
 32 33  2  0  0  0  0
 33 34  1  0  0  0  0
 35 36  2  0  0  0  0
 35 40  1  0  0  0  0
 36 37  1  0  0  0  0
 37 38  2  0  0  0  0
 38 39  1  0  0  0  0
 38 44  1  0  0  0  0
 39 40  2  0  0  0  0
 39 42  1  0  0  0  0
 40 41  1  0  0  0  0
 42 43  2  0  0  0  0
 43 44  1  0  0  0  0
M  CHG  2   3  -1   4  -1
M  END
>  <CHROM.1>
4.15062000,98.54678688,13.99608588,24.10171291,-2.22309506,-0.20812211,0.24428489
0.61985625

>  <Name>
ligand

>  <RI>
0

>  <Rbt.Current_Directory>
/home/itssahil/PROJECTS/Mol_Feturizer/New_Systems/rnas/4QLM

>  <Rbt.Executable>
rbdock ($Id: //depot/dev/client3/rdock/2013.1/src/exe/rbdock.cxx#4 $)

>  <Rbt.Library>
libRbt.so (2013.1, Build901 2013/11/27)

>  <Rbt.Parameter_File>
/export/apps/rDock/src/rDock_2013.1_src/data/scripts/dock_solv.prm

>  <Rbt.Receptor>
prm/blind_docking_40.prm

>  <SCORE>
28.0834

>  <SCORE.INTER>
23.7462

>  <SCORE.INTER.CONST>
1

>  <SCORE.INTER.POLAR>
0

>  <SCORE.INTER.ROT>
2

>  <SCORE.INTER.SOLV>
54.4782

>  <SCORE.INTER.VDW>
-7.26196

>  <SCORE.INTER.norm>
0.539685

>  <SCORE.INTRA>
-0.0596129

>  <SCORE.INTRA.DIHEDRAL>
0.111288

>  <SCORE.INTRA.DIHEDRAL.0>
2.32994

>  <SCORE.INTRA.POLAR>
0

>  <SCORE.INTRA.POLAR.0>
0

>  <SCORE.INTRA.REPUL>
0

>  <SCORE.INTRA.REPUL.0>
0

>  <SCORE.INTRA.SOLV>
0.0817731

>  <SCORE.INTRA.SOLV.lig_0>
-117.703

>  <SCORE.INTRA.VDW>
-0.156144

>  <SCORE.INTRA.VDW.0>
-1.59997

>  <SCORE.INTRA.norm>
-0.00135484

>  <SCORE.RESTR>
4.39681

>  <SCORE.RESTR.CAVITY>
4.39681

>  <SCORE.RESTR.norm>
0.0999276

>  <SCORE.SYSTEM>
0

>  <SCORE.SYSTEM.CONST>
0

>  <SCORE.SYSTEM.DIHEDRAL>
0

>  <SCORE.SYSTEM.SOLV>
0

>  <SCORE.SYSTEM.norm>
0

>  <SCORE.heavy>
44

>  <SCORE.norm>
0.638258

>  <RMSD>
26.842

$$$$
ligand
 OpenBabel11021811513D
libRbt.so/2013.1/901 2013/11/27
 44 50  0  0  0  0  0  0  0  0999 V2000
   13.4413   27.1590   -2.8251 P   0  0  2  0  0  0  0  0  0  0  0  0
   15.3156   23.4581    0.6384 P   0  0  1  0  0  0  0  0  0  0  0  0
   12.5787   28.3678   -2.4713 O   0  5  0  0  0  0  0  0  0  0  0  0
   15.1126   22.1356   -0.0601 O   0  5  0  0  0  0  0  0  0  0  0  0
   13.1325   26.8310   -4.2661 O   0  0  0  0  0  0  0  0  0  0  0  0
   16.2438   23.2031    1.8477 O   0  0  0  0  0  0  0  0  0  0  0  0
   12.5508   26.5096   -0.5389 C   0  0  0  0  0  0  0  0  0  0  0  0
   15.9821   25.8481   -0.0769 C   0  0  0  0  0  0  0  0  0  0  0  0
   13.0123   26.0462   -1.8151 O   0  0  0  0  0  0  0  0  0  0  0  0
   15.8358   24.4770   -0.5431 O   0  0  0  0  0  0  0  0  0  0  0  0
   12.1224   25.3285    0.3254 C   0  0  1  0  0  0  0  0  0  0  0  0
   16.6130   26.6549   -1.2739 C   0  0  1  0  0  0  0  0  0  0  0  0
   10.8961   25.0313    0.0247 O   0  0  0  0  0  0  0  0  0  0  0  0
   17.6312   25.9830   -1.6286 O   0  0  0  0  0  0  0  0  0  0  0  0
   12.9425   24.0827    0.0812 C   0  0  1  0  0  0  0  0  0  0  0  0
   15.7118   26.5841   -2.5228 C   0  0  1  0  0  0  0  0  0  0  0  0
   13.8566   24.0160    1.0853 O   0  0  0  0  0  0  0  0  0  0  0  0
   15.0003   27.7076   -2.6755 O   0  0  0  0  0  0  0  0  0  0  0  0
   11.8974   22.9211    0.2180 C   0  0  1  0  0  0  0  0  0  0  0  0
   16.6403   26.3414   -3.7345 C   0  0  1  0  0  0  0  0  0  0  0  0
   12.0266   22.2718    1.5503 O   0  0  0  0  0  0  0  0  0  0  0  0
   16.8477   27.6130   -4.4996 O   0  0  0  0  0  0  0  0  0  0  0  0
   10.7275   23.4557    0.0724 C   0  0  2  0  0  0  0  0  0  0  0  0
   17.7596   25.9574   -3.2238 C   0  0  2  0  0  0  0  0  0  0  0  0
   10.6869   21.6291   -4.9757 N   0  0  0  0  0  0  0  0  0  0  0  0
   11.7995   21.9264   -4.2471 C   0  0  0  0  0  0  0  0  0  0  0  0
   11.7026   22.3878   -2.9590 N   0  0  0  0  0  0  0  0  0  0  0  0
   10.4634   22.5520   -2.4044 C   0  0  0  0  0  0  0  0  0  0  0  0
    9.3597   22.2706   -3.1109 C   0  0  0  0  0  0  0  0  0  0  0  0
    9.4674   21.7933   -4.4160 C   0  0  0  0  0  0  0  0  0  0  0  0
    8.3906   21.4615   -5.2618 N   0  0  0  0  0  0  0  0  0  0  0  0
    8.2908   22.5173   -2.3243 N   0  0  0  0  0  0  0  0  0  0  0  0
    8.7506   22.9633   -1.1206 C   0  0  0  0  0  0  0  0  0  0  0  0
   10.0894   22.9690   -1.1618 N   0  0  0  0  0  0  0  0  0  0  0  0
   16.7922   21.7840   -6.1847 N   0  0  0  0  0  0  0  0  0  0  0  0
   16.0715   22.9350   -6.1393 C   0  0  0  0  0  0  0  0  0  0  0  0
   16.4569   23.9397   -5.2972 N   0  0  0  0  0  0  0  0  0  0  0  0
   17.5583   23.7916   -4.5128 C   0  0  0  0  0  0  0  0  0  0  0  0
   18.2810   22.6540   -4.5558 C   0  0  0  0  0  0  0  0  0  0  0  0
   17.8791   21.6342   -5.4136 C   0  0  0  0  0  0  0  0  0  0  0  0
   18.4830   20.3407   -5.6066 N   0  0  0  0  0  0  0  0  0  0  0  0
   19.3032   22.7901   -3.6775 N   0  0  0  0  0  0  0  0  0  0  0  0
   19.2079   24.0209   -3.0980 C   0  0  0  0  0  0  0  0  0  0  0  0
   18.1276   24.6334   -3.6233 N   0  0  0  0  0  0  0  0  0  0  0  0
  1  3  1  1  0  0  0
  1  5  2  0  0  0  0
  1  9  1  0  0  0  0
  1 18  1  0  0  0  0
  2  4  1  6  0  0  0
  2  6  2  0  0  0  0
  2 10  1  0  0  0  0
  2 17  1  0  0  0  0
  7  9  1  0  0  0  0
  8 10  1  0  0  0  0
 11  7  1  6  0  0  0
 11 13  1  0  0  0  0
 11 15  1  0  0  0  0
 12  8  1  1  0  0  0
 12 14  1  0  0  0  0
 12 16  1  0  0  0  0
 13 23  1  0  0  0  0
 14 24  1  0  0  0  0
 15 17  1  1  0  0  0
 15 19  1  0  0  0  0
 16 18  1  6  0  0  0
 16 20  1  0  0  0  0
 19 21  1  1  0  0  0
 19 23  1  0  0  0  0
 20 22  1  1  0  0  0
 20 24  1  0  0  0  0
 23 34  1  6  0  0  0
 24 44  1  6  0  0  0
 25 26  2  0  0  0  0
 25 30  1  0  0  0  0
 26 27  1  0  0  0  0
 27 28  2  0  0  0  0
 28 29  1  0  0  0  0
 28 34  1  0  0  0  0
 29 30  2  0  0  0  0
 29 32  1  0  0  0  0
 30 31  1  0  0  0  0
 32 33  2  0  0  0  0
 33 34  1  0  0  0  0
 35 36  2  0  0  0  0
 35 40  1  0  0  0  0
 36 37  1  0  0  0  0
 37 38  2  0  0  0  0
 38 39  1  0  0  0  0
 38 44  1  0  0  0  0
 39 40  2  0  0  0  0
 39 42  1  0  0  0  0
 40 41  1  0  0  0  0
 42 43  2  0  0  0  0
 43 44  1  0  0  0  0
M  CHG  2   3  -1   4  -1
M  END
>  <CHROM.1>
88.77001322,126.48338303,14.14187975,24.20904212,-2.26892384,-3.03204878
-0.28487659,-2.19500878

>  <Name>
ligand

>  <RI>
0

>  <Rbt.Current_Directory>
/home/itssahil/PROJECTS/Mol_Feturizer/New_Systems/rnas/4QLM

>  <Rbt.Executable>
rbdock ($Id: //depot/dev/client3/rdock/2013.1/src/exe/rbdock.cxx#4 $)

>  <Rbt.Library>
libRbt.so (2013.1, Build901 2013/11/27)

>  <Rbt.Parameter_File>
/export/apps/rDock/src/rDock_2013.1_src/data/scripts/dock_solv.prm

>  <Rbt.Receptor>
prm/blind_docking_40.prm

>  <SCORE>
24.1001

>  <SCORE.INTER>
18.9475

>  <SCORE.INTER.CONST>
1

>  <SCORE.INTER.POLAR>
0

>  <SCORE.INTER.ROT>
2

>  <SCORE.INTER.SOLV>
52.2417

>  <SCORE.INTER.VDW>
-9.71555

>  <SCORE.INTER.norm>
0.430626

>  <SCORE.INTRA>
0.0535098

>  <SCORE.INTRA.DIHEDRAL>
-0.0380877

>  <SCORE.INTRA.DIHEDRAL.0>
2.32994

>  <SCORE.INTRA.POLAR>
0

>  <SCORE.INTRA.POLAR.0>
0

>  <SCORE.INTRA.REPUL>
0

>  <SCORE.INTRA.REPUL.0>
0

>  <SCORE.INTRA.SOLV>
0.0486816

>  <SCORE.INTRA.SOLV.lig_0>
-117.703

>  <SCORE.INTRA.VDW>
0.0482128

>  <SCORE.INTRA.VDW.0>
-1.59997

>  <SCORE.INTRA.norm>
0.00121613

>  <SCORE.RESTR>
5.0991

>  <SCORE.RESTR.CAVITY>
5.0991

>  <SCORE.RESTR.norm>
0.115889

>  <SCORE.SYSTEM>
0

>  <SCORE.SYSTEM.CONST>
0

>  <SCORE.SYSTEM.DIHEDRAL>
0

>  <SCORE.SYSTEM.SOLV>
0

>  <SCORE.SYSTEM.norm>
0

>  <SCORE.heavy>
44

>  <SCORE.norm>
0.54773

>  <RMSD>
26.842

$$$$
ligand
 OpenBabel11021811513D
libRbt.so/2013.1/901 2013/11/27
 44 50  0  0  0  0  0  0  0  0999 V2000
   15.0265   23.3957    0.5040 P   0  0  2  0  0  0  0  0  0  0  0  0
   13.0466   27.1789   -2.8085 P   0  0  1  0  0  0  0  0  0  0  0  0
   16.1766   23.5762    1.4915 O   0  5  0  0  0  0  0  0  0  0  0  0
   12.8348   26.4699   -4.1240 O   0  5  0  0  0  0  0  0  0  0  0  0
   14.9979   21.9263    0.1579 O   0  0  0  0  0  0  0  0  0  0  0  0
   12.3144   28.5375   -2.8938 O   0  0  0  0  0  0  0  0  0  0  0  0
   16.1476   25.4927   -0.3831 C   0  0  0  0  0  0  0  0  0  0  0  0
   12.7915   26.5681   -0.3125 C   0  0  0  0  0  0  0  0  0  0  0  0
   15.3791   24.3248   -0.7022 O   0  0  0  0  0  0  0  0  0  0  0  0
   12.5559   26.0984   -1.6699 O   0  0  0  0  0  0  0  0  0  0  0  0
   16.4593   26.2793   -1.6518 C   0  0  1  0  0  0  0  0  0  0  0  0
   12.1463   25.4946    0.6428 C   0  0  1  0  0  0  0  0  0  0  0  0
   17.5203   25.7675   -2.1944 O   0  0  0  0  0  0  0  0  0  0  0  0
   10.9615   25.3350    0.2129 O   0  0  0  0  0  0  0  0  0  0  0  0
   15.3614   26.1995   -2.6875 C   0  0  1  0  0  0  0  0  0  0  0  0
   12.7758   24.1054    0.4168 C   0  0  1  0  0  0  0  0  0  0  0  0
   14.6467   27.3515   -2.5862 O   0  0  0  0  0  0  0  0  0  0  0  0
   13.6729   23.8156    1.3671 O   0  0  0  0  0  0  0  0  0  0  0  0
   16.1408   26.1599   -4.0481 C   0  0  1  0  0  0  0  0  0  0  0  0
   11.6174   23.0820    0.4108 C   0  0  1  0  0  0  0  0  0  0  0  0
   16.1136   27.5009   -4.6918 O   0  0  0  0  0  0  0  0  0  0  0  0
   11.5551   22.3525    1.7181 O   0  0  0  0  0  0  0  0  0  0  0  0
   17.3534   25.8016   -3.7706 C   0  0  2  0  0  0  0  0  0  0  0  0
   10.5504   23.7889    0.2595 C   0  0  2  0  0  0  0  0  0  0  0  0
   18.6148   20.5874   -3.5636 N   0  0  0  0  0  0  0  0  0  0  0  0
   18.4338   21.4046   -2.4881 C   0  0  0  0  0  0  0  0  0  0  0  0
   18.1106   22.7280   -2.6481 N   0  0  0  0  0  0  0  0  0  0  0  0
   17.9720   23.2290   -3.9130 C   0  0  0  0  0  0  0  0  0  0  0  0
   18.1539   22.4394   -4.9806 C   0  0  0  0  0  0  0  0  0  0  0  0
   18.4729   21.0935   -4.8091 C   0  0  0  0  0  0  0  0  0  0  0  0
   18.6889   20.1612   -5.8431 N   0  0  0  0  0  0  0  0  0  0  0  0
   17.9520   23.1863   -6.0868 N   0  0  0  0  0  0  0  0  0  0  0  0
   17.6490   24.4541   -5.6866 C   0  0  0  0  0  0  0  0  0  0  0  0
   17.6437   24.4786   -4.3474 N   0  0  0  0  0  0  0  0  0  0  0  0
    8.8363   20.1694   -3.0694 N   0  0  0  0  0  0  0  0  0  0  0  0
    9.5609   19.9586   -1.9394 C   0  0  0  0  0  0  0  0  0  0  0  0
    9.9413   21.0242   -1.1731 N   0  0  0  0  0  0  0  0  0  0  0  0
    9.5923   22.2881   -1.5356 C   0  0  0  0  0  0  0  0  0  0  0  0
    8.8695   22.5044   -2.6531 C   0  0  0  0  0  0  0  0  0  0  0  0
    8.4897   21.4137   -3.4298 C   0  0  0  0  0  0  0  0  0  0  0  0
    7.7400   21.4121   -4.6599 N   0  0  0  0  0  0  0  0  0  0  0  0
    8.6778   23.8412   -2.7591 N   0  0  0  0  0  0  0  0  0  0  0  0
    9.2827   24.4452   -1.6965 C   0  0  0  0  0  0  0  0  0  0  0  0
    9.8426   23.4762   -0.9444 N   0  0  0  0  0  0  0  0  0  0  0  0
  1  3  1  1  0  0  0
  1  5  2  0  0  0  0
  1  9  1  0  0  0  0
  1 18  1  0  0  0  0
  2  4  1  6  0  0  0
  2  6  2  0  0  0  0
  2 10  1  0  0  0  0
  2 17  1  0  0  0  0
  7  9  1  0  0  0  0
  8 10  1  0  0  0  0
 11  7  1  1  0  0  0
 11 13  1  0  0  0  0
 11 15  1  0  0  0  0
 12  8  1  6  0  0  0
 12 14  1  0  0  0  0
 12 16  1  0  0  0  0
 13 23  1  0  0  0  0
 14 24  1  0  0  0  0
 15 17  1  6  0  0  0
 15 19  1  0  0  0  0
 16 18  1  1  0  0  0
 16 20  1  0  0  0  0
 19 21  1  1  0  0  0
 19 23  1  0  0  0  0
 20 22  1  1  0  0  0
 20 24  1  0  0  0  0
 23 34  1  1  0  0  0
 24 44  1  6  0  0  0
 25 26  2  0  0  0  0
 25 30  1  0  0  0  0
 26 27  1  0  0  0  0
 27 28  2  0  0  0  0
 28 29  1  0  0  0  0
 28 34  1  0  0  0  0
 29 30  2  0  0  0  0
 29 32  1  0  0  0  0
 30 31  1  0  0  0  0
 32 33  2  0  0  0  0
 33 34  1  0  0  0  0
 35 36  2  0  0  0  0
 35 40  1  0  0  0  0
 36 37  1  0  0  0  0
 37 38  2  0  0  0  0
 38 39  1  0  0  0  0
 38 44  1  0  0  0  0
 39 40  2  0  0  0  0
 39 42  1  0  0  0  0
 40 41  1  0  0  0  0
 42 43  2  0  0  0  0
 43 44  1  0  0  0  0
M  CHG  2   3  -1   4  -1
M  END
>  <CHROM.1>
2.67904208,160.89920564,13.89896195,24.04173186,-2.05629876,-0.02387128,-0.30751941
-2.90175559

>  <Name>
ligand

>  <RI>
0

>  <Rbt.Current_Directory>
/home/itssahil/PROJECTS/Mol_Feturizer/New_Systems/rnas/4QLM

>  <Rbt.Executable>
rbdock ($Id: //depot/dev/client3/rdock/2013.1/src/exe/rbdock.cxx#4 $)

>  <Rbt.Library>
libRbt.so (2013.1, Build901 2013/11/27)

>  <Rbt.Parameter_File>
/export/apps/rDock/src/rDock_2013.1_src/data/scripts/dock_solv.prm

>  <Rbt.Receptor>
prm/blind_docking_40.prm

>  <SCORE>
24.2649

>  <SCORE.INTER>
19.6033

>  <SCORE.INTER.CONST>
1

>  <SCORE.INTER.POLAR>
0

>  <SCORE.INTER.ROT>
2

>  <SCORE.INTER.SOLV>
48.0241

>  <SCORE.INTER.VDW>
-7.87251

>  <SCORE.INTER.norm>
0.445529

>  <SCORE.INTRA>
0.395485

>  <SCORE.INTRA.DIHEDRAL>
0.0844749

>  <SCORE.INTRA.DIHEDRAL.0>
2.32994

>  <SCORE.INTRA.POLAR>
0

>  <SCORE.INTRA.POLAR.0>
0

>  <SCORE.INTRA.REPUL>
0

>  <SCORE.INTRA.REPUL.0>
0

>  <SCORE.INTRA.SOLV>
0.125377

>  <SCORE.INTRA.SOLV.lig_0>
-117.703

>  <SCORE.INTRA.VDW>
0.290559

>  <SCORE.INTRA.VDW.0>
-1.59997

>  <SCORE.INTRA.norm>
0.00898829

>  <SCORE.RESTR>
4.26611

>  <SCORE.RESTR.CAVITY>
4.26611

>  <SCORE.RESTR.norm>
0.0969571

>  <SCORE.SYSTEM>
0

>  <SCORE.SYSTEM.CONST>
0

>  <SCORE.SYSTEM.DIHEDRAL>
0

>  <SCORE.SYSTEM.SOLV>
0

>  <SCORE.SYSTEM.norm>
0

>  <SCORE.heavy>
44

>  <SCORE.norm>
0.551474

>  <RMSD>
26.846

$$$$
ligand
 OpenBabel11021811513D
libRbt.so/2013.1/901 2013/11/27
 44 50  0  0  0  0  0  0  0  0999 V2000
   14.9940   23.4316    0.4893 P   0  0  2  0  0  0  0  0  0  0  0  0
   12.9340   27.0689   -2.9358 P   0  0  1  0  0  0  0  0  0  0  0  0
   16.1334   23.6695    1.4771 O   0  5  0  0  0  0  0  0  0  0  0  0
   12.7484   26.3188   -4.2323 O   0  5  0  0  0  0  0  0  0  0  0  0
   15.0061   21.9531    0.1837 O   0  0  0  0  0  0  0  0  0  0  0  0
   12.1667   28.4047   -3.0621 O   0  0  0  0  0  0  0  0  0  0  0  0
   16.0645   25.5325   -0.4496 C   0  0  0  0  0  0  0  0  0  0  0  0
   12.6809   26.5202   -0.4252 C   0  0  0  0  0  0  0  0  0  0  0  0
   15.3289   24.3364   -0.7403 O   0  0  0  0  0  0  0  0  0  0  0  0
   12.4655   26.0074   -1.7703 O   0  0  0  0  0  0  0  0  0  0  0  0
   16.3625   26.2921   -1.7379 C   0  0  1  0  0  0  0  0  0  0  0  0
   12.0588   25.4565    0.5561 C   0  0  1  0  0  0  0  0  0  0  0  0
   17.4398   25.7939   -2.2610 O   0  0  0  0  0  0  0  0  0  0  0  0
   10.8811   25.2539    0.1249 O   0  0  0  0  0  0  0  0  0  0  0  0
   15.2731   26.1548   -2.7765 C   0  0  1  0  0  0  0  0  0  0  0  0
   12.7259   24.0788    0.3715 C   0  0  1  0  0  0  0  0  0  0  0  0
   14.5277   27.2899   -2.7104 O   0  0  0  0  0  0  0  0  0  0  0  0
   13.6249   23.8390    1.3338 O   0  0  0  0  0  0  0  0  0  0  0  0
   16.0609   26.0987   -4.1316 C   0  0  1  0  0  0  0  0  0  0  0  0
   11.5950   23.0253    0.3879 C   0  0  1  0  0  0  0  0  0  0  0  0
   16.0020   27.4204   -4.8121 O   0  0  0  0  0  0  0  0  0  0  0  0
   11.5445   22.3305    1.7145 O   0  0  0  0  0  0  0  0  0  0  0  0
   17.2809   25.7803   -3.8384 C   0  0  2  0  0  0  0  0  0  0  0  0
   10.5106   23.6992    0.2120 C   0  0  2  0  0  0  0  0  0  0  0  0
   18.6105   20.5914   -3.4793 N   0  0  0  0  0  0  0  0  0  0  0  0
   18.3823   21.4279   -2.4279 C   0  0  0  0  0  0  0  0  0  0  0  0
   18.0454   22.7427   -2.6265 N   0  0  0  0  0  0  0  0  0  0  0  0
   17.9412   23.2151   -3.9056 C   0  0  0  0  0  0  0  0  0  0  0  0
   18.1697   22.4063   -4.9497 C   0  0  0  0  0  0  0  0  0  0  0  0
   18.5023   21.0693   -4.7393 C   0  0  0  0  0  0  0  0  0  0  0  0
   18.7658   20.1191   -5.7456 N   0  0  0  0  0  0  0  0  0  0  0  0
   17.9934   23.1269   -6.0775 N   0  0  0  0  0  0  0  0  0  0  0  0
   17.6590   24.3980   -5.7146 C   0  0  0  0  0  0  0  0  0  0  0  0
   17.6093   24.4502   -4.3770 N   0  0  0  0  0  0  0  0  0  0  0  0
   10.6737   21.5616   -4.5340 N   0  0  0  0  0  0  0  0  0  0  0  0
   11.7131   21.7094   -3.6713 C   0  0  0  0  0  0  0  0  0  0  0  0
   11.5038   22.3020   -2.4579 N   0  0  0  0  0  0  0  0  0  0  0  0
   10.2618   22.7365   -2.1127 C   0  0  0  0  0  0  0  0  0  0  0  0
    9.2248   22.5891   -2.9619 C   0  0  0  0  0  0  0  0  0  0  0  0
    9.4477   21.9879   -4.1973 C   0  0  0  0  0  0  0  0  0  0  0  0
    8.5012   21.7476   -5.2563 N   0  0  0  0  0  0  0  0  0  0  0  0
    8.1297   23.1096   -2.3580 N   0  0  0  0  0  0  0  0  0  0  0  0
    8.4987   23.5731   -1.1296 C   0  0  0  0  0  0  0  0  0  0  0  0
    9.8181   23.3350   -0.9863 N   0  0  0  0  0  0  0  0  0  0  0  0
  1  3  1  1  0  0  0
  1  5  2  0  0  0  0
  1  9  1  0  0  0  0
  1 18  1  0  0  0  0
  2  4  1  6  0  0  0
  2  6  2  0  0  0  0
  2 10  1  0  0  0  0
  2 17  1  0  0  0  0
  7  9  1  0  0  0  0
  8 10  1  0  0  0  0
 11  7  1  1  0  0  0
 11 13  1  0  0  0  0
 11 15  1  0  0  0  0
 12  8  1  6  0  0  0
 12 14  1  0  0  0  0
 12 16  1  0  0  0  0
 13 23  1  0  0  0  0
 14 24  1  0  0  0  0
 15 17  1  6  0  0  0
 15 19  1  0  0  0  0
 16 18  1  1  0  0  0
 16 20  1  0  0  0  0
 19 21  1  1  0  0  0
 19 23  1  0  0  0  0
 20 22  1  1  0  0  0
 20 24  1  0  0  0  0
 23 34  1  1  0  0  0
 24 44  1  6  0  0  0
 25 26  2  0  0  0  0
 25 30  1  0  0  0  0
 26 27  1  0  0  0  0
 27 28  2  0  0  0  0
 28 29  1  0  0  0  0
 28 34  1  0  0  0  0
 29 30  2  0  0  0  0
 29 32  1  0  0  0  0
 30 31  1  0  0  0  0
 32 33  2  0  0  0  0
 33 34  1  0  0  0  0
 35 36  2  0  0  0  0
 35 40  1  0  0  0  0
 36 37  1  0  0  0  0
 37 38  2  0  0  0  0
 38 39  1  0  0  0  0
 38 44  1  0  0  0  0
 39 40  2  0  0  0  0
 39 42  1  0  0  0  0
 40 41  1  0  0  0  0
 42 43  2  0  0  0  0
 43 44  1  0  0  0  0
M  CHG  2   3  -1   4  -1
M  END
>  <CHROM.1>
4.42432374,98.34838421,13.99554327,24.09937661,-2.20895726,-0.20710671,0.24362786
0.62169682

>  <Name>
ligand

>  <RI>
0

>  <Rbt.Current_Directory>
/home/itssahil/PROJECTS/Mol_Feturizer/New_Systems/rnas/4QLM

>  <Rbt.Executable>
rbdock ($Id: //depot/dev/client3/rdock/2013.1/src/exe/rbdock.cxx#4 $)

>  <Rbt.Library>
libRbt.so (2013.1, Build901 2013/11/27)

>  <Rbt.Parameter_File>
/export/apps/rDock/src/rDock_2013.1_src/data/scripts/dock_solv.prm

>  <Rbt.Receptor>
prm/blind_docking_40.prm

>  <SCORE>
27.9141

>  <SCORE.INTER>
23.5526

>  <SCORE.INTER.CONST>
1

>  <SCORE.INTER.POLAR>
0

>  <SCORE.INTER.ROT>
2

>  <SCORE.INTER.SOLV>
54.4511

>  <SCORE.INTER.VDW>
-7.38202

>  <SCORE.INTER.norm>
0.535285

>  <SCORE.INTRA>
-0.0783942

>  <SCORE.INTRA.DIHEDRAL>
0.112763

>  <SCORE.INTRA.DIHEDRAL.0>
2.32994

>  <SCORE.INTRA.POLAR>
0

>  <SCORE.INTRA.POLAR.0>
0

>  <SCORE.INTRA.REPUL>
0

>  <SCORE.INTRA.REPUL.0>
0

>  <SCORE.INTRA.SOLV>
0.081245

>  <SCORE.INTRA.SOLV.lig_0>
-117.703

>  <SCORE.INTRA.VDW>
-0.175398

>  <SCORE.INTRA.VDW.0>
-1.59997

>  <SCORE.INTRA.norm>
-0.00178169

>  <SCORE.RESTR>
4.43994

>  <SCORE.RESTR.CAVITY>
4.43994

>  <SCORE.RESTR.norm>
0.100908

>  <SCORE.SYSTEM>
0

>  <SCORE.SYSTEM.CONST>
0

>  <SCORE.SYSTEM.DIHEDRAL>
0

>  <SCORE.SYSTEM.SOLV>
0

>  <SCORE.SYSTEM.norm>
0

>  <SCORE.heavy>
44

>  <SCORE.norm>
0.634411

>  <RMSD>
26.849

$$$$
ligand
 OpenBabel11021811513D
libRbt.so/2013.1/901 2013/11/27
 44 50  0  0  0  0  0  0  0  0999 V2000
   13.0126   27.3267   -2.3266 P   0  0  2  0  0  0  0  0  0  0  0  0
   15.2183   23.0730    0.1727 P   0  0  1  0  0  0  0  0  0  0  0  0
   12.0950   28.3681   -1.6910 O   0  5  0  0  0  0  0  0  0  0  0  0
   15.0670   21.9299   -0.8013 O   0  5  0  0  0  0  0  0  0  0  0  0
   12.6721   27.3100   -3.7974 O   0  0  0  0  0  0  0  0  0  0  0  0
   16.2020   22.6141    1.2730 O   0  0  0  0  0  0  0  0  0  0  0  0
   12.2425   26.1271   -0.2268 C   0  0  0  0  0  0  0  0  0  0  0  0
   15.7204   25.6001   -0.0001 C   0  0  0  0  0  0  0  0  0  0  0  0
   12.6844   25.9911   -1.5842 O   0  0  0  0  0  0  0  0  0  0  0  0
   15.6368   24.3614   -0.7599 O   0  0  0  0  0  0  0  0  0  0  0  0
   11.9137   24.7578    0.3583 C   0  0  1  0  0  0  0  0  0  0  0  0
   16.2611   26.6926   -0.9979 C   0  0  1  0  0  0  0  0  0  0  0  0
   10.6967   24.4575    0.0250 O   0  0  0  0  0  0  0  0  0  0  0  0
   17.3030   26.1837   -1.5169 O   0  0  0  0  0  0  0  0  0  0  0  0
   12.7949   23.6531   -0.1780 C   0  0  1  0  0  0  0  0  0  0  0  0
   15.3217   26.8453   -2.2109 C   0  0  1  0  0  0  0  0  0  0  0  0
   13.7464   23.4223    0.7652 O   0  0  0  0  0  0  0  0  0  0  0  0
   14.5417   27.9266   -2.0911 O   0  0  0  0  0  0  0  0  0  0  0  0
   11.8239   22.4259   -0.2838 C   0  0  1  0  0  0  0  0  0  0  0  0
   16.2190   26.9396   -3.4660 C   0  0  1  0  0  0  0  0  0  0  0  0
   12.0373   21.5049    0.8649 O   0  0  0  0  0  0  0  0  0  0  0  0
   16.3256   28.3606   -3.9292 O   0  0  0  0  0  0  0  0  0  0  0  0
   10.6207   22.9035   -0.2798 C   0  0  2  0  0  0  0  0  0  0  0  0
   17.3759   26.5236   -3.0792 C   0  0  2  0  0  0  0  0  0  0  0  0
   10.5212   21.7730   -5.5270 N   0  0  0  0  0  0  0  0  0  0  0  0
   11.6378   21.8327   -4.7480 C   0  0  0  0  0  0  0  0  0  0  0  0
   11.5561   22.1298   -3.4114 N   0  0  0  0  0  0  0  0  0  0  0  0
   10.3287   22.3716   -2.8591 C   0  0  0  0  0  0  0  0  0  0  0  0
    9.2222   22.3236   -3.6140 C   0  0  0  0  0  0  0  0  0  0  0  0
    9.3131   22.0117   -4.9694 C   0  0  0  0  0  0  0  0  0  0  0  0
    8.2316   21.9290   -5.8686 N   0  0  0  0  0  0  0  0  0  0  0  0
    8.1663   22.5951   -2.8181 N   0  0  0  0  0  0  0  0  0  0  0  0
    8.6378   22.8194   -1.5585 C   0  0  0  0  0  0  0  0  0  0  0  0
    9.9682   22.6652   -1.5778 N   0  0  0  0  0  0  0  0  0  0  0  0
   18.2739   21.3945   -2.9948 N   0  0  0  0  0  0  0  0  0  0  0  0
   17.8280   22.1602   -1.9647 C   0  0  0  0  0  0  0  0  0  0  0  0
   17.6496   23.5024   -2.1494 N   0  0  0  0  0  0  0  0  0  0  0  0
   17.9111   24.0683   -3.3585 C   0  0  0  0  0  0  0  0  0  0  0  0
   18.3495   23.3139   -4.3865 C   0  0  0  0  0  0  0  0  0  0  0  0
   18.5322   21.9484   -4.1885 C   0  0  0  0  0  0  0  0  0  0  0  0
   19.0051   20.9657   -5.1297 N   0  0  0  0  0  0  0  0  0  0  0  0
   18.5247   24.1377   -5.4476 N   0  0  0  0  0  0  0  0  0  0  0  0
   18.1859   25.4027   -5.0670 C   0  0  0  0  0  0  0  0  0  0  0  0
   17.8051   25.3487   -3.7746 N   0  0  0  0  0  0  0  0  0  0  0  0
  1  3  1  1  0  0  0
  1  5  2  0  0  0  0
  1  9  1  0  0  0  0
  1 18  1  0  0  0  0
  2  4  1  6  0  0  0
  2  6  2  0  0  0  0
  2 10  1  0  0  0  0
  2 17  1  0  0  0  0
  7  9  1  0  0  0  0
  8 10  1  0  0  0  0
 11  7  1  6  0  0  0
 11 13  1  0  0  0  0
 11 15  1  0  0  0  0
 12  8  1  1  0  0  0
 12 14  1  0  0  0  0
 12 16  1  0  0  0  0
 13 23  1  0  0  0  0
 14 24  1  0  0  0  0
 15 17  1  1  0  0  0
 15 19  1  0  0  0  0
 16 18  1  1  0  0  0
 16 20  1  0  0  0  0
 19 21  1  1  0  0  0
 19 23  1  0  0  0  0
 20 22  1  1  0  0  0
 20 24  1  0  0  0  0
 23 34  1  6  0  0  0
 24 44  1  6  0  0  0
 25 26  2  0  0  0  0
 25 30  1  0  0  0  0
 26 27  1  0  0  0  0
 27 28  2  0  0  0  0
 28 29  1  0  0  0  0
 28 34  1  0  0  0  0
 29 30  2  0  0  0  0
 29 32  1  0  0  0  0
 30 31  1  0  0  0  0
 32 33  2  0  0  0  0
 33 34  1  0  0  0  0
 35 36  2  0  0  0  0
 35 40  1  0  0  0  0
 36 37  1  0  0  0  0
 37 38  2  0  0  0  0
 38 39  1  0  0  0  0
 38 44  1  0  0  0  0
 39 40  2  0  0  0  0
 39 42  1  0  0  0  0
 40 41  1  0  0  0  0
 42 43  2  0  0  0  0
 43 44  1  0  0  0  0
M  CHG  2   3  -1   4  -1
M  END
>  <CHROM.1>
100.94566480,12.38381014,14.03440773,24.21703412,-2.16109906,2.96343568,-0.14611818
-2.84430714

>  <Name>
ligand

>  <RI>
0

>  <Rbt.Current_Directory>
/home/itssahil/PROJECTS/Mol_Feturizer/New_Systems/rnas/4QLM

>  <Rbt.Executable>
rbdock ($Id: //depot/dev/client3/rdock/2013.1/src/exe/rbdock.cxx#4 $)

>  <Rbt.Library>
libRbt.so (2013.1, Build901 2013/11/27)

>  <Rbt.Parameter_File>
/export/apps/rDock/src/rDock_2013.1_src/data/scripts/dock_solv.prm

>  <Rbt.Receptor>
prm/blind_docking_60.prm

>  <SCORE>
26.2538

>  <SCORE.INTER>
20.1586

>  <SCORE.INTER.CONST>
1

>  <SCORE.INTER.POLAR>
0

>  <SCORE.INTER.ROT>
2

>  <SCORE.INTER.SOLV>
46.961

>  <SCORE.INTER.VDW>
-7.14791

>  <SCORE.INTER.norm>
0.458151

>  <SCORE.INTRA>
-0.679353

>  <SCORE.INTRA.DIHEDRAL>
-0.0190685

>  <SCORE.INTRA.DIHEDRAL.0>
2.32994

>  <SCORE.INTRA.POLAR>
0

>  <SCORE.INTRA.POLAR.0>
0

>  <SCORE.INTRA.REPUL>
0

>  <SCORE.INTRA.REPUL.0>
0

>  <SCORE.INTRA.SOLV>
1.33165

>  <SCORE.INTRA.SOLV.lig_0>
-117.703

>  <SCORE.INTRA.VDW>
-1.33564

>  <SCORE.INTRA.VDW.0>
-1.59997

>  <SCORE.INTRA.norm>
-0.0154398

>  <SCORE.RESTR>
6.77452

>  <SCORE.RESTR.CAVITY>
6.77452

>  <SCORE.RESTR.norm>
0.153966

>  <SCORE.SYSTEM>
0

>  <SCORE.SYSTEM.CONST>
0

>  <SCORE.SYSTEM.DIHEDRAL>
0

>  <SCORE.SYSTEM.SOLV>
0

>  <SCORE.SYSTEM.norm>
0

>  <SCORE.heavy>
44

>  <SCORE.norm>
0.596677

>  <RMSD>
26.849

$$$$
ligand
 OpenBabel11021811513D
libRbt.so/2013.1/901 2013/11/27
 44 50  0  0  0  0  0  0  0  0999 V2000
   14.9772   23.1801    0.5526 P   0  0  2  0  0  0  0  0  0  0  0  0
   13.4666   27.0861   -2.8631 P   0  0  1  0  0  0  0  0  0  0  0  0
   16.1387   23.2480    1.5409 O   0  5  0  0  0  0  0  0  0  0  0  0
   13.1747   26.3741   -4.1615 O   0  5  0  0  0  0  0  0  0  0  0  0
   14.7751   21.7163    0.2432 O   0  0  0  0  0  0  0  0  0  0  0  0
   12.9009   28.5193   -2.9859 O   0  0  0  0  0  0  0  0  0  0  0  0
   16.3410   25.1062   -0.3811 C   0  0  0  0  0  0  0  0  0  0  0  0
   13.1361   26.5735   -0.3539 C   0  0  0  0  0  0  0  0  0  0  0  0
   15.4399   24.0300   -0.6747 O   0  0  0  0  0  0  0  0  0  0  0  0
   12.8490   26.1007   -1.7002 O   0  0  0  0  0  0  0  0  0  0  0  0
   16.7462   25.8179   -1.6675 C   0  0  1  0  0  0  0  0  0  0  0  0
   12.3662   25.6086    0.6248 C   0  0  1  0  0  0  0  0  0  0  0  0
   17.7400   25.1702   -2.1920 O   0  0  0  0  0  0  0  0  0  0  0  0
   11.1716   25.5798    0.1932 O   0  0  0  0  0  0  0  0  0  0  0  0
   15.6486   25.8425   -2.7063 C   0  0  1  0  0  0  0  0  0  0  0  0
   12.8268   24.1493    0.4366 C   0  0  1  0  0  0  0  0  0  0  0  0
   15.0755   27.0734   -2.6373 O   0  0  0  0  0  0  0  0  0  0  0  0
   13.6813   23.7794    1.3983 O   0  0  0  0  0  0  0  0  0  0  0  0
   16.4204   25.6762   -4.0616 C   0  0  1  0  0  0  0  0  0  0  0  0
   11.5552   23.2707    0.4505 C   0  0  1  0  0  0  0  0  0  0  0  0
   16.5537   26.9942   -4.7387 O   0  0  0  0  0  0  0  0  0  0  0  0
   11.4042   22.5871    1.7754 O   0  0  0  0  0  0  0  0  0  0  0  0
   17.5813   25.1838   -3.7694 C   0  0  2  0  0  0  0  0  0  0  0  0
   10.5799   24.0950    0.2764 C   0  0  2  0  0  0  0  0  0  0  0  0
   19.7522   21.3903   -6.8868 N   0  0  0  0  0  0  0  0  0  0  0  0
   20.1670   22.6859   -6.8060 C   0  0  0  0  0  0  0  0  0  0  0  0
   19.5435   23.5807   -5.9740 N   0  0  0  0  0  0  0  0  0  0  0  0
   18.4858   23.1575   -5.2174 C   0  0  0  0  0  0  0  0  0  0  0  0
   18.0618   21.8882   -5.2915 C   0  0  0  0  0  0  0  0  0  0  0  0
   18.7070   20.9830   -6.1324 C   0  0  0  0  0  0  0  0  0  0  0  0
   18.3619   19.6275   -6.3013 N   0  0  0  0  0  0  0  0  0  0  0  0
   17.0199   21.7500   -4.4444 N   0  0  0  0  0  0  0  0  0  0  0  0
   16.8006   22.9572   -3.8496 C   0  0  0  0  0  0  0  0  0  0  0  0
   17.7137   23.8215   -4.3114 N   0  0  0  0  0  0  0  0  0  0  0  0
    8.8494   20.6418   -3.2166 N   0  0  0  0  0  0  0  0  0  0  0  0
    9.6141   20.3814   -2.1240 C   0  0  0  0  0  0  0  0  0  0  0  0
    9.9926   21.4079   -1.3052 N   0  0  0  0  0  0  0  0  0  0  0  0
    9.6021   22.6820   -1.5784 C   0  0  0  0  0  0  0  0  0  0  0  0
    8.8395   22.9472   -2.6583 C   0  0  0  0  0  0  0  0  0  0  0  0
    8.4618   21.8963   -3.4891 C   0  0  0  0  0  0  0  0  0  0  0  0
    7.6740   21.9502   -4.6939 N   0  0  0  0  0  0  0  0  0  0  0  0
    8.6125   24.2825   -2.6758 N   0  0  0  0  0  0  0  0  0  0  0  0
    9.2359   24.8362   -1.5966 C   0  0  0  0  0  0  0  0  0  0  0  0
    9.8423   23.8380   -0.9228 N   0  0  0  0  0  0  0  0  0  0  0  0
  1  3  1  1  0  0  0
  1  5  2  0  0  0  0
  1  9  1  0  0  0  0
  1 18  1  0  0  0  0
  2  4  1  6  0  0  0
  2  6  2  0  0  0  0
  2 10  1  0  0  0  0
  2 17  1  0  0  0  0
  7  9  1  0  0  0  0
  8 10  1  0  0  0  0
 11  7  1  1  0  0  0
 11 13  1  0  0  0  0
 11 15  1  0  0  0  0
 12  8  1  6  0  0  0
 12 14  1  0  0  0  0
 12 16  1  0  0  0  0
 13 23  1  0  0  0  0
 14 24  1  0  0  0  0
 15 17  1  6  0  0  0
 15 19  1  0  0  0  0
 16 18  1  1  0  0  0
 16 20  1  0  0  0  0
 19 21  1  1  0  0  0
 19 23  1  0  0  0  0
 20 22  1  1  0  0  0
 20 24  1  0  0  0  0
 23 34  1  1  0  0  0
 24 44  1  6  0  0  0
 25 26  2  0  0  0  0
 25 30  1  0  0  0  0
 26 27  1  0  0  0  0
 27 28  2  0  0  0  0
 28 29  1  0  0  0  0
 28 34  1  0  0  0  0
 29 30  2  0  0  0  0
 29 32  1  0  0  0  0
 30 31  1  0  0  0  0
 32 33  2  0  0  0  0
 33 34  1  0  0  0  0
 35 36  2  0  0  0  0
 35 40  1  0  0  0  0
 36 37  1  0  0  0  0
 37 38  2  0  0  0  0
 38 39  1  0  0  0  0
 38 44  1  0  0  0  0
 39 40  2  0  0  0  0
 39 42  1  0  0  0  0
 40 41  1  0  0  0  0
 42 43  2  0  0  0  0
 43 44  1  0  0  0  0
M  CHG  2   3  -1   4  -1
M  END
>  <CHROM.1>
-123.00316723,151.07898592,14.06518039,23.99510116,-2.28426272,-2.84134265
-0.31913056,-2.42267516

>  <Name>
ligand

>  <RI>
0

>  <Rbt.Current_Directory>
/home/itssahil/PROJECTS/Mol_Feturizer/New_Systems/rnas/4QLM

>  <Rbt.Executable>
rbdock ($Id: //depot/dev/client3/rdock/2013.1/src/exe/rbdock.cxx#4 $)

>  <Rbt.Library>
libRbt.so (2013.1, Build901 2013/11/27)

>  <Rbt.Parameter_File>
/export/apps/rDock/src/rDock_2013.1_src/data/scripts/dock_solv.prm

>  <Rbt.Receptor>
prm/blind_docking_40.prm

>  <SCORE>
11.9662

>  <SCORE.INTER>
4.93614

>  <SCORE.INTER.CONST>
1

>  <SCORE.INTER.POLAR>
0

>  <SCORE.INTER.ROT>
2

>  <SCORE.INTER.SOLV>
50.0366

>  <SCORE.INTER.VDW>
-18.3214

>  <SCORE.INTER.norm>
0.112185

>  <SCORE.INTRA>
1.05884

>  <SCORE.INTRA.DIHEDRAL>
0.0518938

>  <SCORE.INTRA.DIHEDRAL.0>
2.32994

>  <SCORE.INTRA.POLAR>
0

>  <SCORE.INTRA.POLAR.0>
0

>  <SCORE.INTRA.REPUL>
0

>  <SCORE.INTRA.REPUL.0>
0

>  <SCORE.INTRA.SOLV>
0.0681897

>  <SCORE.INTRA.SOLV.lig_0>
-117.703

>  <SCORE.INTRA.VDW>
0.998797

>  <SCORE.INTRA.VDW.0>
-1.59997

>  <SCORE.INTRA.norm>
0.0240645

>  <SCORE.RESTR>
5.97123

>  <SCORE.RESTR.CAVITY>
5.97123

>  <SCORE.RESTR.norm>
0.13571

>  <SCORE.SYSTEM>
0

>  <SCORE.SYSTEM.CONST>
0

>  <SCORE.SYSTEM.DIHEDRAL>
0

>  <SCORE.SYSTEM.SOLV>
0

>  <SCORE.SYSTEM.norm>
0

>  <SCORE.heavy>
44

>  <SCORE.norm>
0.271959

>  <RMSD>
26.857

$$$$
ligand
 OpenBabel11021811513D
libRbt.so/2013.1/901 2013/11/27
 44 50  0  0  0  0  0  0  0  0999 V2000
   14.9807   23.1751    0.5555 P   0  0  2  0  0  0  0  0  0  0  0  0
   13.4760   27.0792   -2.8650 P   0  0  1  0  0  0  0  0  0  0  0  0
   16.1420   23.2426    1.5441 O   0  5  0  0  0  0  0  0  0  0  0  0
   13.1835   26.3661   -4.1626 O   0  5  0  0  0  0  0  0  0  0  0  0
   14.7768   21.7112    0.2477 O   0  0  0  0  0  0  0  0  0  0  0  0
   12.9121   28.5130   -2.9895 O   0  0  0  0  0  0  0  0  0  0  0  0
   16.3471   25.0984   -0.3799 C   0  0  0  0  0  0  0  0  0  0  0  0
   13.1441   26.5698   -0.3552 C   0  0  0  0  0  0  0  0  0  0  0  0
   15.4448   24.0230   -0.6726 O   0  0  0  0  0  0  0  0  0  0  0  0
   12.8568   26.0959   -1.7012 O   0  0  0  0  0  0  0  0  0  0  0  0
   16.7536   25.8081   -1.6670 C   0  0  1  0  0  0  0  0  0  0  0  0
   12.3727   25.6070    0.6243 C   0  0  1  0  0  0  0  0  0  0  0  0
   17.7468   25.1586   -2.1905 O   0  0  0  0  0  0  0  0  0  0  0  0
   11.1782   25.5792    0.1924 O   0  0  0  0  0  0  0  0  0  0  0  0
   15.6563   25.8330   -2.7062 C   0  0  1  0  0  0  0  0  0  0  0  0
   12.8315   24.1469    0.4378 C   0  0  1  0  0  0  0  0  0  0  0  0
   15.0847   27.0647   -2.6387 O   0  0  0  0  0  0  0  0  0  0  0  0
   13.6853   23.7770    1.4001 O   0  0  0  0  0  0  0  0  0  0  0  0
   16.4283   25.6642   -4.0611 C   0  0  1  0  0  0  0  0  0  0  0  0
   11.5587   23.2699    0.4524 C   0  0  1  0  0  0  0  0  0  0  0  0
   16.5635   26.9813   -4.7396 O   0  0  0  0  0  0  0  0  0  0  0  0
   11.4066   22.5880    1.7779 O   0  0  0  0  0  0  0  0  0  0  0  0
   17.5885   25.1707   -3.7679 C   0  0  2  0  0  0  0  0  0  0  0  0
   10.5845   24.0953    0.2770 C   0  0  2  0  0  0  0  0  0  0  0  0
   19.7256   21.3812   -6.9134 N   0  0  0  0  0  0  0  0  0  0  0  0
   20.1339   22.6795   -6.8438 C   0  0  0  0  0  0  0  0  0  0  0  0
   19.5202   23.5729   -6.0032 N   0  0  0  0  0  0  0  0  0  0  0  0
   18.4789   23.1456   -5.2264 C   0  0  0  0  0  0  0  0  0  0  0  0
   18.0614   21.8735   -5.2891 C   0  0  0  0  0  0  0  0  0  0  0  0
   18.6967   20.9698   -6.1391 C   0  0  0  0  0  0  0  0  0  0  0  0
   18.3568   19.6118   -6.2978 N   0  0  0  0  0  0  0  0  0  0  0  0
   17.0358   21.7316   -4.4230 N   0  0  0  0  0  0  0  0  0  0  0  0
   16.8200   22.9392   -3.8277 C   0  0  0  0  0  0  0  0  0  0  0  0
   17.7193   23.8076   -4.3085 N   0  0  0  0  0  0  0  0  0  0  0  0
    8.8420   20.6390   -3.2069 N   0  0  0  0  0  0  0  0  0  0  0  0
    9.6044   20.3786   -2.1127 C   0  0  0  0  0  0  0  0  0  0  0  0
    9.9867   21.4059   -1.2967 N   0  0  0  0  0  0  0  0  0  0  0  0
    9.6022   22.6809   -1.5743 C   0  0  0  0  0  0  0  0  0  0  0  0
    8.8419   22.9462   -2.6558 C   0  0  0  0  0  0  0  0  0  0  0  0
    8.4602   21.8944   -3.4837 C   0  0  0  0  0  0  0  0  0  0  0  0
    7.6739   21.9481   -4.6895 N   0  0  0  0  0  0  0  0  0  0  0  0
    8.6210   24.2825   -2.6777 N   0  0  0  0  0  0  0  0  0  0  0  0
    9.2457   24.8367   -1.5995 C   0  0  0  0  0  0  0  0  0  0  0  0
    9.8470   23.8379   -0.9220 N   0  0  0  0  0  0  0  0  0  0  0  0
  1  3  1  1  0  0  0
  1  5  2  0  0  0  0
  1  9  1  0  0  0  0
  1 18  1  0  0  0  0
  2  4  1  6  0  0  0
  2  6  2  0  0  0  0
  2 10  1  0  0  0  0
  2 17  1  0  0  0  0
  7  9  1  0  0  0  0
  8 10  1  0  0  0  0
 11  7  1  1  0  0  0
 11 13  1  0  0  0  0
 11 15  1  0  0  0  0
 12  8  1  6  0  0  0
 12 14  1  0  0  0  0
 12 16  1  0  0  0  0
 13 23  1  0  0  0  0
 14 24  1  0  0  0  0
 15 17  1  6  0  0  0
 15 19  1  0  0  0  0
 16 18  1  1  0  0  0
 16 20  1  0  0  0  0
 19 21  1  1  0  0  0
 19 23  1  0  0  0  0
 20 22  1  1  0  0  0
 20 24  1  0  0  0  0
 23 34  1  1  0  0  0
 24 44  1  6  0  0  0
 25 26  2  0  0  0  0
 25 30  1  0  0  0  0
 26 27  1  0  0  0  0
 27 28  2  0  0  0  0
 28 29  1  0  0  0  0
 28 34  1  0  0  0  0
 29 30  2  0  0  0  0
 29 32  1  0  0  0  0
 30 31  1  0  0  0  0
 32 33  2  0  0  0  0
 33 34  1  0  0  0  0
 35 36  2  0  0  0  0
 35 40  1  0  0  0  0
 36 37  1  0  0  0  0
 37 38  2  0  0  0  0
 38 39  1  0  0  0  0
 38 44  1  0  0  0  0
 39 40  2  0  0  0  0
 39 42  1  0  0  0  0
 40 41  1  0  0  0  0
 42 43  2  0  0  0  0
 43 44  1  0  0  0  0
M  CHG  2   3  -1   4  -1
M  END
>  <CHROM.1>
-124.14170153,151.30079764,14.06769343,23.98865136,-2.28423998,-2.83864972
-0.31899406,-2.41910574

>  <Name>
ligand

>  <RI>
0

>  <Rbt.Current_Directory>
/home/itssahil/PROJECTS/Mol_Feturizer/New_Systems/rnas/4QLM

>  <Rbt.Executable>
rbdock ($Id: //depot/dev/client3/rdock/2013.1/src/exe/rbdock.cxx#4 $)

>  <Rbt.Library>
libRbt.so (2013.1, Build901 2013/11/27)

>  <Rbt.Parameter_File>
/export/apps/rDock/src/rDock_2013.1_src/data/scripts/dock_solv.prm

>  <Rbt.Receptor>
prm/blind_docking_40.prm

>  <SCORE>
12.1909

>  <SCORE.INTER>
5.29823

>  <SCORE.INTER.CONST>
1

>  <SCORE.INTER.POLAR>
0

>  <SCORE.INTER.ROT>
2

>  <SCORE.INTER.SOLV>
50.1174

>  <SCORE.INTER.VDW>
-18.107

>  <SCORE.INTER.norm>
0.120414

>  <SCORE.INTRA>
1.00118

>  <SCORE.INTRA.DIHEDRAL>
0.0456939

>  <SCORE.INTRA.DIHEDRAL.0>
2.32994

>  <SCORE.INTRA.POLAR>
0

>  <SCORE.INTRA.POLAR.0>
0

>  <SCORE.INTRA.REPUL>
0

>  <SCORE.INTRA.REPUL.0>
0

>  <SCORE.INTRA.SOLV>
0.0681742

>  <SCORE.INTRA.SOLV.lig_0>
-117.703

>  <SCORE.INTRA.VDW>
0.944247

>  <SCORE.INTRA.VDW.0>
-1.59997

>  <SCORE.INTRA.norm>
0.0227541

>  <SCORE.RESTR>
5.89145

>  <SCORE.RESTR.CAVITY>
5.89145

>  <SCORE.RESTR.norm>
0.133897

>  <SCORE.SYSTEM>
0

>  <SCORE.SYSTEM.CONST>
0

>  <SCORE.SYSTEM.DIHEDRAL>
0

>  <SCORE.SYSTEM.SOLV>
0

>  <SCORE.SYSTEM.norm>
0

>  <SCORE.heavy>
44

>  <SCORE.norm>
0.277065

>  <RMSD>
26.861

$$$$
ligand
 OpenBabel11021811513D
libRbt.so/2013.1/901 2013/11/27
 44 50  0  0  0  0  0  0  0  0999 V2000
   13.4266   27.0835   -2.9216 P   0  0  2  0  0  0  0  0  0  0  0  0
   15.2736   23.3077    0.4751 P   0  0  1  0  0  0  0  0  0  0  0  0
   12.6970   28.3663   -2.5312 O   0  5  0  0  0  0  0  0  0  0  0  0
   14.9071   21.9933   -0.1700 O   0  5  0  0  0  0  0  0  0  0  0  0
   12.9745   26.7543   -4.3240 O   0  0  0  0  0  0  0  0  0  0  0  0
   16.2746   23.0001    1.6120 O   0  0  0  0  0  0  0  0  0  0  0  0
   12.6777   26.5547   -0.5550 C   0  0  0  0  0  0  0  0  0  0  0  0
   16.0705   25.6199   -0.3537 C   0  0  0  0  0  0  0  0  0  0  0  0
   12.9935   26.0298   -1.8516 O   0  0  0  0  0  0  0  0  0  0  0  0
   15.7756   24.2569   -0.7706 O   0  0  0  0  0  0  0  0  0  0  0  0
   12.2277   25.4302    0.3716 C   0  0  1  0  0  0  0  0  0  0  0  0
   16.6640   26.3481   -1.6182 C   0  0  1  0  0  0  0  0  0  0  0  0
   10.9608   25.2299    0.1785 O   0  0  0  0  0  0  0  0  0  0  0  0
   17.5917   25.5874   -2.0362 O   0  0  0  0  0  0  0  0  0  0  0  0
   12.9211   24.1161    0.0948 C   0  0  1  0  0  0  0  0  0  0  0  0
   15.6602   26.3282   -2.7882 C   0  0  1  0  0  0  0  0  0  0  0  0
   13.9065   23.9932    1.0234 O   0  0  0  0  0  0  0  0  0  0  0  0
   15.0319   27.5036   -2.9124 O   0  0  0  0  0  0  0  0  0  0  0  0
   11.8002   23.0480    0.3455 C   0  0  1  0  0  0  0  0  0  0  0  0
   16.4629   25.9858   -4.0641 C   0  0  1  0  0  0  0  0  0  0  0  0
   11.9856   22.4163    1.6796 O   0  0  0  0  0  0  0  0  0  0  0  0
   16.7089   27.2208   -4.8762 O   0  0  0  0  0  0  0  0  0  0  0  0
   10.6694   23.6749    0.2807 C   0  0  2  0  0  0  0  0  0  0  0  0
   17.5856   25.5203   -3.6353 C   0  0  2  0  0  0  0  0  0  0  0  0
    8.4147   19.9927   -2.9097 N   0  0  0  0  0  0  0  0  0  0  0  0
    9.0992   19.7357   -1.7597 C   0  0  0  0  0  0  0  0  0  0  0  0
    9.6384   20.7515   -1.0120 N   0  0  0  0  0  0  0  0  0  0  0  0
    9.4839   22.0422   -1.4367 C   0  0  0  0  0  0  0  0  0  0  0  0
    8.8193   22.3102   -2.5694 C   0  0  0  0  0  0  0  0  0  0  0  0
    8.2664   21.2727   -3.3183 C   0  0  0  0  0  0  0  0  0  0  0  0
    7.5480   21.4191   -4.5213 N   0  0  0  0  0  0  0  0  0  0  0  0
    8.8168   23.6491   -2.7407 N   0  0  0  0  0  0  0  0  0  0  0  0
    9.4975   24.2060   -1.6987 C   0  0  0  0  0  0  0  0  0  0  0  0
    9.8944   23.2190   -0.8849 N   0  0  0  0  0  0  0  0  0  0  0  0
   19.8508   22.1655   -6.9116 N   0  0  0  0  0  0  0  0  0  0  0  0
   19.9295   23.5214   -6.9512 C   0  0  0  0  0  0  0  0  0  0  0  0
   19.2654   24.2636   -6.0155 N   0  0  0  0  0  0  0  0  0  0  0  0
   18.5343   23.6493   -5.0467 C   0  0  0  0  0  0  0  0  0  0  0  0
   18.4554   22.3041   -4.9985 C   0  0  0  0  0  0  0  0  0  0  0  0
   19.1317   21.5561   -5.9578 C   0  0  0  0  0  0  0  0  0  0  0  0
   19.1714   20.1239   -6.1077 N   0  0  0  0  0  0  0  0  0  0  0  0
   17.6678   21.9821   -3.9444 N   0  0  0  0  0  0  0  0  0  0  0  0
   17.2674   23.1379   -3.3413 C   0  0  0  0  0  0  0  0  0  0  0  0
   17.8109   24.1628   -4.0284 N   0  0  0  0  0  0  0  0  0  0  0  0
  1  3  1  1  0  0  0
  1  5  2  0  0  0  0
  1  9  1  0  0  0  0
  1 18  1  0  0  0  0
  2  4  1  6  0  0  0
  2  6  2  0  0  0  0
  2 10  1  0  0  0  0
  2 17  1  0  0  0  0
  7  9  1  0  0  0  0
  8 10  1  0  0  0  0
 11  7  1  6  0  0  0
 11 13  1  0  0  0  0
 11 15  1  0  0  0  0
 12  8  1  1  0  0  0
 12 14  1  0  0  0  0
 12 16  1  0  0  0  0
 13 23  1  0  0  0  0
 14 24  1  0  0  0  0
 15 17  1  1  0  0  0
 15 19  1  0  0  0  0
 16 18  1  6  0  0  0
 16 20  1  0  0  0  0
 19 21  1  1  0  0  0
 19 23  1  0  0  0  0
 20 22  1  6  0  0  0
 20 24  1  0  0  0  0
 23 34  1  6  0  0  0
 24 44  1  1  0  0  0
 25 26  2  0  0  0  0
 25 30  1  0  0  0  0
 26 27  1  0  0  0  0
 27 28  2  0  0  0  0
 28 29  1  0  0  0  0
 28 34  1  0  0  0  0
 29 30  2  0  0  0  0
 29 32  1  0  0  0  0
 30 31  1  0  0  0  0
 32 33  2  0  0  0  0
 33 34  1  0  0  0  0
 35 36  2  0  0  0  0
 35 40  1  0  0  0  0
 36 37  1  0  0  0  0
 37 38  2  0  0  0  0
 38 39  1  0  0  0  0
 38 44  1  0  0  0  0
 39 40  2  0  0  0  0
 39 42  1  0  0  0  0
 40 41  1  0  0  0  0
 42 43  2  0  0  0  0
 43 44  1  0  0  0  0
M  CHG  2   3  -1   4  -1
M  END
>  <CHROM.1>
170.67724670,-141.41254633,14.11435795,24.03251683,-2.26546727,-0.08844704
0.39363713,0.55883669

>  <Name>
ligand

>  <RI>
0

>  <Rbt.Current_Directory>
/home/itssahil/PROJECTS/Mol_Feturizer/New_Systems/rnas/4QLM

>  <Rbt.Executable>
rbdock ($Id: //depot/dev/client3/rdock/2013.1/src/exe/rbdock.cxx#4 $)

>  <Rbt.Library>
libRbt.so (2013.1, Build901 2013/11/27)

>  <Rbt.Parameter_File>
/export/apps/rDock/src/rDock_2013.1_src/data/scripts/dock_solv.prm

>  <Rbt.Receptor>
prm/blind_docking_40.prm

>  <SCORE>
16.8861

>  <SCORE.INTER>
11.0408

>  <SCORE.INTER.CONST>
1

>  <SCORE.INTER.POLAR>
0

>  <SCORE.INTER.ROT>
2

>  <SCORE.INTER.SOLV>
46.4112

>  <SCORE.INTER.VDW>
-13.0432

>  <SCORE.INTER.norm>
0.250927

>  <SCORE.INTRA>
0.276683

>  <SCORE.INTRA.DIHEDRAL>
0.12072

>  <SCORE.INTRA.DIHEDRAL.0>
2.32994

>  <SCORE.INTRA.POLAR>
0

>  <SCORE.INTRA.POLAR.0>
0

>  <SCORE.INTRA.REPUL>
0

>  <SCORE.INTRA.REPUL.0>
0

>  <SCORE.INTRA.SOLV>
0.0145241

>  <SCORE.INTRA.SOLV.lig_0>
-117.703

>  <SCORE.INTRA.VDW>
0.209061

>  <SCORE.INTRA.VDW.0>
-1.59997

>  <SCORE.INTRA.norm>
0.00628824

>  <SCORE.RESTR>
5.56861

>  <SCORE.RESTR.CAVITY>
5.56861

>  <SCORE.RESTR.norm>
0.126559

>  <SCORE.SYSTEM>
0

>  <SCORE.SYSTEM.CONST>
0

>  <SCORE.SYSTEM.DIHEDRAL>
0

>  <SCORE.SYSTEM.SOLV>
0

>  <SCORE.SYSTEM.norm>
0

>  <SCORE.heavy>
44

>  <SCORE.norm>
0.383774

>  <RMSD>
26.862

$$$$
ligand
 OpenBabel11021811513D
libRbt.so/2013.1/901 2013/11/27
 44 50  0  0  0  0  0  0  0  0999 V2000
   13.3146   27.4469   -2.0970 P   0  0  2  0  0  0  0  0  0  0  0  0
   15.2260   22.9157    0.1435 P   0  0  1  0  0  0  0  0  0  0  0  0
   12.6146   28.5881   -1.3634 O   0  5  0  0  0  0  0  0  0  0  0  0
   14.8217   21.8137   -0.8053 O   0  5  0  0  0  0  0  0  0  0  0  0
   12.8118   27.4926   -3.5200 O   0  0  0  0  0  0  0  0  0  0  0  0
   16.2604   22.3215    1.1264 O   0  0  0  0  0  0  0  0  0  0  0  0
   12.6384   26.3278    0.0782 C   0  0  0  0  0  0  0  0  0  0  0  0
   16.0240   25.3607   -0.0888 C   0  0  0  0  0  0  0  0  0  0  0  0
   12.9041   26.1543   -1.3202 O   0  0  0  0  0  0  0  0  0  0  0  0
   15.6982   24.1525   -0.8323 O   0  0  0  0  0  0  0  0  0  0  0  0
   12.2053   25.0039    0.6988 C   0  0  1  0  0  0  0  0  0  0  0  0
   16.5841   26.3885   -1.1430 C   0  0  1  0  0  0  0  0  0  0  0  0
   10.9303   24.8648    0.5057 O   0  0  0  0  0  0  0  0  0  0  0  0
   17.4876   25.7581   -1.7756 O   0  0  0  0  0  0  0  0  0  0  0  0
   12.8726   23.8033    0.0681 C   0  0  1  0  0  0  0  0  0  0  0  0
   15.5417   26.6748   -2.2422 C   0  0  1  0  0  0  0  0  0  0  0  0
   13.8867   23.4414    0.8981 O   0  0  0  0  0  0  0  0  0  0  0  0
   14.9245   27.8447   -2.0368 O   0  0  0  0  0  0  0  0  0  0  0  0
   11.7472   22.7108    0.0746 C   0  0  1  0  0  0  0  0  0  0  0  0
   16.2970   26.6706   -3.5908 C   0  0  1  0  0  0  0  0  0  0  0  0
   11.9690   21.7553    1.1932 O   0  0  0  0  0  0  0  0  0  0  0  0
   16.5314   28.0724   -4.0653 O   0  0  0  0  0  0  0  0  0  0  0  0
   10.6229   23.3371    0.2138 C   0  0  2  0  0  0  0  0  0  0  0  0
   17.4274   26.1061   -3.3366 C   0  0  2  0  0  0  0  0  0  0  0  0
    8.2701   20.6182   -3.7729 N   0  0  0  0  0  0  0  0  0  0  0  0
    9.0048   20.0717   -2.7636 C   0  0  0  0  0  0  0  0  0  0  0  0
    9.5655   20.8561   -1.7880 N   0  0  0  0  0  0  0  0  0  0  0  0
    9.3813   22.2103   -1.8379 C   0  0  0  0  0  0  0  0  0  0  0  0
    8.6673   22.7631   -2.8284 C   0  0  0  0  0  0  0  0  0  0  0  0
    8.0930   21.9579   -3.8105 C   0  0  0  0  0  0  0  0  0  0  0  0
    7.3232   22.4118   -4.8997 N   0  0  0  0  0  0  0  0  0  0  0  0
    8.6451   24.0978   -2.6273 N   0  0  0  0  0  0  0  0  0  0  0  0
    9.3638   24.3634   -1.4995 C   0  0  0  0  0  0  0  0  0  0  0  0
    9.8038   23.2003   -1.0018 N   0  0  0  0  0  0  0  0  0  0  0  0
   18.5217   21.0148   -3.3025 N   0  0  0  0  0  0  0  0  0  0  0  0
   18.4528   21.8401   -2.2253 C   0  0  0  0  0  0  0  0  0  0  0  0
   18.1591   23.1624   -2.4060 N   0  0  0  0  0  0  0  0  0  0  0  0
   17.9314   23.6491   -3.6557 C   0  0  0  0  0  0  0  0  0  0  0  0
   17.9936   22.8350   -4.7288 C   0  0  0  0  0  0  0  0  0  0  0  0
   18.2972   21.4904   -4.5361 C   0  0  0  0  0  0  0  0  0  0  0  0
   18.4336   20.4553   -5.5285 N   0  0  0  0  0  0  0  0  0  0  0  0
   17.7287   23.5873   -5.8238 N   0  0  0  0  0  0  0  0  0  0  0  0
   17.4977   24.8682   -5.4166 C   0  0  0  0  0  0  0  0  0  0  0  0
   17.6224   24.8953   -4.0743 N   0  0  0  0  0  0  0  0  0  0  0  0
  1  3  1  1  0  0  0
  1  5  2  0  0  0  0
  1  9  1  0  0  0  0
  1 18  1  0  0  0  0
  2  4  1  6  0  0  0
  2  6  2  0  0  0  0
  2 10  1  0  0  0  0
  2 17  1  0  0  0  0
  7  9  1  0  0  0  0
  8 10  1  0  0  0  0
 11  7  1  6  0  0  0
 11 13  1  0  0  0  0
 11 15  1  0  0  0  0
 12  8  1  1  0  0  0
 12 14  1  0  0  0  0
 12 16  1  0  0  0  0
 13 23  1  0  0  0  0
 14 24  1  0  0  0  0
 15 17  1  1  0  0  0
 15 19  1  0  0  0  0
 16 18  1  1  0  0  0
 16 20  1  0  0  0  0
 19 21  1  1  0  0  0
 19 23  1  0  0  0  0
 20 22  1  1  0  0  0
 20 24  1  0  0  0  0
 23 34  1  6  0  0  0
 24 44  1  6  0  0  0
 25 26  2  0  0  0  0
 25 30  1  0  0  0  0
 26 27  1  0  0  0  0
 27 28  2  0  0  0  0
 28 29  1  0  0  0  0
 28 34  1  0  0  0  0
 29 30  2  0  0  0  0
 29 32  1  0  0  0  0
 30 31  1  0  0  0  0
 32 33  2  0  0  0  0
 33 34  1  0  0  0  0
 35 36  2  0  0  0  0
 35 40  1  0  0  0  0
 36 37  1  0  0  0  0
 37 38  2  0  0  0  0
 38 39  1  0  0  0  0
 38 44  1  0  0  0  0
 39 40  2  0  0  0  0
 39 42  1  0  0  0  0
 40 41  1  0  0  0  0
 42 43  2  0  0  0  0
 43 44  1  0  0  0  0
M  CHG  2   3  -1   4  -1
M  END
>  <CHROM.1>
169.05274317,-5.84075688,13.90949366,24.12189994,-1.95950466,0.13892755,0.20527146
0.20642707

>  <Name>
ligand

>  <RI>
0

>  <Rbt.Current_Directory>
/home/itssahil/PROJECTS/Mol_Feturizer/New_Systems/rnas/4QLM

>  <Rbt.Executable>
rbdock ($Id: //depot/dev/client3/rdock/2013.1/src/exe/rbdock.cxx#4 $)

>  <Rbt.Library>
libRbt.so (2013.1, Build901 2013/11/27)

>  <Rbt.Parameter_File>
/export/apps/rDock/src/rDock_2013.1_src/data/scripts/dock_solv.prm

>  <Rbt.Receptor>
prm/blind_docking_60.prm

>  <SCORE>
11.1116

>  <SCORE.INTER>
3.85261

>  <SCORE.INTER.CONST>
1

>  <SCORE.INTER.POLAR>
0

>  <SCORE.INTER.ROT>
2

>  <SCORE.INTER.SOLV>
41.1483

>  <SCORE.INTER.VDW>
-16.081

>  <SCORE.INTER.norm>
0.0875594

>  <SCORE.INTRA>
0.141479

>  <SCORE.INTRA.DIHEDRAL>
0.122295

>  <SCORE.INTRA.DIHEDRAL.0>
2.32994

>  <SCORE.INTRA.POLAR>
0

>  <SCORE.INTRA.POLAR.0>
0

>  <SCORE.INTRA.REPUL>
0

>  <SCORE.INTRA.REPUL.0>
0

>  <SCORE.INTRA.SOLV>
0.32614

>  <SCORE.INTRA.SOLV.lig_0>
-117.703

>  <SCORE.INTRA.VDW>
-0.0827389

>  <SCORE.INTRA.VDW.0>
-1.59997

>  <SCORE.INTRA.norm>
0.00321542

>  <SCORE.RESTR>
7.1175

>  <SCORE.RESTR.CAVITY>
7.1175

>  <SCORE.RESTR.norm>
0.161761

>  <SCORE.SYSTEM>
0

>  <SCORE.SYSTEM.CONST>
0

>  <SCORE.SYSTEM.DIHEDRAL>
0

>  <SCORE.SYSTEM.SOLV>
0

>  <SCORE.SYSTEM.norm>
0

>  <SCORE.heavy>
44

>  <SCORE.norm>
0.252536

>  <RMSD>
26.868

$$$$
ligand
 OpenBabel11021811513D
libRbt.so/2013.1/901 2013/11/27
 44 50  0  0  0  0  0  0  0  0999 V2000
   14.9804   23.1974    0.5272 P   0  0  2  0  0  0  0  0  0  0  0  0
   13.4857   27.0595   -2.9449 P   0  0  1  0  0  0  0  0  0  0  0  0
   16.1422   23.2749    1.5145 O   0  5  0  0  0  0  0  0  0  0  0  0
   13.1908   26.3299   -4.2328 O   0  5  0  0  0  0  0  0  0  0  0  0
   14.7723   21.7300    0.2391 O   0  0  0  0  0  0  0  0  0  0  0  0
   12.9259   28.4930   -3.0885 O   0  0  0  0  0  0  0  0  0  0  0  0
   16.3520   25.1041   -0.4343 C   0  0  0  0  0  0  0  0  0  0  0  0
   13.1531   26.5847   -0.4285 C   0  0  0  0  0  0  0  0  0  0  0  0
   15.4466   24.0274   -0.7123 O   0  0  0  0  0  0  0  0  0  0  0  0
   12.8641   26.0936   -1.7678 O   0  0  0  0  0  0  0  0  0  0  0  0
   16.7601   25.7954   -1.7309 C   0  0  1  0  0  0  0  0  0  0  0  0
   12.3793   25.6373    0.5641 C   0  0  1  0  0  0  0  0  0  0  0  0
   17.7513   25.1361   -2.2459 O   0  0  0  0  0  0  0  0  0  0  0  0
   11.1847   25.6071    0.1329 O   0  0  0  0  0  0  0  0  0  0  0  0
   15.6626   25.8094   -2.7700 C   0  0  1  0  0  0  0  0  0  0  0  0
   12.8340   24.1736    0.3971 C   0  0  1  0  0  0  0  0  0  0  0  0
   15.0945   27.0435   -2.7189 O   0  0  0  0  0  0  0  0  0  0  0  0
   13.6870   23.8142    1.3640 O   0  0  0  0  0  0  0  0  0  0  0  0
   16.4336   25.6203   -4.1227 C   0  0  1  0  0  0  0  0  0  0  0  0
   11.5588   23.3004    0.4237 C   0  0  1  0  0  0  0  0  0  0  0  0
   16.5723   26.9278   -4.8189 O   0  0  0  0  0  0  0  0  0  0  0  0
   11.4051   22.6368    1.7583 O   0  0  0  0  0  0  0  0  0  0  0  0
   17.5926   25.1274   -3.8233 C   0  0  2  0  0  0  0  0  0  0  0  0
   10.5868   24.1261    0.2376 C   0  0  2  0  0  0  0  0  0  0  0  0
   19.7664   21.2739   -6.8641 N   0  0  0  0  0  0  0  0  0  0  0  0
   20.1915   22.5669   -6.7957 C   0  0  0  0  0  0  0  0  0  0  0  0
   19.5662   23.4781   -5.9831 N   0  0  0  0  0  0  0  0  0  0  0  0
   18.4962   23.0742   -5.2334 C   0  0  0  0  0  0  0  0  0  0  0  0
   18.0620   21.8076   -5.2955 C   0  0  0  0  0  0  0  0  0  0  0  0
   18.7090   20.8858   -6.1166 C   0  0  0  0  0  0  0  0  0  0  0  0
   18.3541   19.5311   -6.2714 N   0  0  0  0  0  0  0  0  0  0  0  0
   17.0092   21.6898   -4.4590 N   0  0  0  0  0  0  0  0  0  0  0  0
   16.7935   22.9067   -3.8829 C   0  0  0  0  0  0  0  0  0  0  0  0
   17.7194   23.7569   -4.3455 N   0  0  0  0  0  0  0  0  0  0  0  0
    9.1610   20.7027   -3.4186 N   0  0  0  0  0  0  0  0  0  0  0  0
    9.9828   20.4704   -2.3616 C   0  0  0  0  0  0  0  0  0  0  0  0
   10.2652   21.4849   -1.4908 N   0  0  0  0  0  0  0  0  0  0  0  0
    9.7229   22.7185   -1.6768 C   0  0  0  0  0  0  0  0  0  0  0  0
    8.9030   22.9551   -2.7208 C   0  0  0  0  0  0  0  0  0  0  0  0
    8.6239   21.9172   -3.6052 C   0  0  0  0  0  0  0  0  0  0  0  0
    7.7995   21.9485   -4.7860 N   0  0  0  0  0  0  0  0  0  0  0  0
    8.5237   24.2537   -2.6517 N   0  0  0  0  0  0  0  0  0  0  0  0
    9.1113   24.8128   -1.5554 C   0  0  0  0  0  0  0  0  0  0  0  0
    9.8482   23.8547   -0.9577 N   0  0  0  0  0  0  0  0  0  0  0  0
  1  3  1  1  0  0  0
  1  5  2  0  0  0  0
  1  9  1  0  0  0  0
  1 18  1  0  0  0  0
  2  4  1  6  0  0  0
  2  6  2  0  0  0  0
  2 10  1  0  0  0  0
  2 17  1  0  0  0  0
  7  9  1  0  0  0  0
  8 10  1  0  0  0  0
 11  7  1  1  0  0  0
 11 13  1  0  0  0  0
 11 15  1  0  0  0  0
 12  8  1  6  0  0  0
 12 14  1  0  0  0  0
 12 16  1  0  0  0  0
 13 23  1  0  0  0  0
 14 24  1  0  0  0  0
 15 17  1  6  0  0  0
 15 19  1  0  0  0  0
 16 18  1  1  0  0  0
 16 20  1  0  0  0  0
 19 21  1  1  0  0  0
 19 23  1  0  0  0  0
 20 22  1  1  0  0  0
 20 24  1  0  0  0  0
 23 34  1  1  0  0  0
 24 44  1  6  0  0  0
 25 26  2  0  0  0  0
 25 30  1  0  0  0  0
 26 27  1  0  0  0  0
 27 28  2  0  0  0  0
 28 29  1  0  0  0  0
 28 34  1  0  0  0  0
 29 30  2  0  0  0  0
 29 32  1  0  0  0  0
 30 31  1  0  0  0  0
 32 33  2  0  0  0  0
 33 34  1  0  0  0  0
 35 36  2  0  0  0  0
 35 40  1  0  0  0  0
 36 37  1  0  0  0  0
 37 38  2  0  0  0  0
 38 39  1  0  0  0  0
 38 44  1  0  0  0  0
 39 40  2  0  0  0  0
 39 42  1  0  0  0  0
 40 41  1  0  0  0  0
 42 43  2  0  0  0  0
 43 44  1  0  0  0  0
M  CHG  2   3  -1   4  -1
M  END
>  <CHROM.1>
-122.28256505,142.85354726,14.09744239,23.97989687,-2.33620560,-2.81702355
-0.30502883,-2.41746547

>  <Name>
ligand

>  <RI>
0

>  <Rbt.Current_Directory>
/home/itssahil/PROJECTS/Mol_Feturizer/New_Systems/rnas/4QLM

>  <Rbt.Executable>
rbdock ($Id: //depot/dev/client3/rdock/2013.1/src/exe/rbdock.cxx#4 $)

>  <Rbt.Library>
libRbt.so (2013.1, Build901 2013/11/27)

>  <Rbt.Parameter_File>
/export/apps/rDock/src/rDock_2013.1_src/data/scripts/dock_solv.prm

>  <Rbt.Receptor>
prm/blind_docking_80.prm

>  <SCORE>
14.559

>  <SCORE.INTER>
5.36403

>  <SCORE.INTER.CONST>
1

>  <SCORE.INTER.POLAR>
0

>  <SCORE.INTER.ROT>
2

>  <SCORE.INTER.SOLV>
51.4493

>  <SCORE.INTER.VDW>
-18.5071

>  <SCORE.INTER.norm>
0.12191

>  <SCORE.INTRA>
1.1819

>  <SCORE.INTRA.DIHEDRAL>
0.0566129

>  <SCORE.INTRA.DIHEDRAL.0>
2.32994

>  <SCORE.INTRA.POLAR>
0

>  <SCORE.INTRA.POLAR.0>
0

>  <SCORE.INTRA.REPUL>
0

>  <SCORE.INTRA.REPUL.0>
0

>  <SCORE.INTRA.SOLV>
0.064679

>  <SCORE.INTRA.SOLV.lig_0>
-117.703

>  <SCORE.INTRA.VDW>
1.12125

>  <SCORE.INTRA.VDW.0>
-1.59997

>  <SCORE.INTRA.norm>
0.0268613

>  <SCORE.RESTR>
8.01302

>  <SCORE.RESTR.CAVITY>
8.01302

>  <SCORE.RESTR.norm>
0.182114

>  <SCORE.SYSTEM>
0

>  <SCORE.SYSTEM.CONST>
0

>  <SCORE.SYSTEM.DIHEDRAL>
0

>  <SCORE.SYSTEM.SOLV>
0

>  <SCORE.SYSTEM.norm>
0

>  <SCORE.heavy>
44

>  <SCORE.norm>
0.330885

>  <RMSD>
26.868

$$$$
ligand
 OpenBabel11021811513D
libRbt.so/2013.1/901 2013/11/27
 44 50  0  0  0  0  0  0  0  0999 V2000
   14.9326   23.1174    0.5064 P   0  0  2  0  0  0  0  0  0  0  0  0
   13.4401   27.0268   -2.9133 P   0  0  1  0  0  0  0  0  0  0  0  0
   16.1066   23.1733    1.4806 O   0  5  0  0  0  0  0  0  0  0  0  0
   13.1223   26.3121   -4.2042 O   0  5  0  0  0  0  0  0  0  0  0  0
   14.7050   21.6551    0.2077 O   0  0  0  0  0  0  0  0  0  0  0  0
   12.8945   28.4676   -3.0376 O   0  0  0  0  0  0  0  0  0  0  0  0
   16.3138   25.0177   -0.4541 C   0  0  0  0  0  0  0  0  0  0  0  0
   13.1317   26.5330   -0.3975 C   0  0  0  0  0  0  0  0  0  0  0  0
   15.3933   23.9535   -0.7311 O   0  0  0  0  0  0  0  0  0  0  0  0
   12.8216   26.0571   -1.7377 O   0  0  0  0  0  0  0  0  0  0  0  0
   16.7143   25.7161   -1.7492 C   0  0  1  0  0  0  0  0  0  0  0  0
   12.3591   25.5851    0.5956 C   0  0  1  0  0  0  0  0  0  0  0  0
   17.6921   25.0508   -2.2817 O   0  0  0  0  0  0  0  0  0  0  0  0
   11.1593   25.5718    0.1782 O   0  0  0  0  0  0  0  0  0  0  0  0
   15.6050   25.7515   -2.7752 C   0  0  1  0  0  0  0  0  0  0  0  0
   12.7956   24.1181    0.4102 C   0  0  1  0  0  0  0  0  0  0  0  0
   15.0512   26.9912   -2.7064 O   0  0  0  0  0  0  0  0  0  0  0  0
   13.6559   23.7407    1.3638 O   0  0  0  0  0  0  0  0  0  0  0  0
   16.3581   25.5662   -4.1385 C   0  0  1  0  0  0  0  0  0  0  0  0
   11.5113   23.2587    0.4440 C   0  0  1  0  0  0  0  0  0  0  0  0
   16.5031   26.8784   -4.8246 O   0  0  0  0  0  0  0  0  0  0  0  0
   11.3658   22.5848    1.7744 O   0  0  0  0  0  0  0  0  0  0  0  0
   17.5150   25.0581   -3.8571 C   0  0  2  0  0  0  0  0  0  0  0  0
   10.5464   24.0966    0.2767 C   0  0  2  0  0  0  0  0  0  0  0  0
   19.9500   21.0345   -6.4461 N   0  0  0  0  0  0  0  0  0  0  0  0
   20.4797   22.2695   -6.2194 C   0  0  0  0  0  0  0  0  0  0  0  0
   19.7736   23.2320   -5.5436 N   0  0  0  0  0  0  0  0  0  0  0  0
   18.5153   22.9396   -5.0949 C   0  0  0  0  0  0  0  0  0  0  0  0
   17.9782   21.7318   -5.3165 C   0  0  0  0  0  0  0  0  0  0  0  0
   18.7061   20.7564   -5.9958 C   0  0  0  0  0  0  0  0  0  0  0  0
   18.2588   19.4536   -6.2920 N   0  0  0  0  0  0  0  0  0  0  0  0
   16.7453   21.7201   -4.7669 N   0  0  0  0  0  0  0  0  0  0  0  0
   16.5246   22.9438   -4.2073 C   0  0  0  0  0  0  0  0  0  0  0  0
   17.6206   23.6910   -4.3930 N   0  0  0  0  0  0  0  0  0  0  0  0
    8.8151   20.6654   -3.2376 N   0  0  0  0  0  0  0  0  0  0  0  0
    9.6054   20.4029   -2.1639 C   0  0  0  0  0  0  0  0  0  0  0  0
    9.9801   21.4236   -1.3361 N   0  0  0  0  0  0  0  0  0  0  0  0
    9.5602   22.6940   -1.5815 C   0  0  0  0  0  0  0  0  0  0  0  0
    8.7721   22.9612   -2.6424 C   0  0  0  0  0  0  0  0  0  0  0  0
    8.3985   21.9163   -3.4826 C   0  0  0  0  0  0  0  0  0  0  0  0
    7.5869   21.9738   -4.6713 N   0  0  0  0  0  0  0  0  0  0  0  0
    8.5195   24.2921   -2.6344 N   0  0  0  0  0  0  0  0  0  0  0  0
    9.1528   24.8407   -1.5584 C   0  0  0  0  0  0  0  0  0  0  0  0
    9.7909   23.8441   -0.9122 N   0  0  0  0  0  0  0  0  0  0  0  0
  1  3  1  1  0  0  0
  1  5  2  0  0  0  0
  1  9  1  0  0  0  0
  1 18  1  0  0  0  0
  2  4  1  6  0  0  0
  2  6  2  0  0  0  0
  2 10  1  0  0  0  0
  2 17  1  0  0  0  0
  7  9  1  0  0  0  0
  8 10  1  0  0  0  0
 11  7  1  1  0  0  0
 11 13  1  0  0  0  0
 11 15  1  0  0  0  0
 12  8  1  6  0  0  0
 12 14  1  0  0  0  0
 12 16  1  0  0  0  0
 13 23  1  0  0  0  0
 14 24  1  0  0  0  0
 15 17  1  6  0  0  0
 15 19  1  0  0  0  0
 16 18  1  1  0  0  0
 16 20  1  0  0  0  0
 19 21  1  1  0  0  0
 19 23  1  0  0  0  0
 20 22  1  1  0  0  0
 20 24  1  0  0  0  0
 23 34  1  1  0  0  0
 24 44  1  6  0  0  0
 25 26  2  0  0  0  0
 25 30  1  0  0  0  0
 26 27  1  0  0  0  0
 27 28  2  0  0  0  0
 28 29  1  0  0  0  0
 28 34  1  0  0  0  0
 29 30  2  0  0  0  0
 29 32  1  0  0  0  0
 30 31  1  0  0  0  0
 32 33  2  0  0  0  0
 33 34  1  0  0  0  0
 35 36  2  0  0  0  0
 35 40  1  0  0  0  0
 36 37  1  0  0  0  0
 37 38  2  0  0  0  0
 38 39  1  0  0  0  0
 38 44  1  0  0  0  0
 39 40  2  0  0  0  0
 39 42  1  0  0  0  0
 40 41  1  0  0  0  0
 42 43  2  0  0  0  0
 43 44  1  0  0  0  0
M  CHG  2   3  -1   4  -1
M  END
>  <CHROM.1>
-106.30099691,148.73594442,14.03168257,23.91966863,-2.29360604,-2.84955047
-0.30283092,-2.48660010

>  <Name>
ligand

>  <RI>
0

>  <Rbt.Current_Directory>
/home/itssahil/PROJECTS/Mol_Feturizer/New_Systems/rnas/4QLM

>  <Rbt.Executable>
rbdock ($Id: //depot/dev/client3/rdock/2013.1/src/exe/rbdock.cxx#4 $)

>  <Rbt.Library>
libRbt.so (2013.1, Build901 2013/11/27)

>  <Rbt.Parameter_File>
/export/apps/rDock/src/rDock_2013.1_src/data/scripts/dock_solv.prm

>  <Rbt.Receptor>
prm/blind_docking_40.prm

>  <SCORE>
12.1283

>  <SCORE.INTER>
3.68951

>  <SCORE.INTER.CONST>
1

>  <SCORE.INTER.POLAR>
0

>  <SCORE.INTER.ROT>
2

>  <SCORE.INTER.SOLV>
50.6206

>  <SCORE.INTER.VDW>
-19.3472

>  <SCORE.INTER.norm>
0.0838526

>  <SCORE.INTRA>
2.24626

>  <SCORE.INTRA.DIHEDRAL>
0.134629

>  <SCORE.INTRA.DIHEDRAL.0>
2.32994

>  <SCORE.INTRA.POLAR>
0

>  <SCORE.INTRA.POLAR.0>
0

>  <SCORE.INTRA.REPUL>
0

>  <SCORE.INTRA.REPUL.0>
0

>  <SCORE.INTRA.SOLV>
0.0690207

>  <SCORE.INTRA.SOLV.lig_0>
-117.703

>  <SCORE.INTRA.VDW>
2.14444

>  <SCORE.INTRA.VDW.0>
-1.59997

>  <SCORE.INTRA.norm>
0.0510515

>  <SCORE.RESTR>
6.19253

>  <SCORE.RESTR.CAVITY>
6.19253

>  <SCORE.RESTR.norm>
0.140739

>  <SCORE.SYSTEM>
0

>  <SCORE.SYSTEM.CONST>
0

>  <SCORE.SYSTEM.DIHEDRAL>
0

>  <SCORE.SYSTEM.SOLV>
0

>  <SCORE.SYSTEM.norm>
0

>  <SCORE.heavy>
44

>  <SCORE.norm>
0.275643

>  <RMSD>
26.869

$$$$
ligand
 OpenBabel11021811513D
libRbt.so/2013.1/901 2013/11/27
 44 50  0  0  0  0  0  0  0  0999 V2000
   15.1152   23.3294    0.7434 P   0  0  2  0  0  0  0  0  0  0  0  0
   13.3906   27.2764   -2.5204 P   0  0  1  0  0  0  0  0  0  0  0  0
   16.2212   23.4450    1.7893 O   0  5  0  0  0  0  0  0  0  0  0  0
   13.2239   26.6192   -3.8689 O   0  5  0  0  0  0  0  0  0  0  0  0
   15.0663   21.8742    0.3441 O   0  0  0  0  0  0  0  0  0  0  0  0
   12.6975   28.6561   -2.5911 O   0  0  0  0  0  0  0  0  0  0  0  0
   16.3294   25.4252   -0.0148 C   0  0  0  0  0  0  0  0  0  0  0  0
   13.0017   26.5868   -0.0624 C   0  0  0  0  0  0  0  0  0  0  0  0
   15.5480   24.2900   -0.4110 O   0  0  0  0  0  0  0  0  0  0  0  0
   12.8193   26.1707   -1.4453 O   0  0  0  0  0  0  0  0  0  0  0  0
   16.7207   26.2466   -1.2386 C   0  0  1  0  0  0  0  0  0  0  0  0
   12.2851   25.4984    0.8227 C   0  0  1  0  0  0  0  0  0  0  0  0
   17.7932   25.7257   -1.7491 O   0  0  0  0  0  0  0  0  0  0  0  0
   11.1185   25.3855    0.3325 O   0  0  0  0  0  0  0  0  0  0  0  0
   15.6717   26.2319   -2.3266 C   0  0  1  0  0  0  0  0  0  0  0  0
   12.8897   24.1016    0.5767 C   0  0  1  0  0  0  0  0  0  0  0  0
   14.9821   27.3985   -2.2176 O   0  0  0  0  0  0  0  0  0  0  0  0
   13.7330   23.7553    1.5569 O   0  0  0  0  0  0  0  0  0  0  0  0
   16.5137   26.2186   -3.6499 C   0  0  1  0  0  0  0  0  0  0  0  0
   11.7076   23.1103    0.4801 C   0  0  1  0  0  0  0  0  0  0  0  0
   16.5508   27.5813   -4.2457 O   0  0  0  0  0  0  0  0  0  0  0  0
   11.5649   22.3380    1.7561 O   0  0  0  0  0  0  0  0  0  0  0  0
   17.7024   25.8186   -3.3291 C   0  0  2  0  0  0  0  0  0  0  0  0
   10.6671   23.8502    0.3045 C   0  0  2  0  0  0  0  0  0  0  0  0
   16.3886   21.1211   -5.5714 N   0  0  0  0  0  0  0  0  0  0  0  0
   15.5112   22.0861   -5.1765 C   0  0  0  0  0  0  0  0  0  0  0  0
   15.9498   23.2571   -4.6127 N   0  0  0  0  0  0  0  0  0  0  0  0
   17.2932   23.4505   -4.4451 C   0  0  0  0  0  0  0  0  0  0  0  0
   18.1680   22.5075   -4.8219 C   0  0  0  0  0  0  0  0  0  0  0  0
   17.7143   21.3245   -5.4027 C   0  0  0  0  0  0  0  0  0  0  0  0
   18.5259   20.2592   -5.8405 N   0  0  0  0  0  0  0  0  0  0  0  0
   19.4093   22.9611   -4.5470 N   0  0  0  0  0  0  0  0  0  0  0  0
   19.2886   24.1982   -3.9865 C   0  0  0  0  0  0  0  0  0  0  0  0
   17.9866   24.5091   -3.9387 N   0  0  0  0  0  0  0  0  0  0  0  0
   10.3438   21.0113   -4.0493 N   0  0  0  0  0  0  0  0  0  0  0  0
   11.2480   20.8632   -3.0459 C   0  0  0  0  0  0  0  0  0  0  0  0
   11.2019   21.7006   -1.9670 N   0  0  0  0  0  0  0  0  0  0  0  0
   10.2533   22.6730   -1.8945 C   0  0  0  0  0  0  0  0  0  0  0  0
    9.3500   22.8228   -2.8843 C   0  0  0  0  0  0  0  0  0  0  0  0
    9.4067   21.9681   -3.9814 C   0  0  0  0  0  0  0  0  0  0  0  0
    8.5641   21.9588   -5.1496 N   0  0  0  0  0  0  0  0  0  0  0  0
    8.5443   23.8573   -2.5441 N   0  0  0  0  0  0  0  0  0  0  0  0
    8.9545   24.3391   -1.3361 C   0  0  0  0  0  0  0  0  0  0  0  0
   10.0097   23.5983   -0.9415 N   0  0  0  0  0  0  0  0  0  0  0  0
  1  3  1  1  0  0  0
  1  5  2  0  0  0  0
  1  9  1  0  0  0  0
  1 18  1  0  0  0  0
  2  4  1  6  0  0  0
  2  6  2  0  0  0  0
  2 10  1  0  0  0  0
  2 17  1  0  0  0  0
  7  9  1  0  0  0  0
  8 10  1  0  0  0  0
 11  7  1  1  0  0  0
 11 13  1  0  0  0  0
 11 15  1  0  0  0  0
 12  8  1  6  0  0  0
 12 14  1  0  0  0  0
 12 16  1  0  0  0  0
 13 23  1  0  0  0  0
 14 24  1  0  0  0  0
 15 17  1  6  0  0  0
 15 19  1  0  0  0  0
 16 18  1  1  0  0  0
 16 20  1  0  0  0  0
 19 21  1  1  0  0  0
 19 23  1  0  0  0  0
 20 22  1  1  0  0  0
 20 24  1  0  0  0  0
 23 34  1  6  0  0  0
 24 44  1  6  0  0  0
 25 26  2  0  0  0  0
 25 30  1  0  0  0  0
 26 27  1  0  0  0  0
 27 28  2  0  0  0  0
 28 29  1  0  0  0  0
 28 34  1  0  0  0  0
 29 30  2  0  0  0  0
 29 32  1  0  0  0  0
 30 31  1  0  0  0  0
 32 33  2  0  0  0  0
 33 34  1  0  0  0  0
 35 36  2  0  0  0  0
 35 40  1  0  0  0  0
 36 37  1  0  0  0  0
 37 38  2  0  0  0  0
 38 39  1  0  0  0  0
 38 44  1  0  0  0  0
 39 40  2  0  0  0  0
 39 42  1  0  0  0  0
 40 41  1  0  0  0  0
 42 43  2  0  0  0  0
 43 44  1  0  0  0  0
M  CHG  2   3  -1   4  -1
M  END
>  <CHROM.1>
98.58280326,125.12733020,14.05982805,24.17451187,-2.05715013,-2.94383611
-0.28850508,-2.34527402

>  <Name>
ligand

>  <RI>
0

>  <Rbt.Current_Directory>
/home/itssahil/PROJECTS/Mol_Feturizer/New_Systems/rnas/4QLM

>  <Rbt.Executable>
rbdock ($Id: //depot/dev/client3/rdock/2013.1/src/exe/rbdock.cxx#4 $)

>  <Rbt.Library>
libRbt.so (2013.1, Build901 2013/11/27)

>  <Rbt.Parameter_File>
/export/apps/rDock/src/rDock_2013.1_src/data/scripts/dock_solv.prm

>  <Rbt.Receptor>
prm/blind_docking_60.prm

>  <SCORE>
32.1316

>  <SCORE.INTER>
25.6861

>  <SCORE.INTER.CONST>
1

>  <SCORE.INTER.POLAR>
0

>  <SCORE.INTER.ROT>
2

>  <SCORE.INTER.SOLV>
50.9986

>  <SCORE.INTER.VDW>
-4.80878

>  <SCORE.INTER.norm>
0.583775

>  <SCORE.INTRA>
0.161319

>  <SCORE.INTRA.DIHEDRAL>
-0.0226627

>  <SCORE.INTRA.DIHEDRAL.0>
2.32994

>  <SCORE.INTRA.POLAR>
0

>  <SCORE.INTRA.POLAR.0>
0

>  <SCORE.INTRA.REPUL>
0

>  <SCORE.INTRA.REPUL.0>
0

>  <SCORE.INTRA.SOLV>
0.0477978

>  <SCORE.INTRA.SOLV.lig_0>
-117.703

>  <SCORE.INTRA.VDW>
0.148751

>  <SCORE.INTRA.VDW.0>
-1.59997

>  <SCORE.INTRA.norm>
0.00366634

>  <SCORE.RESTR>
6.28412

>  <SCORE.RESTR.CAVITY>
6.28412

>  <SCORE.RESTR.norm>
0.142821

>  <SCORE.SYSTEM>
0

>  <SCORE.SYSTEM.CONST>
0

>  <SCORE.SYSTEM.DIHEDRAL>
0

>  <SCORE.SYSTEM.SOLV>
0

>  <SCORE.SYSTEM.norm>
0

>  <SCORE.heavy>
44

>  <SCORE.norm>
0.730263

>  <RMSD>
26.903

$$$$
ligand
 OpenBabel11021811513D
libRbt.so/2013.1/901 2013/11/27
 44 50  0  0  0  0  0  0  0  0999 V2000
   15.1136   23.3307    0.7461 P   0  0  2  0  0  0  0  0  0  0  0  0
   13.3897   27.2722   -2.5248 P   0  0  1  0  0  0  0  0  0  0  0  0
   16.2190   23.4481    1.7923 O   0  5  0  0  0  0  0  0  0  0  0  0
   13.2238   26.6128   -3.8723 O   0  5  0  0  0  0  0  0  0  0  0  0
   15.0651   21.8749    0.3490 O   0  0  0  0  0  0  0  0  0  0  0  0
   12.6963   28.6516   -2.5980 O   0  0  0  0  0  0  0  0  0  0  0  0
   16.3277   25.4255   -0.0149 C   0  0  0  0  0  0  0  0  0  0  0  0
   12.9999   26.5864   -0.0659 C   0  0  0  0  0  0  0  0  0  0  0  0
   15.5467   24.2895   -0.4097 O   0  0  0  0  0  0  0  0  0  0  0  0
   12.8182   26.1680   -1.4482 O   0  0  0  0  0  0  0  0  0  0  0  0
   16.7194   26.2450   -1.2398 C   0  0  1  0  0  0  0  0  0  0  0  0
   12.2830   25.4993    0.8206 C   0  0  1  0  0  0  0  0  0  0  0  0
   17.7923   25.7235   -1.7490 O   0  0  0  0  0  0  0  0  0  0  0  0
   11.1167   25.3853    0.3300 O   0  0  0  0  0  0  0  0  0  0  0  0
   15.6710   26.2284   -2.3283 C   0  0  1  0  0  0  0  0  0  0  0  0
   12.8880   24.1022    0.5771 C   0  0  1  0  0  0  0  0  0  0  0  0
   14.9810   27.3950   -2.2215 O   0  0  0  0  0  0  0  0  0  0  0  0
   13.7309   23.7576    1.5582 O   0  0  0  0  0  0  0  0  0  0  0  0
   16.5136   26.2131   -3.6511 C   0  0  1  0  0  0  0  0  0  0  0  0
   11.7061   23.1105    0.4814 C   0  0  1  0  0  0  0  0  0  0  0  0
   16.5506   27.5749   -4.2491 O   0  0  0  0  0  0  0  0  0  0  0  0
   11.5630   22.3402    1.7587 O   0  0  0  0  0  0  0  0  0  0  0  0
   17.7022   25.8140   -3.3292 C   0  0  2  0  0  0  0  0  0  0  0  0
   10.6655   23.8499    0.3042 C   0  0  2  0  0  0  0  0  0  0  0  0
   16.3903   21.1124   -5.5644 N   0  0  0  0  0  0  0  0  0  0  0  0
   15.5125   22.0779   -5.1713 C   0  0  0  0  0  0  0  0  0  0  0  0
   15.9507   23.2499   -4.6092 N   0  0  0  0  0  0  0  0  0  0  0  0
   17.2940   23.4439   -4.4415 C   0  0  0  0  0  0  0  0  0  0  0  0
   18.1691   22.5006   -4.8165 C   0  0  0  0  0  0  0  0  0  0  0  0
   17.7160   21.3164   -5.3955 C   0  0  0  0  0  0  0  0  0  0  0  0
   18.5279   20.2507   -5.8313 N   0  0  0  0  0  0  0  0  0  0  0  0
   19.4102   22.9549   -4.5419 N   0  0  0  0  0  0  0  0  0  0  0  0
   19.2890   24.1929   -3.9834 C   0  0  0  0  0  0  0  0  0  0  0  0
   17.9869   24.5035   -3.9365 N   0  0  0  0  0  0  0  0  0  0  0  0
   10.3465   21.0056   -4.0464 N   0  0  0  0  0  0  0  0  0  0  0  0
   11.2506   20.8597   -3.0426 C   0  0  0  0  0  0  0  0  0  0  0  0
   11.2032   21.6982   -1.9647 N   0  0  0  0  0  0  0  0  0  0  0  0
   10.2537   22.6697   -1.8935 C   0  0  0  0  0  0  0  0  0  0  0  0
    9.3505   22.8175   -2.8838 C   0  0  0  0  0  0  0  0  0  0  0  0
    9.4084   21.9616   -3.9799 C   0  0  0  0  0  0  0  0  0  0  0  0
    8.5661   21.9500   -5.1484 N   0  0  0  0  0  0  0  0  0  0  0  0
    8.5436   23.8515   -2.5451 N   0  0  0  0  0  0  0  0  0  0  0  0
    8.9529   24.3352   -1.3374 C   0  0  0  0  0  0  0  0  0  0  0  0
   10.0088   23.5959   -0.9417 N   0  0  0  0  0  0  0  0  0  0  0  0
  1  3  1  1  0  0  0
  1  5  2  0  0  0  0
  1  9  1  0  0  0  0
  1 18  1  0  0  0  0
  2  4  1  6  0  0  0
  2  6  2  0  0  0  0
  2 10  1  0  0  0  0
  2 17  1  0  0  0  0
  7  9  1  0  0  0  0
  8 10  1  0  0  0  0
 11  7  1  1  0  0  0
 11 13  1  0  0  0  0
 11 15  1  0  0  0  0
 12  8  1  6  0  0  0
 12 14  1  0  0  0  0
 12 16  1  0  0  0  0
 13 23  1  0  0  0  0
 14 24  1  0  0  0  0
 15 17  1  6  0  0  0
 15 19  1  0  0  0  0
 16 18  1  1  0  0  0
 16 20  1  0  0  0  0
 19 21  1  1  0  0  0
 19 23  1  0  0  0  0
 20 22  1  1  0  0  0
 20 24  1  0  0  0  0
 23 34  1  6  0  0  0
 24 44  1  6  0  0  0
 25 26  2  0  0  0  0
 25 30  1  0  0  0  0
 26 27  1  0  0  0  0
 27 28  2  0  0  0  0
 28 29  1  0  0  0  0
 28 34  1  0  0  0  0
 29 30  2  0  0  0  0
 29 32  1  0  0  0  0
 30 31  1  0  0  0  0
 32 33  2  0  0  0  0
 33 34  1  0  0  0  0
 35 36  2  0  0  0  0
 35 40  1  0  0  0  0
 36 37  1  0  0  0  0
 37 38  2  0  0  0  0
 38 39  1  0  0  0  0
 38 44  1  0  0  0  0
 39 40  2  0  0  0  0
 39 42  1  0  0  0  0
 40 41  1  0  0  0  0
 42 43  2  0  0  0  0
 43 44  1  0  0  0  0
M  CHG  2   3  -1   4  -1
M  END
>  <CHROM.1>
98.57408269,125.07335016,14.05946444,24.17125160,-2.05640546,-2.94412223
-0.28821754,-2.34680414

>  <Name>
ligand

>  <RI>
0

>  <Rbt.Current_Directory>
/home/itssahil/PROJECTS/Mol_Feturizer/New_Systems/rnas/4QLM

>  <Rbt.Executable>
rbdock ($Id: //depot/dev/client3/rdock/2013.1/src/exe/rbdock.cxx#4 $)

>  <Rbt.Library>
libRbt.so (2013.1, Build901 2013/11/27)

>  <Rbt.Parameter_File>
/export/apps/rDock/src/rDock_2013.1_src/data/scripts/dock_solv.prm

>  <Rbt.Receptor>
prm/blind_docking_60.prm

>  <SCORE>
32.2595

>  <SCORE.INTER>
25.8447

>  <SCORE.INTER.CONST>
1

>  <SCORE.INTER.POLAR>
0

>  <SCORE.INTER.ROT>
2

>  <SCORE.INTER.SOLV>
51.0703

>  <SCORE.INTER.VDW>
-4.727

>  <SCORE.INTER.norm>
0.587379

>  <SCORE.INTRA>
0.160994

>  <SCORE.INTRA.DIHEDRAL>
-0.0226575

>  <SCORE.INTRA.DIHEDRAL.0>
2.32994

>  <SCORE.INTRA.POLAR>
0

>  <SCORE.INTRA.POLAR.0>
0

>  <SCORE.INTRA.REPUL>
0

>  <SCORE.INTRA.REPUL.0>
0

>  <SCORE.INTRA.SOLV>
0.0477019

>  <SCORE.INTRA.SOLV.lig_0>
-117.703

>  <SCORE.INTRA.VDW>
0.148471

>  <SCORE.INTRA.VDW.0>
-1.59997

>  <SCORE.INTRA.norm>
0.00365894

>  <SCORE.RESTR>
6.25385

>  <SCORE.RESTR.CAVITY>
6.25385

>  <SCORE.RESTR.norm>
0.142133

>  <SCORE.SYSTEM>
0

>  <SCORE.SYSTEM.CONST>
0

>  <SCORE.SYSTEM.DIHEDRAL>
0

>  <SCORE.SYSTEM.SOLV>
0

>  <SCORE.SYSTEM.norm>
0

>  <SCORE.heavy>
44

>  <SCORE.norm>
0.733171

>  <RMSD>
26.904

$$$$
ligand
 OpenBabel11021811513D
libRbt.so/2013.1/901 2013/11/27
 44 50  0  0  0  0  0  0  0  0999 V2000
   15.0009   23.2805    0.7040 P   0  0  2  0  0  0  0  0  0  0  0  0
   13.2399   27.0628   -2.7309 P   0  0  1  0  0  0  0  0  0  0  0  0
   16.0322   23.4803    1.8117 O   0  5  0  0  0  0  0  0  0  0  0  0
   13.1959   26.3762   -4.0742 O   0  5  0  0  0  0  0  0  0  0  0  0
   15.0653   21.8192    0.3300 O   0  0  0  0  0  0  0  0  0  0  0  0
   12.4694   28.3957   -2.8689 O   0  0  0  0  0  0  0  0  0  0  0  0
   16.1287   25.4358   -0.0198 C   0  0  0  0  0  0  0  0  0  0  0  0
   12.7454   26.3878   -0.2879 C   0  0  0  0  0  0  0  0  0  0  0  0
   15.4435   24.2485   -0.4405 O   0  0  0  0  0  0  0  0  0  0  0  0
   12.6730   25.9402   -1.6711 O   0  0  0  0  0  0  0  0  0  0  0  0
   16.5427   26.2613   -1.2334 C   0  0  1  0  0  0  0  0  0  0  0  0
   12.0441   25.2706    0.5733 C   0  0  1  0  0  0  0  0  0  0  0  0
   17.6741   25.8003   -1.6691 O   0  0  0  0  0  0  0  0  0  0  0  0
   10.9185   25.0781    0.0166 O   0  0  0  0  0  0  0  0  0  0  0  0
   15.5646   26.1650   -2.3816 C   0  0  1  0  0  0  0  0  0  0  0  0
   12.7466   23.9105    0.3902 C   0  0  1  0  0  0  0  0  0  0  0  0
   14.7997   27.2880   -2.3360 O   0  0  0  0  0  0  0  0  0  0  0  0
   13.5484   23.6321    1.4253 O   0  0  0  0  0  0  0  0  0  0  0  0
   16.4846   26.1839   -3.6518 C   0  0  1  0  0  0  0  0  0  0  0  0
   11.6353   22.8463    0.2420 C   0  0  1  0  0  0  0  0  0  0  0  0
   16.4745   27.5371   -4.2700 O   0  0  0  0  0  0  0  0  0  0  0  0
   11.4628   22.0861    1.5216 O   0  0  0  0  0  0  0  0  0  0  0  0
   17.6738   25.8634   -3.2532 C   0  0  2  0  0  0  0  0  0  0  0  0
   10.5641   23.5175   -0.0093 C   0  0  2  0  0  0  0  0  0  0  0  0
   16.7931   21.0928   -5.5525 N   0  0  0  0  0  0  0  0  0  0  0  0
   15.8387   22.0172   -5.2494 C   0  0  0  0  0  0  0  0  0  0  0  0
   16.1684   23.2118   -4.6613 N   0  0  0  0  0  0  0  0  0  0  0  0
   17.4803   23.4708   -4.3750 C   0  0  0  0  0  0  0  0  0  0  0  0
   18.4294   22.5684   -4.6607 C   0  0  0  0  0  0  0  0  0  0  0  0
   18.0869   21.3610   -5.2668 C   0  0  0  0  0  0  0  0  0  0  0  0
   18.9844   20.3331   -5.6175 N   0  0  0  0  0  0  0  0  0  0  0  0
   19.6177   23.0832   -4.2797 N   0  0  0  0  0  0  0  0  0  0  0  0
   19.3881   24.3168   -3.7463 C   0  0  0  0  0  0  0  0  0  0  0  0
   18.0739   24.5650   -3.8199 N   0  0  0  0  0  0  0  0  0  0  0  0
   11.2538   21.7089   -4.8439 N   0  0  0  0  0  0  0  0  0  0  0  0
   12.2030   21.8406   -3.8806 C   0  0  0  0  0  0  0  0  0  0  0  0
   11.8579   22.3422   -2.6573 N   0  0  0  0  0  0  0  0  0  0  0  0
   10.5711   22.7025   -2.4027 C   0  0  0  0  0  0  0  0  0  0  0  0
    9.6230   22.5704   -3.3524 C   0  0  0  0  0  0  0  0  0  0  0  0
    9.9840   22.0623   -4.5968 C   0  0  0  0  0  0  0  0  0  0  0  0
    9.1492   21.8552   -5.7524 N   0  0  0  0  0  0  0  0  0  0  0  0
    8.4549   23.0052   -2.8217 N   0  0  0  0  0  0  0  0  0  0  0  0
    8.6896   23.4003   -1.5377 C   0  0  0  0  0  0  0  0  0  0  0  0
   10.0003   23.2064   -1.2873 N   0  0  0  0  0  0  0  0  0  0  0  0
  1  3  1  1  0  0  0
  1  5  2  0  0  0  0
  1  9  1  0  0  0  0
  1 18  1  0  0  0  0
  2  4  1  6  0  0  0
  2  6  2  0  0  0  0
  2 10  1  0  0  0  0
  2 17  1  0  0  0  0
  7  9  1  0  0  0  0
  8 10  1  0  0  0  0
 11  7  1  1  0  0  0
 11 13  1  0  0  0  0
 11 15  1  0  0  0  0
 12  8  1  6  0  0  0
 12 14  1  0  0  0  0
 12 16  1  0  0  0  0
 13 23  1  0  0  0  0
 14 24  1  0  0  0  0
 15 17  1  6  0  0  0
 15 19  1  0  0  0  0
 16 18  1  1  0  0  0
 16 20  1  0  0  0  0
 19 21  1  1  0  0  0
 19 23  1  0  0  0  0
 20 22  1  1  0  0  0
 20 24  1  0  0  0  0
 23 34  1  6  0  0  0
 24 44  1  6  0  0  0
 25 26  2  0  0  0  0
 25 30  1  0  0  0  0
 26 27  1  0  0  0  0
 27 28  2  0  0  0  0
 28 29  1  0  0  0  0
 28 34  1  0  0  0  0
 29 30  2  0  0  0  0
 29 32  1  0  0  0  0
 30 31  1  0  0  0  0
 32 33  2  0  0  0  0
 33 34  1  0  0  0  0
 35 36  2  0  0  0  0
 35 40  1  0  0  0  0
 36 37  1  0  0  0  0
 37 38  2  0  0  0  0
 38 39  1  0  0  0  0
 38 44  1  0  0  0  0
 39 40  2  0  0  0  0
 39 42  1  0  0  0  0
 40 41  1  0  0  0  0
 42 43  2  0  0  0  0
 43 44  1  0  0  0  0
M  CHG  2   3  -1   4  -1
M  END
>  <CHROM.1>
100.55782236,96.30460467,14.11244926,24.10308930,-2.21514941,-2.91779319
-0.23185791,-2.20761367

>  <Name>
ligand

>  <RI>
0

>  <Rbt.Current_Directory>
/home/itssahil/PROJECTS/Mol_Feturizer/New_Systems/rnas/4QLM

>  <Rbt.Executable>
rbdock ($Id: //depot/dev/client3/rdock/2013.1/src/exe/rbdock.cxx#4 $)

>  <Rbt.Library>
libRbt.so (2013.1, Build901 2013/11/27)

>  <Rbt.Parameter_File>
/export/apps/rDock/src/rDock_2013.1_src/data/scripts/dock_solv.prm

>  <Rbt.Receptor>
prm/blind_docking_60.prm

>  <SCORE>
33.6498

>  <SCORE.INTER>
29.0903

>  <SCORE.INTER.CONST>
1

>  <SCORE.INTER.POLAR>
0

>  <SCORE.INTER.ROT>
2

>  <SCORE.INTER.SOLV>
54.8837

>  <SCORE.INTER.VDW>
-3.83434

>  <SCORE.INTER.norm>
0.661144

>  <SCORE.INTRA>
-0.624587

>  <SCORE.INTRA.DIHEDRAL>
-0.00356031

>  <SCORE.INTRA.DIHEDRAL.0>
2.32994

>  <SCORE.INTRA.POLAR>
0

>  <SCORE.INTRA.POLAR.0>
0

>  <SCORE.INTRA.REPUL>
0

>  <SCORE.INTRA.REPUL.0>
0

>  <SCORE.INTRA.SOLV>
0.0288292

>  <SCORE.INTRA.SOLV.lig_0>
-117.703

>  <SCORE.INTRA.VDW>
-0.637222

>  <SCORE.INTRA.VDW.0>
-1.59997

>  <SCORE.INTRA.norm>
-0.0141952

>  <SCORE.RESTR>
5.18406

>  <SCORE.RESTR.CAVITY>
5.18406

>  <SCORE.RESTR.norm>
0.11782

>  <SCORE.SYSTEM>
0

>  <SCORE.SYSTEM.CONST>
0

>  <SCORE.SYSTEM.DIHEDRAL>
0

>  <SCORE.SYSTEM.SOLV>
0

>  <SCORE.SYSTEM.norm>
0

>  <SCORE.heavy>
44

>  <SCORE.norm>
0.764769

>  <RMSD>
26.906

$$$$
ligand
 OpenBabel11021811513D
libRbt.so/2013.1/901 2013/11/27
 44 50  0  0  0  0  0  0  0  0999 V2000
   12.5404   26.6045   -3.5117 P   0  0  2  0  0  0  0  0  0  0  0  0
   11.2983   21.9033   -1.1535 P   0  0  1  0  0  0  0  0  0  0  0  0
   12.6817   26.8496   -5.0118 O   0  5  0  0  0  0  0  0  0  0  0  0
   12.2275   21.8068    0.0319 O   0  5  0  0  0  0  0  0  0  0  0  0
   13.4015   27.6433   -2.8343 O   0  0  0  0  0  0  0  0  0  0  0  0
   10.2143   20.8154   -0.9793 O   0  0  0  0  0  0  0  0  0  0  0  0
   12.8266   24.2438   -4.3983 C   0  0  0  0  0  0  0  0  0  0  0  0
   10.0000   23.7934   -2.3410 C   0  0  0  0  0  0  0  0  0  0  0  0
   13.0282   25.1358   -3.2938 O   0  0  0  0  0  0  0  0  0  0  0  0
   10.8251   23.4781   -1.1841 O   0  0  0  0  0  0  0  0  0  0  0  0
   13.3883   22.8648   -4.0691 C   0  0  1  0  0  0  0  0  0  0  0  0
    9.5219   25.2819   -2.1479 C   0  0  1  0  0  0  0  0  0  0  0  0
   14.6560   22.8685   -4.3437 O   0  0  0  0  0  0  0  0  0  0  0  0
    9.0324   25.3254   -0.9764 O   0  0  0  0  0  0  0  0  0  0  0  0
   13.2629   22.5035   -2.6068 C   0  0  1  0  0  0  0  0  0  0  0  0
   10.7261   26.2392   -2.0447 C   0  0  1  0  0  0  0  0  0  0  0  0
   12.1818   21.6862   -2.4996 O   0  0  0  0  0  0  0  0  0  0  0  0
   10.9355   26.8861   -3.1978 O   0  0  0  0  0  0  0  0  0  0  0  0
   14.5803   21.7057   -2.3102 C   0  0  1  0  0  0  0  0  0  0  0  0
   10.4180   27.2278   -0.8971 C   0  0  1  0  0  0  0  0  0  0  0  0
   14.2998   20.2447   -2.2920 O   0  0  0  0  0  0  0  0  0  0  0  0
    9.9776   28.5500   -1.4476 O   0  0  0  0  0  0  0  0  0  0  0  0
   15.4164   22.0072   -3.2513 C   0  0  2  0  0  0  0  0  0  0  0  0
    9.4472   26.6869   -0.2443 C   0  0  2  0  0  0  0  0  0  0  0  0
   18.0135   26.4504   -1.7235 N   0  0  0  0  0  0  0  0  0  0  0  0
   16.7427   26.4014   -2.2133 C   0  0  0  0  0  0  0  0  0  0  0  0
   16.1666   25.2105   -2.5756 N   0  0  0  0  0  0  0  0  0  0  0  0
   16.8883   24.0565   -2.4423 C   0  0  0  0  0  0  0  0  0  0  0  0
   18.1418   24.0896   -1.9689 C   0  0  0  0  0  0  0  0  0  0  0  0
   18.7163   25.3029   -1.5941 C   0  0  0  0  0  0  0  0  0  0  0  0
   20.0187   25.4737   -1.0845 N   0  0  0  0  0  0  0  0  0  0  0  0
   18.6068   22.8226   -1.9402 N   0  0  0  0  0  0  0  0  0  0  0  0
   17.6227   22.0045   -2.4109 C   0  0  0  0  0  0  0  0  0  0  0  0
   16.5568   22.7607   -2.7045 N   0  0  0  0  0  0  0  0  0  0  0  0
   12.2953   23.8735    3.0864 N   0  0  0  0  0  0  0  0  0  0  0  0
   12.3105   23.7906    1.7302 C   0  0  0  0  0  0  0  0  0  0  0  0
   11.4909   24.6005    0.9954 N   0  0  0  0  0  0  0  0  0  0  0  0
   10.6687   25.4883    1.6169 C   0  0  0  0  0  0  0  0  0  0  0  0
   10.6516   25.5792    2.9621 C   0  0  0  0  0  0  0  0  0  0  0  0
   11.4868   24.7479    3.7028 C   0  0  0  0  0  0  0  0  0  0  0  0
   11.6179   24.6617    5.1348 N   0  0  0  0  0  0  0  0  0  0  0  0
    9.7475   26.5325    3.2922 N   0  0  0  0  0  0  0  0  0  0  0  0
    9.2127   27.0311    2.1411 C   0  0  0  0  0  0  0  0  0  0  0  0
    9.7909   26.3812    1.1109 N   0  0  0  0  0  0  0  0  0  0  0  0
  1  3  1  6  0  0  0
  1  5  2  0  0  0  0
  1  9  1  0  0  0  0
  1 18  1  0  0  0  0
  2  4  1  1  0  0  0
  2  6  2  0  0  0  0
  2 10  1  0  0  0  0
  2 17  1  0  0  0  0
  7  9  1  0  0  0  0
  8 10  1  0  0  0  0
 11  7  1  1  0  0  0
 11 13  1  0  0  0  0
 11 15  1  0  0  0  0
 12  8  1  1  0  0  0
 12 14  1  0  0  0  0
 12 16  1  0  0  0  0
 13 23  1  0  0  0  0
 14 24  1  0  0  0  0
 15 17  1  6  0  0  0
 15 19  1  0  0  0  0
 16 18  1  6  0  0  0
 16 20  1  0  0  0  0
 19 21  1  6  0  0  0
 19 23  1  0  0  0  0
 20 22  1  6  0  0  0
 20 24  1  0  0  0  0
 23 34  1  1  0  0  0
 24 44  1  1  0  0  0
 25 26  2  0  0  0  0
 25 30  1  0  0  0  0
 26 27  1  0  0  0  0
 27 28  2  0  0  0  0
 28 29  1  0  0  0  0
 28 34  1  0  0  0  0
 29 30  2  0  0  0  0
 29 32  1  0  0  0  0
 30 31  1  0  0  0  0
 32 33  2  0  0  0  0
 33 34  1  0  0  0  0
 35 36  2  0  0  0  0
 35 40  1  0  0  0  0
 36 37  1  0  0  0  0
 37 38  2  0  0  0  0
 38 39  1  0  0  0  0
 38 44  1  0  0  0  0
 39 40  2  0  0  0  0
 39 42  1  0  0  0  0
 40 41  1  0  0  0  0
 42 43  2  0  0  0  0
 43 44  1  0  0  0  0
M  CHG  2   3  -1   4  -1
M  END
>  <CHROM.1>
32.11191990,53.60775139,12.91256840,24.50509263,-1.31146584,0.24118222,0.48192874
-0.95794776

>  <Name>
ligand

>  <RI>
0

>  <Rbt.Current_Directory>
/home/itssahil/PROJECTS/Mol_Feturizer/New_Systems/rnas/4QLM

>  <Rbt.Executable>
rbdock ($Id: //depot/dev/client3/rdock/2013.1/src/exe/rbdock.cxx#4 $)

>  <Rbt.Library>
libRbt.so (2013.1, Build901 2013/11/27)

>  <Rbt.Parameter_File>
/export/apps/rDock/src/rDock_2013.1_src/data/scripts/dock_solv.prm

>  <Rbt.Receptor>
prm/blind_docking_80.prm

>  <SCORE>
170.83

>  <SCORE.INTER>
165.179

>  <SCORE.INTER.CONST>
1

>  <SCORE.INTER.POLAR>
0

>  <SCORE.INTER.ROT>
2

>  <SCORE.INTER.SOLV>
52.2943

>  <SCORE.INTER.VDW>
87.7543

>  <SCORE.INTER.norm>
3.75406

>  <SCORE.INTRA>
-0.875429

>  <SCORE.INTRA.DIHEDRAL>
0.169004

>  <SCORE.INTRA.DIHEDRAL.0>
2.32994

>  <SCORE.INTRA.POLAR>
0

>  <SCORE.INTRA.POLAR.0>
0

>  <SCORE.INTRA.REPUL>
0

>  <SCORE.INTRA.REPUL.0>
0

>  <SCORE.INTRA.SOLV>
1.59392

>  <SCORE.INTRA.SOLV.lig_0>
-117.703

>  <SCORE.INTRA.VDW>
-1.75689

>  <SCORE.INTRA.VDW.0>
-1.59997

>  <SCORE.INTRA.norm>
-0.0198961

>  <SCORE.RESTR>
6.52685

>  <SCORE.RESTR.CAVITY>
6.52685

>  <SCORE.RESTR.norm>
0.148337

>  <SCORE.SYSTEM>
0

>  <SCORE.SYSTEM.CONST>
0

>  <SCORE.SYSTEM.DIHEDRAL>
0

>  <SCORE.SYSTEM.SOLV>
0

>  <SCORE.SYSTEM.norm>
0

>  <SCORE.heavy>
44

>  <SCORE.norm>
3.8825

>  <RMSD>
26.907

$$$$
ligand
 OpenBabel11021811513D
libRbt.so/2013.1/901 2013/11/27
 44 50  0  0  0  0  0  0  0  0999 V2000
   13.4197   27.4791   -2.3173 P   0  0  2  0  0  0  0  0  0  0  0  0
   15.3171   23.0870    0.1956 P   0  0  1  0  0  0  0  0  0  0  0  0
   12.7170   28.6618   -1.6556 O   0  5  0  0  0  0  0  0  0  0  0  0
   14.9165   21.9312   -0.6886 O   0  5  0  0  0  0  0  0  0  0  0  0
   12.9238   27.4410   -3.7429 O   0  0  0  0  0  0  0  0  0  0  0  0
   16.3463   22.5513    1.2167 O   0  0  0  0  0  0  0  0  0  0  0  0
   12.7323   26.4904   -0.0832 C   0  0  0  0  0  0  0  0  0  0  0  0
   16.1179   25.5136   -0.1766 C   0  0  0  0  0  0  0  0  0  0  0  0
   13.0045   26.2347   -1.4677 O   0  0  0  0  0  0  0  0  0  0  0  0
   15.7948   24.2639   -0.8492 O   0  0  0  0  0  0  0  0  0  0  0  0
   12.2953   25.2056    0.6122 C   0  0  1  0  0  0  0  0  0  0  0  0
   16.6838   26.4773   -1.2868 C   0  0  1  0  0  0  0  0  0  0  0  0
   11.0211   25.0559    0.4215 O   0  0  0  0  0  0  0  0  0  0  0  0
   17.5899   25.8103   -1.8768 O   0  0  0  0  0  0  0  0  0  0  0  0
   12.9647   23.9696    0.0566 C   0  0  1  0  0  0  0  0  0  0  0  0
   15.6469   26.6988   -2.4060 C   0  0  1  0  0  0  0  0  0  0  0  0
   13.9745   23.6568    0.9114 O   0  0  0  0  0  0  0  0  0  0  0  0
   15.0295   27.8791   -2.2728 O   0  0  0  0  0  0  0  0  0  0  0  0
   11.8385   22.8798    0.1220 C   0  0  1  0  0  0  0  0  0  0  0  0
   16.4087   26.6148   -3.7483 C   0  0  1  0  0  0  0  0  0  0  0  0
   12.0542   21.9919    1.2961 O   0  0  0  0  0  0  0  0  0  0  0  0
   16.6463   27.9861   -4.3035 O   0  0  0  0  0  0  0  0  0  0  0  0
   10.7140   23.5138    0.2186 C   0  0  2  0  0  0  0  0  0  0  0  0
   17.5374   26.0658   -3.4559 C   0  0  2  0  0  0  0  0  0  0  0  0
    8.4191   20.5706   -3.6404 N   0  0  0  0  0  0  0  0  0  0  0  0
    9.1605   20.0848   -2.6052 C   0  0  0  0  0  0  0  0  0  0  0  0
    9.7049   20.9237   -1.6665 N   0  0  0  0  0  0  0  0  0  0  0  0
    9.4975   22.2707   -1.7802 C   0  0  0  0  0  0  0  0  0  0  0  0
    8.7767   22.7639   -2.7969 C   0  0  0  0  0  0  0  0  0  0  0  0
    8.2190   21.9037   -3.7412 C   0  0  0  0  0  0  0  0  0  0  0  0
    7.4444   22.2926   -4.8519 N   0  0  0  0  0  0  0  0  0  0  0  0
    8.7310   24.1060   -2.6587 N   0  0  0  0  0  0  0  0  0  0  0  0
    9.4420   24.4367   -1.5432 C   0  0  0  0  0  0  0  0  0  0  0  0
    9.9006   23.3060   -0.9907 N   0  0  0  0  0  0  0  0  0  0  0  0
   18.5980   20.9787   -3.1138 N   0  0  0  0  0  0  0  0  0  0  0  0
   18.5191   21.8649   -2.0868 C   0  0  0  0  0  0  0  0  0  0  0  0
   18.2366   23.1763   -2.3474 N   0  0  0  0  0  0  0  0  0  0  0  0
   18.0299   23.5917   -3.6261 C   0  0  0  0  0  0  0  0  0  0  0  0
   18.1021   22.7170   -4.6498 C   0  0  0  0  0  0  0  0  0  0  0  0
   18.3943   21.3840   -4.3758 C   0  0  0  0  0  0  0  0  0  0  0  0
   18.5381   20.2928   -5.3052 N   0  0  0  0  0  0  0  0  0  0  0  0
   17.8578   23.4066   -5.7898 N   0  0  0  0  0  0  0  0  0  0  0  0
   17.6294   24.7100   -5.4602 C   0  0  0  0  0  0  0  0  0  0  0  0
   17.7350   24.8135   -4.1199 N   0  0  0  0  0  0  0  0  0  0  0  0
  1  3  1  1  0  0  0
  1  5  2  0  0  0  0
  1  9  1  0  0  0  0
  1 18  1  0  0  0  0
  2  4  1  6  0  0  0
  2  6  2  0  0  0  0
  2 10  1  0  0  0  0
  2 17  1  0  0  0  0
  7  9  1  0  0  0  0
  8 10  1  0  0  0  0
 11  7  1  6  0  0  0
 11 13  1  0  0  0  0
 11 15  1  0  0  0  0
 12  8  1  1  0  0  0
 12 14  1  0  0  0  0
 12 16  1  0  0  0  0
 13 23  1  0  0  0  0
 14 24  1  0  0  0  0
 15 17  1  1  0  0  0
 15 19  1  0  0  0  0
 16 18  1  1  0  0  0
 16 20  1  0  0  0  0
 19 21  1  1  0  0  0
 19 23  1  0  0  0  0
 20 22  1  1  0  0  0
 20 24  1  0  0  0  0
 23 34  1  6  0  0  0
 24 44  1  6  0  0  0
 25 26  2  0  0  0  0
 25 30  1  0  0  0  0
 26 27  1  0  0  0  0
 27 28  2  0  0  0  0
 28 29  1  0  0  0  0
 28 34  1  0  0  0  0
 29 30  2  0  0  0  0
 29 32  1  0  0  0  0
 30 31  1  0  0  0  0
 32 33  2  0  0  0  0
 33 34  1  0  0  0  0
 35 36  2  0  0  0  0
 35 40  1  0  0  0  0
 36 37  1  0  0  0  0
 37 38  2  0  0  0  0
 38 39  1  0  0  0  0
 38 44  1  0  0  0  0
 39 40  2  0  0  0  0
 39 42  1  0  0  0  0
 40 41  1  0  0  0  0
 42 43  2  0  0  0  0
 43 44  1  0  0  0  0
M  CHG  2   3  -1   4  -1
M  END
>  <CHROM.1>
167.80854259,-5.19757352,14.01194951,24.16767749,-1.98292854,0.13821586,0.20073796
0.15074767

>  <Name>
ligand

>  <RI>
0

>  <Rbt.Current_Directory>
/home/itssahil/PROJECTS/Mol_Feturizer/New_Systems/rnas/4QLM

>  <Rbt.Executable>
rbdock ($Id: //depot/dev/client3/rdock/2013.1/src/exe/rbdock.cxx#4 $)

>  <Rbt.Library>
libRbt.so (2013.1, Build901 2013/11/27)

>  <Rbt.Parameter_File>
/export/apps/rDock/src/rDock_2013.1_src/data/scripts/dock_solv.prm

>  <Rbt.Receptor>
prm/blind_docking_40.prm

>  <SCORE>
12.7906

>  <SCORE.INTER>
6.31731

>  <SCORE.INTER.CONST>
1

>  <SCORE.INTER.POLAR>
0

>  <SCORE.INTER.ROT>
2

>  <SCORE.INTER.SOLV>
43.4345

>  <SCORE.INTER.VDW>
-15.2

>  <SCORE.INTER.norm>
0.143575

>  <SCORE.INTRA>
0.143427

>  <SCORE.INTRA.DIHEDRAL>
0.127865

>  <SCORE.INTRA.DIHEDRAL.0>
2.32994

>  <SCORE.INTRA.POLAR>
0

>  <SCORE.INTRA.POLAR.0>
0

>  <SCORE.INTRA.REPUL>
0

>  <SCORE.INTRA.REPUL.0>
0

>  <SCORE.INTRA.SOLV>
0.369419

>  <SCORE.INTRA.SOLV.lig_0>
-117.703

>  <SCORE.INTRA.VDW>
-0.105215

>  <SCORE.INTRA.VDW.0>
-1.59997

>  <SCORE.INTRA.norm>
0.0032597

>  <SCORE.RESTR>
6.32985

>  <SCORE.RESTR.CAVITY>
6.32985

>  <SCORE.RESTR.norm>
0.14386

>  <SCORE.SYSTEM>
0

>  <SCORE.SYSTEM.CONST>
0

>  <SCORE.SYSTEM.DIHEDRAL>
0

>  <SCORE.SYSTEM.SOLV>
0

>  <SCORE.SYSTEM.norm>
0

>  <SCORE.heavy>
44

>  <SCORE.norm>
0.290695

>  <RMSD>
26.925

$$$$
ligand
 OpenBabel11021811513D
libRbt.so/2013.1/901 2013/11/27
 44 50  0  0  0  0  0  0  0  0999 V2000
   15.0989   23.3385    0.6626 P   0  0  2  0  0  0  0  0  0  0  0  0
   13.3253   27.0748   -2.8158 P   0  0  1  0  0  0  0  0  0  0  0  0
   16.1438   23.5496    1.7554 O   0  5  0  0  0  0  0  0  0  0  0  0
   13.2617   26.3661   -4.1468 O   0  5  0  0  0  0  0  0  0  0  0  0
   15.1493   21.8707    0.3126 O   0  0  0  0  0  0  0  0  0  0  0  0
   12.5623   28.4104   -2.9677 O   0  0  0  0  0  0  0  0  0  0  0  0
   16.2331   25.4735   -0.1097 C   0  0  0  0  0  0  0  0  0  0  0  0
   12.8535   26.4442   -0.3565 C   0  0  0  0  0  0  0  0  0  0  0  0
   15.5353   24.2840   -0.5028 O   0  0  0  0  0  0  0  0  0  0  0  0
   12.7627   25.9740   -1.7310 O   0  0  0  0  0  0  0  0  0  0  0  0
   16.6391   26.2756   -1.3415 C   0  0  1  0  0  0  0  0  0  0  0  0
   12.1543   25.3465    0.5310 C   0  0  1  0  0  0  0  0  0  0  0  0
   17.7624   25.7995   -1.7818 O   0  0  0  0  0  0  0  0  0  0  0  0
   11.0213   25.1524   -0.0099 O   0  0  0  0  0  0  0  0  0  0  0  0
   15.6476   26.1669   -2.4771 C   0  0  1  0  0  0  0  0  0  0  0  0
   12.8455   23.9786    0.3632 C   0  0  1  0  0  0  0  0  0  0  0  0
   14.8908   27.2958   -2.4420 O   0  0  0  0  0  0  0  0  0  0  0  0
   13.6569   23.7121    1.3939 O   0  0  0  0  0  0  0  0  0  0  0  0
   16.5536   26.1581   -3.7574 C   0  0  1  0  0  0  0  0  0  0  0  0
   11.7256   22.9199    0.2451 C   0  0  1  0  0  0  0  0  0  0  0  0
   16.5457   27.5008   -4.3982 O   0  0  0  0  0  0  0  0  0  0  0  0
   11.5622   22.1824    1.5391 O   0  0  0  0  0  0  0  0  0  0  0  0
   17.7449   25.8362   -3.3666 C   0  0  2  0  0  0  0  0  0  0  0  0
   10.6562   23.5941   -0.0056 C   0  0  2  0  0  0  0  0  0  0  0  0
   16.8061   21.0311   -5.5691 N   0  0  0  0  0  0  0  0  0  0  0  0
   15.8611   21.9662   -5.2693 C   0  0  0  0  0  0  0  0  0  0  0  0
   16.2055   23.1690   -4.7070 N   0  0  0  0  0  0  0  0  0  0  0  0
   17.5227   23.4253   -4.4433 C   0  0  0  0  0  0  0  0  0  0  0  0
   18.4627   22.5127   -4.7260 C   0  0  0  0  0  0  0  0  0  0  0  0
   18.1052   21.2968   -5.3060 C   0  0  0  0  0  0  0  0  0  0  0  0
   18.9920   20.2577   -5.6508 N   0  0  0  0  0  0  0  0  0  0  0  0
   19.6590   23.0271   -4.3705 N   0  0  0  0  0  0  0  0  0  0  0  0
   19.4437   24.2713   -3.8558 C   0  0  0  0  0  0  0  0  0  0  0  0
   18.1300   24.5257   -3.9157 N   0  0  0  0  0  0  0  0  0  0  0  0
   11.2803   21.7023   -4.8172 N   0  0  0  0  0  0  0  0  0  0  0  0
   12.2411   21.8438   -3.8669 C   0  0  0  0  0  0  0  0  0  0  0  0
   11.9129   22.3675   -2.6482 N   0  0  0  0  0  0  0  0  0  0  0  0
   10.6312   22.7399   -2.3852 C   0  0  0  0  0  0  0  0  0  0  0  0
    9.6716   22.5981   -3.3219 C   0  0  0  0  0  0  0  0  0  0  0  0
   10.0155   22.0675   -4.5618 C   0  0  0  0  0  0  0  0  0  0  0  0
    9.1665   21.8466   -5.7043 N   0  0  0  0  0  0  0  0  0  0  0  0
    8.5122   23.0487   -2.7854 N   0  0  0  0  0  0  0  0  0  0  0  0
    8.7638   23.4634   -1.5108 C   0  0  0  0  0  0  0  0  0  0  0  0
   10.0761   23.2656   -1.2720 N   0  0  0  0  0  0  0  0  0  0  0  0
  1  3  1  1  0  0  0
  1  5  2  0  0  0  0
  1  9  1  0  0  0  0
  1 18  1  0  0  0  0
  2  4  1  6  0  0  0
  2  6  2  0  0  0  0
  2 10  1  0  0  0  0
  2 17  1  0  0  0  0
  7  9  1  0  0  0  0
  8 10  1  0  0  0  0
 11  7  1  1  0  0  0
 11 13  1  0  0  0  0
 11 15  1  0  0  0  0
 12  8  1  6  0  0  0
 12 14  1  0  0  0  0
 12 16  1  0  0  0  0
 13 23  1  0  0  0  0
 14 24  1  0  0  0  0
 15 17  1  6  0  0  0
 15 19  1  0  0  0  0
 16 18  1  1  0  0  0
 16 20  1  0  0  0  0
 19 21  1  1  0  0  0
 19 23  1  0  0  0  0
 20 22  1  1  0  0  0
 20 24  1  0  0  0  0
 23 34  1  6  0  0  0
 24 44  1  6  0  0  0
 25 26  2  0  0  0  0
 25 30  1  0  0  0  0
 26 27  1  0  0  0  0
 27 28  2  0  0  0  0
 28 29  1  0  0  0  0
 28 34  1  0  0  0  0
 29 30  2  0  0  0  0
 29 32  1  0  0  0  0
 30 31  1  0  0  0  0
 32 33  2  0  0  0  0
 33 34  1  0  0  0  0
 35 36  2  0  0  0  0
 35 40  1  0  0  0  0
 36 37  1  0  0  0  0
 37 38  2  0  0  0  0
 38 39  1  0  0  0  0
 38 44  1  0  0  0  0
 39 40  2  0  0  0  0
 39 42  1  0  0  0  0
 40 41  1  0  0  0  0
 42 43  2  0  0  0  0
 43 44  1  0  0  0  0
M  CHG  2   3  -1   4  -1
M  END
>  <CHROM.1>
100.38240937,96.25621241,14.18359235,24.11812482,-2.25958905,-2.90478773
-0.23297166,-2.22188164

>  <Name>
ligand

>  <RI>
0

>  <Rbt.Current_Directory>
/home/itssahil/PROJECTS/Mol_Feturizer/New_Systems/rnas/4QLM

>  <Rbt.Executable>
rbdock ($Id: //depot/dev/client3/rdock/2013.1/src/exe/rbdock.cxx#4 $)

>  <Rbt.Library>
libRbt.so (2013.1, Build901 2013/11/27)

>  <Rbt.Parameter_File>
/export/apps/rDock/src/rDock_2013.1_src/data/scripts/dock_solv.prm

>  <Rbt.Receptor>
prm/blind_docking_40.prm

>  <SCORE>
34.3885

>  <SCORE.INTER>
29.93

>  <SCORE.INTER.CONST>
1

>  <SCORE.INTER.POLAR>
0

>  <SCORE.INTER.ROT>
2

>  <SCORE.INTER.SOLV>
55.411

>  <SCORE.INTER.VDW>
-3.45029

>  <SCORE.INTER.norm>
0.680228

>  <SCORE.INTRA>
-0.628913

>  <SCORE.INTRA.DIHEDRAL>
-0.00412221

>  <SCORE.INTRA.DIHEDRAL.0>
2.32994

>  <SCORE.INTRA.POLAR>
0

>  <SCORE.INTRA.POLAR.0>
0

>  <SCORE.INTRA.REPUL>
0

>  <SCORE.INTRA.REPUL.0>
0

>  <SCORE.INTRA.SOLV>
0.0287605

>  <SCORE.INTRA.SOLV.lig_0>
-117.703

>  <SCORE.INTRA.VDW>
-0.641232

>  <SCORE.INTRA.VDW.0>
-1.59997

>  <SCORE.INTRA.norm>
-0.0142935

>  <SCORE.RESTR>
5.08736

>  <SCORE.RESTR.CAVITY>
5.08736

>  <SCORE.RESTR.norm>
0.115622

>  <SCORE.SYSTEM>
0

>  <SCORE.SYSTEM.CONST>
0

>  <SCORE.SYSTEM.DIHEDRAL>
0

>  <SCORE.SYSTEM.SOLV>
0

>  <SCORE.SYSTEM.norm>
0

>  <SCORE.heavy>
44

>  <SCORE.norm>
0.781557

>  <RMSD>
26.935

$$$$
ligand
 OpenBabel11021811513D
libRbt.so/2013.1/901 2013/11/27
 44 50  0  0  0  0  0  0  0  0999 V2000
   13.2685   27.3801   -2.5537 P   0  0  2  0  0  0  0  0  0  0  0  0
   15.3403   23.3106    0.3365 P   0  0  1  0  0  0  0  0  0  0  0  0
   12.4144   28.5243   -2.0136 O   0  5  0  0  0  0  0  0  0  0  0  0
   15.1141   22.0807   -0.5085 O   0  5  0  0  0  0  0  0  0  0  0  0
   12.8922   27.2262   -4.0077 O   0  0  0  0  0  0  0  0  0  0  0  0
   16.3286   22.9230    1.4598 O   0  0  0  0  0  0  0  0  0  0  0  0
   12.4962   26.4438   -0.3247 C   0  0  0  0  0  0  0  0  0  0  0  0
   15.9514   25.7794   -0.1111 C   0  0  0  0  0  0  0  0  0  0  0  0
   12.8985   26.1462   -1.6685 O   0  0  0  0  0  0  0  0  0  0  0  0
   15.7937   24.4735   -0.7345 O   0  0  0  0  0  0  0  0  0  0  0  0
   12.1203   25.1600    0.4076 C   0  0  1  0  0  0  0  0  0  0  0  0
   16.5163   26.7351   -1.2286 C   0  0  1  0  0  0  0  0  0  0  0  0
   10.8833   24.8845    0.1314 O   0  0  0  0  0  0  0  0  0  0  0  0
   17.5214   26.1260   -1.7112 O   0  0  0  0  0  0  0  0  0  0  0  0
   12.9377   23.9651   -0.0263 C   0  0  1  0  0  0  0  0  0  0  0  0
   15.5557   26.8047   -2.4325 C   0  0  1  0  0  0  0  0  0  0  0  0
   13.9004   23.7891    0.9174 O   0  0  0  0  0  0  0  0  0  0  0  0
   14.8283   27.9282   -2.4122 O   0  0  0  0  0  0  0  0  0  0  0  0
   11.9101   22.7808    0.0164 C   0  0  1  0  0  0  0  0  0  0  0  0
   16.4257   26.7250   -3.7077 C   0  0  1  0  0  0  0  0  0  0  0  0
   12.1096   21.9755    1.2514 O   0  0  0  0  0  0  0  0  0  0  0  0
   16.5850   28.0833   -4.3199 O   0  0  0  0  0  0  0  0  0  0  0  0
   10.7301   23.3126   -0.0066 C   0  0  2  0  0  0  0  0  0  0  0  0
   17.5717   26.2973   -3.3017 C   0  0  2  0  0  0  0  0  0  0  0  0
   10.4585   21.7044   -5.1215 N   0  0  0  0  0  0  0  0  0  0  0  0
   11.5975   21.8086   -4.3806 C   0  0  0  0  0  0  0  0  0  0  0  0
   11.5600   22.2299   -3.0757 N   0  0  0  0  0  0  0  0  0  0  0  0
   10.3541   22.5518   -2.5167 C   0  0  0  0  0  0  0  0  0  0  0  0
    9.2262   22.4613   -3.2350 C   0  0  0  0  0  0  0  0  0  0  0  0
    9.2720   22.0233   -4.5574 C   0  0  0  0  0  0  0  0  0  0  0  0
    8.1642   21.8844   -5.4166 N   0  0  0  0  0  0  0  0  0  0  0  0
    8.1992   22.8311   -2.4407 N   0  0  0  0  0  0  0  0  0  0  0  0
    8.7108   23.1593   -1.2202 C   0  0  0  0  0  0  0  0  0  0  0  0
   10.0364   22.9714   -1.2594 N   0  0  0  0  0  0  0  0  0  0  0  0
   18.2709   21.1735   -2.6869 N   0  0  0  0  0  0  0  0  0  0  0  0
   17.8907   22.0637   -1.7333 C   0  0  0  0  0  0  0  0  0  0  0  0
   17.7587   23.3846   -2.0575 N   0  0  0  0  0  0  0  0  0  0  0  0
   18.0007   23.8057   -3.3282 C   0  0  0  0  0  0  0  0  0  0  0  0
   18.3739   22.9273   -4.2807 C   0  0  0  0  0  0  0  0  0  0  0  0
   18.5097   21.5844   -3.9409 C   0  0  0  0  0  0  0  0  0  0  0  0
   18.9113   20.4871   -4.7833 N   0  0  0  0  0  0  0  0  0  0  0  0
   18.5448   23.6241   -5.4297 N   0  0  0  0  0  0  0  0  0  0  0  0
   18.2689   24.9360   -5.1790 C   0  0  0  0  0  0  0  0  0  0  0  0
   17.9306   25.0373   -3.8777 N   0  0  0  0  0  0  0  0  0  0  0  0
  1  3  1  1  0  0  0
  1  5  2  0  0  0  0
  1  9  1  0  0  0  0
  1 18  1  0  0  0  0
  2  4  1  6  0  0  0
  2  6  2  0  0  0  0
  2 10  1  0  0  0  0
  2 17  1  0  0  0  0
  7  9  1  0  0  0  0
  8 10  1  0  0  0  0
 11  7  1  6  0  0  0
 11 13  1  0  0  0  0
 11 15  1  0  0  0  0
 12  8  1  1  0  0  0
 12 14  1  0  0  0  0
 12 16  1  0  0  0  0
 13 23  1  0  0  0  0
 14 24  1  0  0  0  0
 15 17  1  1  0  0  0
 15 19  1  0  0  0  0
 16 18  1  6  0  0  0
 16 20  1  0  0  0  0
 19 21  1  1  0  0  0
 19 23  1  0  0  0  0
 20 22  1  1  0  0  0
 20 24  1  0  0  0  0
 23 34  1  6  0  0  0
 24 44  1  6  0  0  0
 25 26  2  0  0  0  0
 25 30  1  0  0  0  0
 26 27  1  0  0  0  0
 27 28  2  0  0  0  0
 28 29  1  0  0  0  0
 28 34  1  0  0  0  0
 29 30  2  0  0  0  0
 29 32  1  0  0  0  0
 30 31  1  0  0  0  0
 32 33  2  0  0  0  0
 33 34  1  0  0  0  0
 35 36  2  0  0  0  0
 35 40  1  0  0  0  0
 36 37  1  0  0  0  0
 37 38  2  0  0  0  0
 38 39  1  0  0  0  0
 38 44  1  0  0  0  0
 39 40  2  0  0  0  0
 39 42  1  0  0  0  0
 40 41  1  0  0  0  0
 42 43  2  0  0  0  0
 43 44  1  0  0  0  0
M  CHG  2   3  -1   4  -1
M  END
>  <CHROM.1>
99.43009352,11.69688235,14.15565268,24.26407902,-2.08198786,3.01658631,-0.15391536
-2.94803583

>  <Name>
ligand

>  <RI>
0

>  <Rbt.Current_Directory>
/home/itssahil/PROJECTS/Mol_Feturizer/New_Systems/rnas/4QLM

>  <Rbt.Executable>
rbdock ($Id: //depot/dev/client3/rdock/2013.1/src/exe/rbdock.cxx#4 $)

>  <Rbt.Library>
libRbt.so (2013.1, Build901 2013/11/27)

>  <Rbt.Parameter_File>
/export/apps/rDock/src/rDock_2013.1_src/data/scripts/dock_solv.prm

>  <Rbt.Receptor>
prm/blind_docking_40.prm

>  <SCORE>
26.5535

>  <SCORE.INTER>
20.9385

>  <SCORE.INTER.CONST>
1

>  <SCORE.INTER.POLAR>
0

>  <SCORE.INTER.ROT>
2

>  <SCORE.INTER.SOLV>
49.4939

>  <SCORE.INTER.VDW>
-7.47234

>  <SCORE.INTER.norm>
0.475874

>  <SCORE.INTRA>
-0.731865

>  <SCORE.INTRA.DIHEDRAL>
-0.0235798

>  <SCORE.INTRA.DIHEDRAL.0>
2.32994

>  <SCORE.INTRA.POLAR>
0

>  <SCORE.INTRA.POLAR.0>
0

>  <SCORE.INTRA.REPUL>
0

>  <SCORE.INTRA.REPUL.0>
0

>  <SCORE.INTRA.SOLV>
1.30104

>  <SCORE.INTRA.SOLV.lig_0>
-117.703

>  <SCORE.INTRA.VDW>
-1.3706

>  <SCORE.INTRA.VDW.0>
-1.59997

>  <SCORE.INTRA.norm>
-0.0166333

>  <SCORE.RESTR>
6.3469

>  <SCORE.RESTR.CAVITY>
6.3469

>  <SCORE.RESTR.norm>
0.144248

>  <SCORE.SYSTEM>
0

>  <SCORE.SYSTEM.CONST>
0

>  <SCORE.SYSTEM.DIHEDRAL>
0

>  <SCORE.SYSTEM.SOLV>
0

>  <SCORE.SYSTEM.norm>
0

>  <SCORE.heavy>
44

>  <SCORE.norm>
0.603489

>  <RMSD>
26.976

$$$$
ligand
 OpenBabel11021811513D
libRbt.so/2013.1/901 2013/11/27
 44 50  0  0  0  0  0  0  0  0999 V2000
   14.9986   23.2546    0.6032 P   0  0  2  0  0  0  0  0  0  0  0  0
   13.3969   27.3300   -2.5640 P   0  0  1  0  0  0  0  0  0  0  0  0
   16.1378   23.2976    1.6185 O   0  5  0  0  0  0  0  0  0  0  0  0
   13.1581   26.7004   -3.9148 O   0  5  0  0  0  0  0  0  0  0  0  0
   14.8611   21.8094    0.1884 O   0  0  0  0  0  0  0  0  0  0  0  0
   12.7767   28.7454   -2.5989 O   0  0  0  0  0  0  0  0  0  0  0  0
   16.3013   25.2929   -0.1647 C   0  0  0  0  0  0  0  0  0  0  0  0
   13.0403   26.6297   -0.1042 C   0  0  0  0  0  0  0  0  0  0  0  0
   15.4498   24.2060   -0.5518 O   0  0  0  0  0  0  0  0  0  0  0  0
   12.7976   26.2421   -1.4861 O   0  0  0  0  0  0  0  0  0  0  0  0
   16.7017   26.1085   -1.3895 C   0  0  1  0  0  0  0  0  0  0  0  0
   12.2915   25.5693    0.7882 C   0  0  1  0  0  0  0  0  0  0  0  0
   17.7304   25.5382   -1.9363 O   0  0  0  0  0  0  0  0  0  0  0  0
   11.1074   25.5248    0.3301 O   0  0  0  0  0  0  0  0  0  0  0  0
   15.6237   26.1637   -2.4474 C   0  0  1  0  0  0  0  0  0  0  0  0
   12.8136   24.1458    0.5088 C   0  0  1  0  0  0  0  0  0  0  0  0
   15.0005   27.3636   -2.3052 O   0  0  0  0  0  0  0  0  0  0  0  0
   13.6642   23.7424    1.4605 O   0  0  0  0  0  0  0  0  0  0  0  0
   16.4267   26.1232   -3.7941 C   0  0  1  0  0  0  0  0  0  0  0  0
   11.5782   23.2198    0.4342 C   0  0  1  0  0  0  0  0  0  0  0  0
   16.5198   27.4897   -4.3748 O   0  0  0  0  0  0  0  0  0  0  0  0
   11.4300   22.4394    1.7047 O   0  0  0  0  0  0  0  0  0  0  0  0
   17.6008   25.6567   -3.5120 C   0  0  2  0  0  0  0  0  0  0  0  0
   10.5741   24.0161    0.2970 C   0  0  2  0  0  0  0  0  0  0  0  0
   18.6952   20.4009   -3.5439 N   0  0  0  0  0  0  0  0  0  0  0  0
   18.6303   21.1924   -2.4365 C   0  0  0  0  0  0  0  0  0  0  0  0
   18.3408   22.5296   -2.5351 N   0  0  0  0  0  0  0  0  0  0  0  0
   18.1171   23.0707   -3.7710 C   0  0  0  0  0  0  0  0  0  0  0  0
   18.1846   22.3065   -4.8700 C   0  0  0  0  0  0  0  0  0  0  0  0
   18.4700   20.9466   -4.7601 C   0  0  0  0  0  0  0  0  0  0  0  0
   18.5692   20.0378   -5.8320 N   0  0  0  0  0  0  0  0  0  0  0  0
   17.9191   23.0907   -5.9362 N   0  0  0  0  0  0  0  0  0  0  0  0
   17.6933   24.3556   -5.4799 C   0  0  0  0  0  0  0  0  0  0  0  0
   17.7977   24.3420   -4.1446 N   0  0  0  0  0  0  0  0  0  0  0  0
    8.7800   20.7081   -3.3029 N   0  0  0  0  0  0  0  0  0  0  0  0
    9.4846   20.3915   -2.1850 C   0  0  0  0  0  0  0  0  0  0  0  0
    9.8910   21.3850   -1.3395 N   0  0  0  0  0  0  0  0  0  0  0  0
    9.5875   22.6829   -1.6115 C   0  0  0  0  0  0  0  0  0  0  0  0
    8.8847   23.0041   -2.7165 C   0  0  0  0  0  0  0  0  0  0  0  0
    8.4782   21.9862   -3.5743 C   0  0  0  0  0  0  0  0  0  0  0  0
    7.7426   22.0993   -4.8076 N   0  0  0  0  0  0  0  0  0  0  0  0
    8.7380   24.3508   -2.7259 N   0  0  0  0  0  0  0  0  0  0  0  0
    9.3504   24.8552   -1.6167 C   0  0  0  0  0  0  0  0  0  0  0  0
    9.8699   23.8158   -0.9327 N   0  0  0  0  0  0  0  0  0  0  0  0
  1  3  1  1  0  0  0
  1  5  2  0  0  0  0
  1  9  1  0  0  0  0
  1 18  1  0  0  0  0
  2  4  1  6  0  0  0
  2  6  2  0  0  0  0
  2 10  1  0  0  0  0
  2 17  1  0  0  0  0
  7  9  1  0  0  0  0
  8 10  1  0  0  0  0
 11  7  1  1  0  0  0
 11 13  1  0  0  0  0
 11 15  1  0  0  0  0
 12  8  1  6  0  0  0
 12 14  1  0  0  0  0
 12 16  1  0  0  0  0
 13 23  1  0  0  0  0
 14 24  1  0  0  0  0
 15 17  1  1  0  0  0
 15 19  1  0  0  0  0
 16 18  1  1  0  0  0
 16 20  1  0  0  0  0
 19 21  1  1  0  0  0
 19 23  1  0  0  0  0
 20 22  1  1  0  0  0
 20 24  1  0  0  0  0
 23 34  1  6  0  0  0
 24 44  1  6  0  0  0
 25 26  2  0  0  0  0
 25 30  1  0  0  0  0
 26 27  1  0  0  0  0
 27 28  2  0  0  0  0
 28 29  1  0  0  0  0
 28 34  1  0  0  0  0
 29 30  2  0  0  0  0
 29 32  1  0  0  0  0
 30 31  1  0  0  0  0
 32 33  2  0  0  0  0
 33 34  1  0  0  0  0
 35 36  2  0  0  0  0
 35 40  1  0  0  0  0
 36 37  1  0  0  0  0
 37 38  2  0  0  0  0
 38 39  1  0  0  0  0
 38 44  1  0  0  0  0
 39 40  2  0  0  0  0
 39 42  1  0  0  0  0
 40 41  1  0  0  0  0
 42 43  2  0  0  0  0
 43 44  1  0  0  0  0
M  CHG  2   3  -1   4  -1
M  END
>  <CHROM.1>
-3.81441500,157.75023148,14.00848566,24.10787690,-1.95146427,-0.06467073
0.26133956,0.31624544

>  <Name>
ligand

>  <RI>
0

>  <Rbt.Current_Directory>
/home/itssahil/PROJECTS/Mol_Feturizer/New_Systems/rnas/4QLM

>  <Rbt.Executable>
rbdock ($Id: //depot/dev/client3/rdock/2013.1/src/exe/rbdock.cxx#4 $)

>  <Rbt.Library>
libRbt.so (2013.1, Build901 2013/11/27)

>  <Rbt.Parameter_File>
/export/apps/rDock/src/rDock_2013.1_src/data/scripts/dock_solv.prm

>  <Rbt.Receptor>
prm/blind_docking_60.prm

>  <SCORE>
17.4393

>  <SCORE.INTER>
11.6848

>  <SCORE.INTER.CONST>
1

>  <SCORE.INTER.POLAR>
0

>  <SCORE.INTER.ROT>
2

>  <SCORE.INTER.SOLV>
47.5676

>  <SCORE.INTER.VDW>
-12.9993

>  <SCORE.INTER.norm>
0.265565

>  <SCORE.INTRA>
0.777113

>  <SCORE.INTRA.DIHEDRAL>
0.0482992

>  <SCORE.INTRA.DIHEDRAL.0>
2.32994

>  <SCORE.INTRA.POLAR>
0

>  <SCORE.INTRA.POLAR.0>
0

>  <SCORE.INTRA.REPUL>
0

>  <SCORE.INTRA.REPUL.0>
0

>  <SCORE.INTRA.SOLV>
0.133748

>  <SCORE.INTRA.SOLV.lig_0>
-117.703

>  <SCORE.INTRA.VDW>
0.686089

>  <SCORE.INTRA.VDW.0>
-1.59997

>  <SCORE.INTRA.norm>
0.0176616

>  <SCORE.RESTR>
4.97733

>  <SCORE.RESTR.CAVITY>
4.97733

>  <SCORE.RESTR.norm>
0.113121

>  <SCORE.SYSTEM>
0

>  <SCORE.SYSTEM.CONST>
0

>  <SCORE.SYSTEM.DIHEDRAL>
0

>  <SCORE.SYSTEM.SOLV>
0

>  <SCORE.SYSTEM.norm>
0

>  <SCORE.heavy>
44

>  <SCORE.norm>
0.396347

>  <RMSD>
26.977

$$$$
ligand
 OpenBabel11021811513D
libRbt.so/2013.1/901 2013/11/27
 44 50  0  0  0  0  0  0  0  0999 V2000
   15.0607   23.2747    0.5862 P   0  0  2  0  0  0  0  0  0  0  0  0
   13.4207   27.3015   -2.6233 P   0  0  1  0  0  0  0  0  0  0  0  0
   16.1991   23.3391    1.6012 O   0  5  0  0  0  0  0  0  0  0  0  0
   13.1882   26.6557   -3.9675 O   0  5  0  0  0  0  0  0  0  0  0  0
   14.9371   21.8240    0.1864 O   0  0  0  0  0  0  0  0  0  0  0  0
   12.7869   28.7104   -2.6729 O   0  0  0  0  0  0  0  0  0  0  0  0
   16.3440   25.3173   -0.2026 C   0  0  0  0  0  0  0  0  0  0  0  0
   13.0702   26.6233   -0.1564 C   0  0  0  0  0  0  0  0  0  0  0  0
   15.5029   24.2183   -0.5785 O   0  0  0  0  0  0  0  0  0  0  0  0
   12.8316   26.2191   -1.5342 O   0  0  0  0  0  0  0  0  0  0  0  0
   16.7367   26.1240   -1.4357 C   0  0  1  0  0  0  0  0  0  0  0  0
   12.3314   25.5650    0.7468 C   0  0  1  0  0  0  0  0  0  0  0  0
   17.7710   25.5580   -1.9764 O   0  0  0  0  0  0  0  0  0  0  0  0
   11.1479   25.5044    0.2890 O   0  0  0  0  0  0  0  0  0  0  0  0
   15.6585   26.1579   -2.4942 C   0  0  1  0  0  0  0  0  0  0  0  0
   12.8673   24.1438    0.4823 C   0  0  1  0  0  0  0  0  0  0  0  0
   15.0238   27.3532   -2.3646 O   0  0  0  0  0  0  0  0  0  0  0  0
   13.7214   23.7584    1.4382 O   0  0  0  0  0  0  0  0  0  0  0  0
   16.4622   26.1112   -3.8403 C   0  0  1  0  0  0  0  0  0  0  0  0
   11.6408   23.2053    0.4171 C   0  0  1  0  0  0  0  0  0  0  0  0
   16.5423   27.4725   -4.4352 O   0  0  0  0  0  0  0  0  0  0  0  0
   11.4998   22.4367    1.6956 O   0  0  0  0  0  0  0  0  0  0  0  0
   17.6406   25.6589   -3.5532 C   0  0  2  0  0  0  0  0  0  0  0  0
   10.6291   23.9904    0.2715 C   0  0  2  0  0  0  0  0  0  0  0  0
   18.7027   20.3965   -3.5217 N   0  0  0  0  0  0  0  0  0  0  0  0
   18.6059   21.1943   -2.4211 C   0  0  0  0  0  0  0  0  0  0  0  0
   18.3282   22.5326   -2.5362 N   0  0  0  0  0  0  0  0  0  0  0  0
   18.1492   23.0685   -3.7816 C   0  0  0  0  0  0  0  0  0  0  0  0
   18.2485   22.2980   -4.8738 C   0  0  0  0  0  0  0  0  0  0  0  0
   18.5216   20.9371   -4.7475 C   0  0  0  0  0  0  0  0  0  0  0  0
   18.6508   20.0220   -5.8109 N   0  0  0  0  0  0  0  0  0  0  0  0
   18.0236   23.0782   -5.9523 N   0  0  0  0  0  0  0  0  0  0  0  0
   17.7906   24.3468   -5.5103 C   0  0  0  0  0  0  0  0  0  0  0  0
   17.8503   24.3397   -4.1722 N   0  0  0  0  0  0  0  0  0  0  0  0
    8.9558   20.6392   -3.3465 N   0  0  0  0  0  0  0  0  0  0  0  0
    9.6794   20.3434   -2.2350 C   0  0  0  0  0  0  0  0  0  0  0  0
   10.0483   21.3463   -1.3834 N   0  0  0  0  0  0  0  0  0  0  0  0
    9.6890   22.6324   -1.6429 C   0  0  0  0  0  0  0  0  0  0  0  0
    8.9672   22.9327   -2.7415 C   0  0  0  0  0  0  0  0  0  0  0  0
    8.5990   21.9056   -3.6056 C   0  0  0  0  0  0  0  0  0  0  0  0
    7.8526   21.9977   -4.8342 N   0  0  0  0  0  0  0  0  0  0  0  0
    8.7639   24.2720   -2.7389 N   0  0  0  0  0  0  0  0  0  0  0  0
    9.3607   24.7927   -1.6287 C   0  0  0  0  0  0  0  0  0  0  0  0
    9.9272   23.7706   -0.9561 N   0  0  0  0  0  0  0  0  0  0  0  0
  1  3  1  1  0  0  0
  1  5  2  0  0  0  0
  1  9  1  0  0  0  0
  1 18  1  0  0  0  0
  2  4  1  6  0  0  0
  2  6  2  0  0  0  0
  2 10  1  0  0  0  0
  2 17  1  0  0  0  0
  7  9  1  0  0  0  0
  8 10  1  0  0  0  0
 11  7  1  1  0  0  0
 11 13  1  0  0  0  0
 11 15  1  0  0  0  0
 12  8  1  6  0  0  0
 12 14  1  0  0  0  0
 12 16  1  0  0  0  0
 13 23  1  0  0  0  0
 14 24  1  0  0  0  0
 15 17  1  6  0  0  0
 15 19  1  0  0  0  0
 16 18  1  1  0  0  0
 16 20  1  0  0  0  0
 19 21  1  1  0  0  0
 19 23  1  0  0  0  0
 20 22  1  1  0  0  0
 20 24  1  0  0  0  0
 23 34  1  6  0  0  0
 24 44  1  6  0  0  0
 25 26  2  0  0  0  0
 25 30  1  0  0  0  0
 26 27  1  0  0  0  0
 27 28  2  0  0  0  0
 28 29  1  0  0  0  0
 28 34  1  0  0  0  0
 29 30  2  0  0  0  0
 29 32  1  0  0  0  0
 30 31  1  0  0  0  0
 32 33  2  0  0  0  0
 33 34  1  0  0  0  0
 35 36  2  0  0  0  0
 35 40  1  0  0  0  0
 36 37  1  0  0  0  0
 37 38  2  0  0  0  0
 38 39  1  0  0  0  0
 38 44  1  0  0  0  0
 39 40  2  0  0  0  0
 39 42  1  0  0  0  0
 40 41  1  0  0  0  0
 42 43  2  0  0  0  0
 43 44  1  0  0  0  0
M  CHG  2   3  -1   4  -1
M  END
>  <CHROM.1>
-1.69128602,155.58160679,14.06423118,24.09147061,-1.98054660,-0.05953649
0.26485381,0.30980690

>  <Name>
ligand

>  <RI>
0

>  <Rbt.Current_Directory>
/home/itssahil/PROJECTS/Mol_Feturizer/New_Systems/rnas/4QLM

>  <Rbt.Executable>
rbdock ($Id: //depot/dev/client3/rdock/2013.1/src/exe/rbdock.cxx#4 $)

>  <Rbt.Library>
libRbt.so (2013.1, Build901 2013/11/27)

>  <Rbt.Parameter_File>
/export/apps/rDock/src/rDock_2013.1_src/data/scripts/dock_solv.prm

>  <Rbt.Receptor>
prm/blind_docking_40.prm

>  <SCORE>
17.7803

>  <SCORE.INTER>
12.73

>  <SCORE.INTER.CONST>
1

>  <SCORE.INTER.POLAR>
0

>  <SCORE.INTER.ROT>
2

>  <SCORE.INTER.SOLV>
48.4008

>  <SCORE.INTER.VDW>
-12.5803

>  <SCORE.INTER.norm>
0.289317

>  <SCORE.INTRA>
0.689574

>  <SCORE.INTRA.DIHEDRAL>
0.0594968

>  <SCORE.INTRA.DIHEDRAL.0>
2.32994

>  <SCORE.INTRA.POLAR>
0

>  <SCORE.INTRA.POLAR.0>
0

>  <SCORE.INTRA.REPUL>
0

>  <SCORE.INTRA.REPUL.0>
0

>  <SCORE.INTRA.SOLV>
0.131917

>  <SCORE.INTRA.SOLV.lig_0>
-117.703

>  <SCORE.INTRA.VDW>
0.593867

>  <SCORE.INTRA.VDW.0>
-1.59997

>  <SCORE.INTRA.norm>
0.0156721

>  <SCORE.RESTR>
4.36079

>  <SCORE.RESTR.CAVITY>
4.36079

>  <SCORE.RESTR.norm>
0.0991088

>  <SCORE.SYSTEM>
0

>  <SCORE.SYSTEM.CONST>
0

>  <SCORE.SYSTEM.DIHEDRAL>
0

>  <SCORE.SYSTEM.SOLV>
0

>  <SCORE.SYSTEM.norm>
0

>  <SCORE.heavy>
44

>  <SCORE.norm>
0.404098

>  <RMSD>
27.011

$$$$
ligand
 OpenBabel11021811513D
libRbt.so/2013.1/901 2013/11/27
 44 50  0  0  0  0  0  0  0  0999 V2000
   15.0569   23.2749    0.5932 P   0  0  2  0  0  0  0  0  0  0  0  0
   13.4224   27.3054   -2.6145 P   0  0  1  0  0  0  0  0  0  0  0  0
   16.1940   23.3380    1.6098 O   0  5  0  0  0  0  0  0  0  0  0  0
   13.1916   26.6609   -3.9596 O   0  5  0  0  0  0  0  0  0  0  0  0
   14.9335   21.8246    0.1918 O   0  0  0  0  0  0  0  0  0  0  0  0
   12.7891   28.7145   -2.6635 O   0  0  0  0  0  0  0  0  0  0  0  0
   16.3418   25.3179   -0.1917 C   0  0  0  0  0  0  0  0  0  0  0  0
   13.0684   26.6247   -0.1488 C   0  0  0  0  0  0  0  0  0  0  0  0
   15.5010   24.2196   -0.5699 O   0  0  0  0  0  0  0  0  0  0  0  0
   12.8315   26.2220   -1.5273 O   0  0  0  0  0  0  0  0  0  0  0  0
   16.7365   26.1257   -1.4235 C   0  0  1  0  0  0  0  0  0  0  0  0
   12.3280   25.5658    0.7524 C   0  0  1  0  0  0  0  0  0  0  0  0
   17.7713   25.5600   -1.9634 O   0  0  0  0  0  0  0  0  0  0  0  0
   11.1451   25.5060    0.2929 O   0  0  0  0  0  0  0  0  0  0  0  0
   15.6597   26.1610   -2.4835 C   0  0  1  0  0  0  0  0  0  0  0  0
   12.8638   24.1447    0.4872 C   0  0  1  0  0  0  0  0  0  0  0  0
   15.0252   27.3563   -2.3535 O   0  0  0  0  0  0  0  0  0  0  0  0
   13.7166   23.7581    1.4439 O   0  0  0  0  0  0  0  0  0  0  0  0
   16.4653   26.1154   -3.8285 C   0  0  1  0  0  0  0  0  0  0  0  0
   11.6372   23.2066    0.4194 C   0  0  1  0  0  0  0  0  0  0  0  0
   16.5466   27.4773   -4.4219 O   0  0  0  0  0  0  0  0  0  0  0  0
   11.4942   22.4367    1.6969 O   0  0  0  0  0  0  0  0  0  0  0  0
   17.6432   25.6625   -3.5403 C   0  0  2  0  0  0  0  0  0  0  0  0
   10.6259   23.9921    0.2731 C   0  0  2  0  0  0  0  0  0  0  0  0
   18.6956   20.3982   -3.5118 N   0  0  0  0  0  0  0  0  0  0  0  0
   18.5952   21.1945   -2.4104 C   0  0  0  0  0  0  0  0  0  0  0  0
   18.3204   22.5335   -2.5248 N   0  0  0  0  0  0  0  0  0  0  0  0
   18.1482   23.0716   -3.7702 C   0  0  0  0  0  0  0  0  0  0  0  0
   18.2511   22.3025   -4.8631 C   0  0  0  0  0  0  0  0  0  0  0  0
   18.5212   20.9409   -4.7376 C   0  0  0  0  0  0  0  0  0  0  0  0
   18.6536   20.0272   -5.8017 N   0  0  0  0  0  0  0  0  0  0  0  0
   18.0326   23.0847   -5.9414 N   0  0  0  0  0  0  0  0  0  0  0  0
   17.7999   24.3531   -5.4986 C   0  0  0  0  0  0  0  0  0  0  0  0
   17.8534   24.3439   -4.1602 N   0  0  0  0  0  0  0  0  0  0  0  0
    8.9540   20.6446   -3.3488 N   0  0  0  0  0  0  0  0  0  0  0  0
    9.6754   20.3474   -2.2364 C   0  0  0  0  0  0  0  0  0  0  0  0
   10.0443   21.3495   -1.3837 N   0  0  0  0  0  0  0  0  0  0  0  0
    9.6871   22.6362   -1.6432 C   0  0  0  0  0  0  0  0  0  0  0  0
    8.9673   22.9379   -2.7429 C   0  0  0  0  0  0  0  0  0  0  0  0
    8.5992   21.9116   -3.6080 C   0  0  0  0  0  0  0  0  0  0  0  0
    7.8548   22.0051   -4.8377 N   0  0  0  0  0  0  0  0  0  0  0  0
    8.7658   24.2774   -2.7401 N   0  0  0  0  0  0  0  0  0  0  0  0
    9.3615   24.7969   -1.6287 C   0  0  0  0  0  0  0  0  0  0  0  0
    9.9257   23.7738   -0.9557 N   0  0  0  0  0  0  0  0  0  0  0  0
  1  3  1  1  0  0  0
  1  5  2  0  0  0  0
  1  9  1  0  0  0  0
  1 18  1  0  0  0  0
  2  4  1  6  0  0  0
  2  6  2  0  0  0  0
  2 10  1  0  0  0  0
  2 17  1  0  0  0  0
  7  9  1  0  0  0  0
  8 10  1  0  0  0  0
 11  7  1  1  0  0  0
 11 13  1  0  0  0  0
 11 15  1  0  0  0  0
 12  8  1  6  0  0  0
 12 14  1  0  0  0  0
 12 16  1  0  0  0  0
 13 23  1  0  0  0  0
 14 24  1  0  0  0  0
 15 17  1  6  0  0  0
 15 19  1  0  0  0  0
 16 18  1  1  0  0  0
 16 20  1  0  0  0  0
 19 21  1  1  0  0  0
 19 23  1  0  0  0  0
 20 22  1  1  0  0  0
 20 24  1  0  0  0  0
 23 34  1  6  0  0  0
 24 44  1  6  0  0  0
 25 26  2  0  0  0  0
 25 30  1  0  0  0  0
 26 27  1  0  0  0  0
 27 28  2  0  0  0  0
 28 29  1  0  0  0  0
 28 34  1  0  0  0  0
 29 30  2  0  0  0  0
 29 32  1  0  0  0  0
 30 31  1  0  0  0  0
 32 33  2  0  0  0  0
 33 34  1  0  0  0  0
 35 36  2  0  0  0  0
 35 40  1  0  0  0  0
 36 37  1  0  0  0  0
 37 38  2  0  0  0  0
 38 39  1  0  0  0  0
 38 44  1  0  0  0  0
 39 40  2  0  0  0  0
 39 42  1  0  0  0  0
 40 41  1  0  0  0  0
 42 43  2  0  0  0  0
 43 44  1  0  0  0  0
M  CHG  2   3  -1   4  -1
M  END
>  <CHROM.1>
-1.48280233,155.64962148,14.06343984,24.09435167,-1.97385647,-0.05899213
0.26363184,0.31050327

>  <Name>
ligand

>  <RI>
0

>  <Rbt.Current_Directory>
/home/itssahil/PROJECTS/Mol_Feturizer/New_Systems/rnas/4QLM

>  <Rbt.Executable>
rbdock ($Id: //depot/dev/client3/rdock/2013.1/src/exe/rbdock.cxx#4 $)

>  <Rbt.Library>
libRbt.so (2013.1, Build901 2013/11/27)

>  <Rbt.Parameter_File>
/export/apps/rDock/src/rDock_2013.1_src/data/scripts/dock_solv.prm

>  <Rbt.Receptor>
prm/blind_docking_40.prm

>  <SCORE>
17.5797

>  <SCORE.INTER>
12.4971

>  <SCORE.INTER.CONST>
1

>  <SCORE.INTER.POLAR>
0

>  <SCORE.INTER.ROT>
2

>  <SCORE.INTER.SOLV>
48.3604

>  <SCORE.INTER.VDW>
-12.7221

>  <SCORE.INTER.norm>
0.284025

>  <SCORE.INTRA>
0.677267

>  <SCORE.INTRA.DIHEDRAL>
0.06065

>  <SCORE.INTRA.DIHEDRAL.0>
2.32994

>  <SCORE.INTRA.POLAR>
0

>  <SCORE.INTRA.POLAR.0>
0

>  <SCORE.INTRA.REPUL>
0

>  <SCORE.INTRA.REPUL.0>
0

>  <SCORE.INTRA.SOLV>
0.131679

>  <SCORE.INTRA.SOLV.lig_0>
-117.703

>  <SCORE.INTRA.VDW>
0.581103

>  <SCORE.INTRA.VDW.0>
-1.59997

>  <SCORE.INTRA.norm>
0.0153924

>  <SCORE.RESTR>
4.4053

>  <SCORE.RESTR.CAVITY>
4.4053

>  <SCORE.RESTR.norm>
0.10012

>  <SCORE.SYSTEM>
0

>  <SCORE.SYSTEM.CONST>
0

>  <SCORE.SYSTEM.DIHEDRAL>
0

>  <SCORE.SYSTEM.SOLV>
0

>  <SCORE.SYSTEM.norm>
0

>  <SCORE.heavy>
44

>  <SCORE.norm>
0.399538

>  <RMSD>
27.012

$$$$
ligand
 OpenBabel11021811513D
libRbt.so/2013.1/901 2013/11/27
 44 50  0  0  0  0  0  0  0  0999 V2000
   15.0669   23.2764    0.5951 P   0  0  2  0  0  0  0  0  0  0  0  0
   13.4253   27.3051   -2.6112 P   0  0  1  0  0  0  0  0  0  0  0  0
   16.2055   23.3405    1.6101 O   0  5  0  0  0  0  0  0  0  0  0  0
   13.1930   26.6602   -3.9559 O   0  5  0  0  0  0  0  0  0  0  0  0
   14.9439   21.8260    0.1943 O   0  0  0  0  0  0  0  0  0  0  0  0
   12.7910   28.7138   -2.6597 O   0  0  0  0  0  0  0  0  0  0  0  0
   16.3495   25.3200   -0.1922 C   0  0  0  0  0  0  0  0  0  0  0  0
   13.0753   26.6249   -0.1448 C   0  0  0  0  0  0  0  0  0  0  0  0
   15.5088   24.2211   -0.5689 O   0  0  0  0  0  0  0  0  0  0  0  0
   12.8367   26.2216   -1.5229 O   0  0  0  0  0  0  0  0  0  0  0  0
   16.7419   26.1278   -1.4248 C   0  0  1  0  0  0  0  0  0  0  0  0
   12.3369   25.5657    0.7577 C   0  0  1  0  0  0  0  0  0  0  0  0
   17.7762   25.5625   -1.9660 O   0  0  0  0  0  0  0  0  0  0  0  0
   11.1534   25.5050    0.3000 O   0  0  0  0  0  0  0  0  0  0  0  0
   15.6635   26.1621   -2.4832 C   0  0  1  0  0  0  0  0  0  0  0  0
   12.8732   24.1448    0.4921 C   0  0  1  0  0  0  0  0  0  0  0  0
   15.0284   27.3571   -2.3526 O   0  0  0  0  0  0  0  0  0  0  0  0
   13.7276   23.7591    1.4476 O   0  0  0  0  0  0  0  0  0  0  0  0
   16.4671   26.1166   -3.8294 C   0  0  1  0  0  0  0  0  0  0  0  0
   11.6470   23.2060    0.4263 C   0  0  1  0  0  0  0  0  0  0  0  0
   16.5467   27.4784   -4.4232 O   0  0  0  0  0  0  0  0  0  0  0  0
   11.5064   22.4364    1.7042 O   0  0  0  0  0  0  0  0  0  0  0  0
   17.6457   25.6646   -3.5427 C   0  0  2  0  0  0  0  0  0  0  0  0
   10.6351   23.9909    0.2814 C   0  0  2  0  0  0  0  0  0  0  0  0
   18.6942   20.3995   -3.5139 N   0  0  0  0  0  0  0  0  0  0  0  0
   18.5928   21.1956   -2.4125 C   0  0  0  0  0  0  0  0  0  0  0  0
   18.3192   22.5348   -2.5270 N   0  0  0  0  0  0  0  0  0  0  0  0
   18.1491   23.0733   -3.7725 C   0  0  0  0  0  0  0  0  0  0  0  0
   18.2530   22.3044   -4.8654 C   0  0  0  0  0  0  0  0  0  0  0  0
   18.5219   20.9426   -4.7398 C   0  0  0  0  0  0  0  0  0  0  0  0
   18.6552   20.0290   -5.8039 N   0  0  0  0  0  0  0  0  0  0  0  0
   18.0367   23.0870   -5.9439 N   0  0  0  0  0  0  0  0  0  0  0  0
   17.8042   24.3555   -5.5011 C   0  0  0  0  0  0  0  0  0  0  0  0
   17.8558   24.3460   -4.1627 N   0  0  0  0  0  0  0  0  0  0  0  0
    8.9651   20.6421   -3.3404 N   0  0  0  0  0  0  0  0  0  0  0  0
    9.6893   20.3458   -2.2295 C   0  0  0  0  0  0  0  0  0  0  0  0
   10.0571   21.3481   -1.3766 N   0  0  0  0  0  0  0  0  0  0  0  0
    9.6962   22.6341   -1.6345 C   0  0  0  0  0  0  0  0  0  0  0  0
    8.9737   22.9349   -2.7325 C   0  0  0  0  0  0  0  0  0  0  0  0
    8.6067   21.9084   -3.5979 C   0  0  0  0  0  0  0  0  0  0  0  0
    7.8598   22.0011   -4.8261 N   0  0  0  0  0  0  0  0  0  0  0  0
    8.7688   24.2740   -2.7283 N   0  0  0  0  0  0  0  0  0  0  0  0
    9.3652   24.7940   -1.6175 C   0  0  0  0  0  0  0  0  0  0  0  0
    9.9332   23.7718   -0.9464 N   0  0  0  0  0  0  0  0  0  0  0  0
  1  3  1  1  0  0  0
  1  5  2  0  0  0  0
  1  9  1  0  0  0  0
  1 18  1  0  0  0  0
  2  4  1  6  0  0  0
  2  6  2  0  0  0  0
  2 10  1  0  0  0  0
  2 17  1  0  0  0  0
  7  9  1  0  0  0  0
  8 10  1  0  0  0  0
 11  7  1  1  0  0  0
 11 13  1  0  0  0  0
 11 15  1  0  0  0  0
 12  8  1  6  0  0  0
 12 14  1  0  0  0  0
 12 16  1  0  0  0  0
 13 23  1  0  0  0  0
 14 24  1  0  0  0  0
 15 17  1  6  0  0  0
 15 19  1  0  0  0  0
 16 18  1  1  0  0  0
 16 20  1  0  0  0  0
 19 21  1  1  0  0  0
 19 23  1  0  0  0  0
 20 22  1  1  0  0  0
 20 24  1  0  0  0  0
 23 34  1  6  0  0  0
 24 44  1  6  0  0  0
 25 26  2  0  0  0  0
 25 30  1  0  0  0  0
 26 27  1  0  0  0  0
 27 28  2  0  0  0  0
 28 29  1  0  0  0  0
 28 34  1  0  0  0  0
 29 30  2  0  0  0  0
 29 32  1  0  0  0  0
 30 31  1  0  0  0  0
 32 33  2  0  0  0  0
 33 34  1  0  0  0  0
 35 36  2  0  0  0  0
 35 40  1  0  0  0  0
 36 37  1  0  0  0  0
 37 38  2  0  0  0  0
 38 39  1  0  0  0  0
 38 44  1  0  0  0  0
 39 40  2  0  0  0  0
 39 42  1  0  0  0  0
 40 41  1  0  0  0  0
 42 43  2  0  0  0  0
 43 44  1  0  0  0  0
M  CHG  2   3  -1   4  -1
M  END
>  <CHROM.1>
-1.29866321,155.52164112,14.06915559,24.09458359,-1.97088604,-0.05907170
0.26530426,0.31060296

>  <Name>
ligand

>  <RI>
0

>  <Rbt.Current_Directory>
/home/itssahil/PROJECTS/Mol_Feturizer/New_Systems/rnas/4QLM

>  <Rbt.Executable>
rbdock ($Id: //depot/dev/client3/rdock/2013.1/src/exe/rbdock.cxx#4 $)

>  <Rbt.Library>
libRbt.so (2013.1, Build901 2013/11/27)

>  <Rbt.Parameter_File>
/export/apps/rDock/src/rDock_2013.1_src/data/scripts/dock_solv.prm

>  <Rbt.Receptor>
prm/blind_docking_40.prm

>  <SCORE>
17.5647

>  <SCORE.INTER>
12.4885

>  <SCORE.INTER.CONST>
1

>  <SCORE.INTER.POLAR>
0

>  <SCORE.INTER.ROT>
2

>  <SCORE.INTER.SOLV>
48.3264

>  <SCORE.INTER.VDW>
-12.7165

>  <SCORE.INTER.norm>
0.283829

>  <SCORE.INTRA>
0.66797

>  <SCORE.INTRA.DIHEDRAL>
0.0616385

>  <SCORE.INTRA.DIHEDRAL.0>
2.32994

>  <SCORE.INTRA.POLAR>
0

>  <SCORE.INTRA.POLAR.0>
0

>  <SCORE.INTRA.REPUL>
0

>  <SCORE.INTRA.REPUL.0>
0

>  <SCORE.INTRA.SOLV>
0.131493

>  <SCORE.INTRA.SOLV.lig_0>
-117.703

>  <SCORE.INTRA.VDW>
0.571404

>  <SCORE.INTRA.VDW.0>
-1.59997

>  <SCORE.INTRA.norm>
0.0151811

>  <SCORE.RESTR>
4.40828

>  <SCORE.RESTR.CAVITY>
4.40828

>  <SCORE.RESTR.norm>
0.100188

>  <SCORE.SYSTEM>
0

>  <SCORE.SYSTEM.CONST>
0

>  <SCORE.SYSTEM.DIHEDRAL>
0

>  <SCORE.SYSTEM.SOLV>
0

>  <SCORE.SYSTEM.norm>
0

>  <SCORE.heavy>
44

>  <SCORE.norm>
0.399199

>  <RMSD>
27.018

$$$$
ligand
 OpenBabel11021811513D
libRbt.so/2013.1/901 2013/11/27
 44 50  0  0  0  0  0  0  0  0999 V2000
   15.0701   23.2784    0.5910 P   0  0  2  0  0  0  0  0  0  0  0  0
   13.4302   27.3075   -2.6157 P   0  0  1  0  0  0  0  0  0  0  0  0
   16.2089   23.3420    1.6057 O   0  5  0  0  0  0  0  0  0  0  0  0
   13.1973   26.6625   -3.9602 O   0  5  0  0  0  0  0  0  0  0  0  0
   14.9463   21.8280    0.1903 O   0  0  0  0  0  0  0  0  0  0  0  0
   12.7966   28.7165   -2.6643 O   0  0  0  0  0  0  0  0  0  0  0  0
   16.3536   25.3213   -0.1968 C   0  0  0  0  0  0  0  0  0  0  0  0
   13.0801   26.6278   -0.1491 C   0  0  0  0  0  0  0  0  0  0  0  0
   15.5123   24.2227   -0.5733 O   0  0  0  0  0  0  0  0  0  0  0  0
   12.8411   26.2245   -1.5271 O   0  0  0  0  0  0  0  0  0  0  0  0
   16.7463   26.1286   -1.4295 C   0  0  1  0  0  0  0  0  0  0  0  0
   12.3414   25.5691    0.7536 C   0  0  1  0  0  0  0  0  0  0  0  0
   17.7803   25.5628   -1.9708 O   0  0  0  0  0  0  0  0  0  0  0  0
   11.1577   25.5090    0.2961 O   0  0  0  0  0  0  0  0  0  0  0  0
   15.6678   26.1634   -2.4878 C   0  0  1  0  0  0  0  0  0  0  0  0
   12.8769   24.1480    0.4881 C   0  0  1  0  0  0  0  0  0  0  0  0
   15.0334   27.3587   -2.3573 O   0  0  0  0  0  0  0  0  0  0  0  0
   13.7312   23.7619    1.4436 O   0  0  0  0  0  0  0  0  0  0  0  0
   16.4712   26.1173   -3.8341 C   0  0  1  0  0  0  0  0  0  0  0  0
   11.6502   23.2097    0.4226 C   0  0  1  0  0  0  0  0  0  0  0  0
   16.5514   27.4790   -4.4282 O   0  0  0  0  0  0  0  0  0  0  0  0
   11.5093   22.4404    1.7007 O   0  0  0  0  0  0  0  0  0  0  0  0
   17.6496   25.6647   -3.5476 C   0  0  2  0  0  0  0  0  0  0  0  0
   10.6386   23.9951    0.2777 C   0  0  2  0  0  0  0  0  0  0  0  0
   18.6926   20.3985   -3.5179 N   0  0  0  0  0  0  0  0  0  0  0  0
   18.5909   21.1947   -2.4166 C   0  0  0  0  0  0  0  0  0  0  0  0
   18.3188   22.5342   -2.5313 N   0  0  0  0  0  0  0  0  0  0  0  0
   18.1505   23.0729   -3.7770 C   0  0  0  0  0  0  0  0  0  0  0  0
   18.2547   22.3039   -4.8698 C   0  0  0  0  0  0  0  0  0  0  0  0
   18.5220   20.9418   -4.7439 C   0  0  0  0  0  0  0  0  0  0  0  0
   18.6554   20.0281   -5.8080 N   0  0  0  0  0  0  0  0  0  0  0  0
   18.0402   23.0868   -5.9484 N   0  0  0  0  0  0  0  0  0  0  0  0
   17.8087   24.3555   -5.5058 C   0  0  0  0  0  0  0  0  0  0  0  0
   17.8589   24.3459   -4.1674 N   0  0  0  0  0  0  0  0  0  0  0  0
    8.9723   20.6476   -3.3469 N   0  0  0  0  0  0  0  0  0  0  0  0
    9.6975   20.3513   -2.2367 C   0  0  0  0  0  0  0  0  0  0  0  0
   10.0642   21.3533   -1.3829 N   0  0  0  0  0  0  0  0  0  0  0  0
    9.7010   22.6390   -1.6391 C   0  0  0  0  0  0  0  0  0  0  0  0
    8.9774   22.9398   -2.7365 C   0  0  0  0  0  0  0  0  0  0  0  0
    8.6116   21.9136   -3.6028 C   0  0  0  0  0  0  0  0  0  0  0  0
    7.8639   22.0065   -4.8305 N   0  0  0  0  0  0  0  0  0  0  0  0
    8.7703   24.2785   -2.7306 N   0  0  0  0  0  0  0  0  0  0  0  0
    9.3664   24.7983   -1.6196 C   0  0  0  0  0  0  0  0  0  0  0  0
    9.9364   23.7762   -0.9499 N   0  0  0  0  0  0  0  0  0  0  0  0
  1  3  1  1  0  0  0
  1  5  2  0  0  0  0
  1  9  1  0  0  0  0
  1 18  1  0  0  0  0
  2  4  1  6  0  0  0
  2  6  2  0  0  0  0
  2 10  1  0  0  0  0
  2 17  1  0  0  0  0
  7  9  1  0  0  0  0
  8 10  1  0  0  0  0
 11  7  1  1  0  0  0
 11 13  1  0  0  0  0
 11 15  1  0  0  0  0
 12  8  1  6  0  0  0
 12 14  1  0  0  0  0
 12 16  1  0  0  0  0
 13 23  1  0  0  0  0
 14 24  1  0  0  0  0
 15 17  1  6  0  0  0
 15 19  1  0  0  0  0
 16 18  1  1  0  0  0
 16 20  1  0  0  0  0
 19 21  1  1  0  0  0
 19 23  1  0  0  0  0
 20 22  1  1  0  0  0
 20 24  1  0  0  0  0
 23 34  1  6  0  0  0
 24 44  1  6  0  0  0
 25 26  2  0  0  0  0
 25 30  1  0  0  0  0
 26 27  1  0  0  0  0
 27 28  2  0  0  0  0
 28 29  1  0  0  0  0
 28 34  1  0  0  0  0
 29 30  2  0  0  0  0
 29 32  1  0  0  0  0
 30 31  1  0  0  0  0
 32 33  2  0  0  0  0
 33 34  1  0  0  0  0
 35 36  2  0  0  0  0
 35 40  1  0  0  0  0
 36 37  1  0  0  0  0
 37 38  2  0  0  0  0
 38 39  1  0  0  0  0
 38 44  1  0  0  0  0
 39 40  2  0  0  0  0
 39 42  1  0  0  0  0
 40 41  1  0  0  0  0
 42 43  2  0  0  0  0
 43 44  1  0  0  0  0
M  CHG  2   3  -1   4  -1
M  END
>  <CHROM.1>
-1.22701632,155.37615646,14.07269993,24.09677145,-1.97526978,-0.06000115
0.26527754,0.31108307

>  <Name>
ligand

>  <RI>
0

>  <Rbt.Current_Directory>
/home/itssahil/PROJECTS/Mol_Feturizer/New_Systems/rnas/4QLM

>  <Rbt.Executable>
rbdock ($Id: //depot/dev/client3/rdock/2013.1/src/exe/rbdock.cxx#4 $)

>  <Rbt.Library>
libRbt.so (2013.1, Build901 2013/11/27)

>  <Rbt.Parameter_File>
/export/apps/rDock/src/rDock_2013.1_src/data/scripts/dock_solv.prm

>  <Rbt.Receptor>
prm/blind_docking_40.prm

>  <SCORE>
17.6192

>  <SCORE.INTER>
12.5609

>  <SCORE.INTER.CONST>
1

>  <SCORE.INTER.POLAR>
0

>  <SCORE.INTER.ROT>
2

>  <SCORE.INTER.SOLV>
48.3619

>  <SCORE.INTER.VDW>
-12.6801

>  <SCORE.INTER.norm>
0.285474

>  <SCORE.INTRA>
0.665141

>  <SCORE.INTRA.DIHEDRAL>
0.0620085

>  <SCORE.INTRA.DIHEDRAL.0>
2.32994

>  <SCORE.INTRA.POLAR>
0

>  <SCORE.INTRA.POLAR.0>
0

>  <SCORE.INTRA.REPUL>
0

>  <SCORE.INTRA.REPUL.0>
0

>  <SCORE.INTRA.SOLV>
0.131432

>  <SCORE.INTRA.SOLV.lig_0>
-117.703

>  <SCORE.INTRA.VDW>
0.56842

>  <SCORE.INTRA.VDW.0>
-1.59997

>  <SCORE.INTRA.norm>
0.0151168

>  <SCORE.RESTR>
4.39325

>  <SCORE.RESTR.CAVITY>
4.39325

>  <SCORE.RESTR.norm>
0.0998465

>  <SCORE.SYSTEM>
0

>  <SCORE.SYSTEM.CONST>
0

>  <SCORE.SYSTEM.DIHEDRAL>
0

>  <SCORE.SYSTEM.SOLV>
0

>  <SCORE.SYSTEM.norm>
0

>  <SCORE.heavy>
44

>  <SCORE.norm>
0.400437

>  <RMSD>
27.018

$$$$
ligand
 OpenBabel11021811513D
libRbt.so/2013.1/901 2013/11/27
 44 50  0  0  0  0  0  0  0  0999 V2000
   15.2955   23.1115    0.5093 P   0  0  2  0  0  0  0  0  0  0  0  0
   13.3855   26.9273   -2.8069 P   0  0  1  0  0  0  0  0  0  0  0  0
   16.3451   23.3097    1.5999 O   0  5  0  0  0  0  0  0  0  0  0  0
   13.3280   26.2684   -4.1636 O   0  5  0  0  0  0  0  0  0  0  0  0
   15.3824   21.6601    0.1026 O   0  0  0  0  0  0  0  0  0  0  0  0
   12.5848   28.2461   -2.9005 O   0  0  0  0  0  0  0  0  0  0  0  0
   16.3630   25.3051   -0.1906 C   0  0  0  0  0  0  0  0  0  0  0  0
   12.9558   26.1904   -0.3696 C   0  0  0  0  0  0  0  0  0  0  0  0
   15.6941   24.1126   -0.6228 O   0  0  0  0  0  0  0  0  0  0  0  0
   12.8641   25.7708   -1.7603 O   0  0  0  0  0  0  0  0  0  0  0  0
   16.7345   26.1646   -1.3942 C   0  0  1  0  0  0  0  0  0  0  0  0
   12.2959   25.0407    0.4813 C   0  0  1  0  0  0  0  0  0  0  0  0
   17.8660   25.7370   -1.8625 O   0  0  0  0  0  0  0  0  0  0  0  0
   11.1632   24.8361   -0.0565 O   0  0  0  0  0  0  0  0  0  0  0  0
   15.7351   26.0719   -2.5242 C   0  0  1  0  0  0  0  0  0  0  0  0
   13.0225   23.6999    0.2548 C   0  0  1  0  0  0  0  0  0  0  0  0
   14.9481   27.1772   -2.4390 O   0  0  0  0  0  0  0  0  0  0  0  0
   13.8512   23.4168    1.2672 O   0  0  0  0  0  0  0  0  0  0  0  0
   16.6281   26.1371   -3.8120 C   0  0  1  0  0  0  0  0  0  0  0  0
   11.9308   22.6158    0.1061 C   0  0  1  0  0  0  0  0  0  0  0  0
   16.5771   27.5025   -4.4006 O   0  0  0  0  0  0  0  0  0  0  0  0
   11.8007   21.8252    1.3723 O   0  0  0  0  0  0  0  0  0  0  0  0
   17.8317   25.8336   -3.4446 C   0  0  2  0  0  0  0  0  0  0  0  0
   10.8409   23.2692   -0.1089 C   0  0  2  0  0  0  0  0  0  0  0  0
   17.0000   21.0109   -5.6516 N   0  0  0  0  0  0  0  0  0  0  0  0
   16.0294   21.8832   -5.2590 C   0  0  0  0  0  0  0  0  0  0  0  0
   16.3473   23.0969   -4.7045 N   0  0  0  0  0  0  0  0  0  0  0  0
   17.6643   23.4285   -4.5438 C   0  0  0  0  0  0  0  0  0  0  0  0
   18.6300   22.5780   -4.9185 C   0  0  0  0  0  0  0  0  0  0  0  0
   18.2984   21.3507   -5.4899 C   0  0  0  0  0  0  0  0  0  0  0  0
   19.2136   20.3717   -5.9245 N   0  0  0  0  0  0  0  0  0  0  0  0
   19.8191   23.1587   -4.6518 N   0  0  0  0  0  0  0  0  0  0  0  0
   19.5738   24.3806   -4.0986 C   0  0  0  0  0  0  0  0  0  0  0  0
   18.2469   24.5562   -4.0471 N   0  0  0  0  0  0  0  0  0  0  0  0
   11.5037   21.8232   -5.0677 N   0  0  0  0  0  0  0  0  0  0  0  0
   12.4752   21.9999   -4.1342 C   0  0  0  0  0  0  0  0  0  0  0  0
   12.1333   22.3913   -2.8704 N   0  0  0  0  0  0  0  0  0  0  0  0
   10.8283   22.5975   -2.5463 C   0  0  0  0  0  0  0  0  0  0  0  0
    9.8587   22.4196   -3.4663 C   0  0  0  0  0  0  0  0  0  0  0  0
   10.2160   22.0247   -4.7522 C   0  0  0  0  0  0  0  0  0  0  0  0
    9.3578   21.7962   -5.8863 N   0  0  0  0  0  0  0  0  0  0  0  0
    8.6759   22.6966   -2.8667 N   0  0  0  0  0  0  0  0  0  0  0  0
    8.9240   23.0406   -1.5706 C   0  0  0  0  0  0  0  0  0  0  0  0
   10.2573   22.9733   -1.3816 N   0  0  0  0  0  0  0  0  0  0  0  0
  1  3  1  1  0  0  0
  1  5  2  0  0  0  0
  1  9  1  0  0  0  0
  1 18  1  0  0  0  0
  2  4  1  6  0  0  0
  2  6  2  0  0  0  0
  2 10  1  0  0  0  0
  2 17  1  0  0  0  0
  7  9  1  0  0  0  0
  8 10  1  0  0  0  0
 11  7  1  1  0  0  0
 11 13  1  0  0  0  0
 11 15  1  0  0  0  0
 12  8  1  6  0  0  0
 12 14  1  0  0  0  0
 12 16  1  0  0  0  0
 13 23  1  0  0  0  0
 14 24  1  0  0  0  0
 15 17  1  6  0  0  0
 15 19  1  0  0  0  0
 16 18  1  1  0  0  0
 16 20  1  0  0  0  0
 19 21  1  1  0  0  0
 19 23  1  0  0  0  0
 20 22  1  1  0  0  0
 20 24  1  0  0  0  0
 23 34  1  6  0  0  0
 24 44  1  6  0  0  0
 25 26  2  0  0  0  0
 25 30  1  0  0  0  0
 26 27  1  0  0  0  0
 27 28  2  0  0  0  0
 28 29  1  0  0  0  0
 28 34  1  0  0  0  0
 29 30  2  0  0  0  0
 29 32  1  0  0  0  0
 30 31  1  0  0  0  0
 32 33  2  0  0  0  0
 33 34  1  0  0  0  0
 35 36  2  0  0  0  0
 35 40  1  0  0  0  0
 36 37  1  0  0  0  0
 37 38  2  0  0  0  0
 38 39  1  0  0  0  0
 38 44  1  0  0  0  0
 39 40  2  0  0  0  0
 39 42  1  0  0  0  0
 40 41  1  0  0  0  0
 42 43  2  0  0  0  0
 43 44  1  0  0  0  0
M  CHG  2   3  -1   4  -1
M  END
>  <CHROM.1>
95.67733317,90.87230350,14.33290852,23.98971187,-2.36660679,-2.90905414,-0.24845655
-2.17077443

>  <Name>
ligand

>  <RI>
0

>  <Rbt.Current_Directory>
/home/itssahil/PROJECTS/Mol_Feturizer/New_Systems/rnas/4QLM

>  <Rbt.Executable>
rbdock ($Id: //depot/dev/client3/rdock/2013.1/src/exe/rbdock.cxx#4 $)

>  <Rbt.Library>
libRbt.so (2013.1, Build901 2013/11/27)

>  <Rbt.Parameter_File>
/export/apps/rDock/src/rDock_2013.1_src/data/scripts/dock_solv.prm

>  <Rbt.Receptor>
prm/blind_docking_40.prm

>  <SCORE>
39.488

>  <SCORE.INTER>
35.9835

>  <SCORE.INTER.CONST>
1

>  <SCORE.INTER.POLAR>
0

>  <SCORE.INTER.ROT>
2

>  <SCORE.INTER.SOLV>
55.5206

>  <SCORE.INTER.VDW>
0.54879

>  <SCORE.INTER.norm>
0.817806

>  <SCORE.INTRA>
-0.989035

>  <SCORE.INTRA.DIHEDRAL>
-0.0160866

>  <SCORE.INTRA.DIHEDRAL.0>
2.32994

>  <SCORE.INTRA.POLAR>
0

>  <SCORE.INTRA.POLAR.0>
0

>  <SCORE.INTRA.REPUL>
0

>  <SCORE.INTRA.REPUL.0>
0

>  <SCORE.INTRA.SOLV>
0.0239367

>  <SCORE.INTRA.SOLV.lig_0>
-117.703

>  <SCORE.INTRA.VDW>
-0.99296

>  <SCORE.INTRA.VDW.0>
-1.59997

>  <SCORE.INTRA.norm>
-0.0224781

>  <SCORE.RESTR>
4.49359

>  <SCORE.RESTR.CAVITY>
4.49359

>  <SCORE.RESTR.norm>
0.102127

>  <SCORE.SYSTEM>
0

>  <SCORE.SYSTEM.CONST>
0

>  <SCORE.SYSTEM.DIHEDRAL>
0

>  <SCORE.SYSTEM.SOLV>
0

>  <SCORE.SYSTEM.norm>
0

>  <SCORE.heavy>
44

>  <SCORE.norm>
0.897455

>  <RMSD>
27.041

$$$$
ligand
 OpenBabel11021811513D
libRbt.so/2013.1/901 2013/11/27
 44 50  0  0  0  0  0  0  0  0999 V2000
   15.2980   23.1172    0.5122 P   0  0  2  0  0  0  0  0  0  0  0  0
   13.3909   26.9345   -2.8039 P   0  0  1  0  0  0  0  0  0  0  0  0
   16.3487   23.3143    1.6021 O   0  5  0  0  0  0  0  0  0  0  0  0
   13.3315   26.2752   -4.1603 O   0  5  0  0  0  0  0  0  0  0  0  0
   15.3827   21.6655    0.1060 O   0  0  0  0  0  0  0  0  0  0  0  0
   12.5920   28.2543   -2.8974 O   0  0  0  0  0  0  0  0  0  0  0  0
   16.3681   25.3090   -0.1891 C   0  0  0  0  0  0  0  0  0  0  0  0
   12.9619   26.1990   -0.3660 C   0  0  0  0  0  0  0  0  0  0  0  0
   15.6972   24.1173   -0.6205 O   0  0  0  0  0  0  0  0  0  0  0  0
   12.8687   25.7790   -1.7565 O   0  0  0  0  0  0  0  0  0  0  0  0
   16.7399   26.1676   -1.3933 C   0  0  1  0  0  0  0  0  0  0  0  0
   12.3011   25.0504    0.4858 C   0  0  1  0  0  0  0  0  0  0  0  0
   17.8704   25.7383   -1.8623 O   0  0  0  0  0  0  0  0  0  0  0  0
   11.1677   24.8472   -0.0511 O   0  0  0  0  0  0  0  0  0  0  0  0
   15.7395   26.0759   -2.5226 C   0  0  1  0  0  0  0  0  0  0  0  0
   13.0257   23.7086    0.2592 C   0  0  1  0  0  0  0  0  0  0  0  0
   14.9541   27.1823   -2.4371 O   0  0  0  0  0  0  0  0  0  0  0  0
   13.8547   23.4247    1.2712 O   0  0  0  0  0  0  0  0  0  0  0  0
   16.6317   26.1394   -3.8110 C   0  0  1  0  0  0  0  0  0  0  0  0
   11.9324   22.6260    0.1117 C   0  0  1  0  0  0  0  0  0  0  0  0
   16.5821   27.5047   -4.4001 O   0  0  0  0  0  0  0  0  0  0  0  0
   11.8021   21.8360    1.3783 O   0  0  0  0  0  0  0  0  0  0  0  0
   17.8351   25.8344   -3.4444 C   0  0  2  0  0  0  0  0  0  0  0  0
   10.8432   23.2808   -0.1027 C   0  0  2  0  0  0  0  0  0  0  0  0
   16.9951   21.0145   -5.6542 N   0  0  0  0  0  0  0  0  0  0  0  0
   16.0260   21.8890   -5.2627 C   0  0  0  0  0  0  0  0  0  0  0  0
   16.3460   23.1017   -4.7073 N   0  0  0  0  0  0  0  0  0  0  0  0
   17.6635   23.4301   -4.5447 C   0  0  0  0  0  0  0  0  0  0  0  0
   18.6278   22.5774   -4.9183 C   0  0  0  0  0  0  0  0  0  0  0  0
   18.2940   21.3511   -5.4906 C   0  0  0  0  0  0  0  0  0  0  0  0
   19.2076   20.3701   -5.9242 N   0  0  0  0  0  0  0  0  0  0  0  0
   19.8178   23.1552   -4.6497 N   0  0  0  0  0  0  0  0  0  0  0  0
   19.5747   24.3775   -4.0964 C   0  0  0  0  0  0  0  0  0  0  0  0
   18.2481   24.5562   -4.0467 N   0  0  0  0  0  0  0  0  0  0  0  0
   11.4990   21.8180   -5.0576 N   0  0  0  0  0  0  0  0  0  0  0  0
   12.4712   21.9911   -4.1241 C   0  0  0  0  0  0  0  0  0  0  0  0
   12.1313   22.3878   -2.8614 N   0  0  0  0  0  0  0  0  0  0  0  0
   10.8275   22.6029   -2.5385 C   0  0  0  0  0  0  0  0  0  0  0  0
    9.8570   22.4287   -3.4583 C   0  0  0  0  0  0  0  0  0  0  0  0
   10.2125   22.0283   -4.7431 C   0  0  0  0  0  0  0  0  0  0  0  0
    9.3532   21.8022   -5.8770 N   0  0  0  0  0  0  0  0  0  0  0  0
    8.6758   22.7146   -2.8600 N   0  0  0  0  0  0  0  0  0  0  0  0
    8.9255   23.0603   -1.5646 C   0  0  0  0  0  0  0  0  0  0  0  0
   10.2584   22.9852   -1.3750 N   0  0  0  0  0  0  0  0  0  0  0  0
  1  3  1  1  0  0  0
  1  5  2  0  0  0  0
  1  9  1  0  0  0  0
  1 18  1  0  0  0  0
  2  4  1  6  0  0  0
  2  6  2  0  0  0  0
  2 10  1  0  0  0  0
  2 17  1  0  0  0  0
  7  9  1  0  0  0  0
  8 10  1  0  0  0  0
 11  7  1  1  0  0  0
 11 13  1  0  0  0  0
 11 15  1  0  0  0  0
 12  8  1  6  0  0  0
 12 14  1  0  0  0  0
 12 16  1  0  0  0  0
 13 23  1  0  0  0  0
 14 24  1  0  0  0  0
 15 17  1  6  0  0  0
 15 19  1  0  0  0  0
 16 18  1  1  0  0  0
 16 20  1  0  0  0  0
 19 21  1  1  0  0  0
 19 23  1  0  0  0  0
 20 22  1  1  0  0  0
 20 24  1  0  0  0  0
 23 34  1  6  0  0  0
 24 44  1  6  0  0  0
 25 26  2  0  0  0  0
 25 30  1  0  0  0  0
 26 27  1  0  0  0  0
 27 28  2  0  0  0  0
 28 29  1  0  0  0  0
 28 34  1  0  0  0  0
 29 30  2  0  0  0  0
 29 32  1  0  0  0  0
 30 31  1  0  0  0  0
 32 33  2  0  0  0  0
 33 34  1  0  0  0  0
 35 36  2  0  0  0  0
 35 40  1  0  0  0  0
 36 37  1  0  0  0  0
 37 38  2  0  0  0  0
 38 39  1  0  0  0  0
 38 44  1  0  0  0  0
 39 40  2  0  0  0  0
 39 42  1  0  0  0  0
 40 41  1  0  0  0  0
 42 43  2  0  0  0  0
 43 44  1  0  0  0  0
M  CHG  2   3  -1   4  -1
M  END
>  <CHROM.1>
95.81771926,91.18250768,14.33445813,23.99479050,-2.36326641,-2.90821602,-0.24849189
-2.17235864

>  <Name>
ligand

>  <RI>
0

>  <Rbt.Current_Directory>
/home/itssahil/PROJECTS/Mol_Feturizer/New_Systems/rnas/4QLM

>  <Rbt.Executable>
rbdock ($Id: //depot/dev/client3/rdock/2013.1/src/exe/rbdock.cxx#4 $)

>  <Rbt.Library>
libRbt.so (2013.1, Build901 2013/11/27)

>  <Rbt.Parameter_File>
/export/apps/rDock/src/rDock_2013.1_src/data/scripts/dock_solv.prm

>  <Rbt.Receptor>
prm/blind_docking_40.prm

>  <SCORE>
39.3716

>  <SCORE.INTER>
35.8072

>  <SCORE.INTER.CONST>
1

>  <SCORE.INTER.POLAR>
0

>  <SCORE.INTER.ROT>
2

>  <SCORE.INTER.SOLV>
55.4549

>  <SCORE.INTER.VDW>
0.453151

>  <SCORE.INTER.norm>
0.813799

>  <SCORE.INTRA>
-0.959524

>  <SCORE.INTRA.DIHEDRAL>
-0.0158033

>  <SCORE.INTRA.DIHEDRAL.0>
2.32994

>  <SCORE.INTRA.POLAR>
0

>  <SCORE.INTRA.POLAR.0>
0

>  <SCORE.INTRA.REPUL>
0

>  <SCORE.INTRA.REPUL.0>
0

>  <SCORE.INTRA.SOLV>
0.0241572

>  <SCORE.INTRA.SOLV.lig_0>
-117.703

>  <SCORE.INTRA.VDW>
-0.963701

>  <SCORE.INTRA.VDW.0>
-1.59997

>  <SCORE.INTRA.norm>
-0.0218074

>  <SCORE.RESTR>
4.52395

>  <SCORE.RESTR.CAVITY>
4.52395

>  <SCORE.RESTR.norm>
0.102817

>  <SCORE.SYSTEM>
0

>  <SCORE.SYSTEM.CONST>
0

>  <SCORE.SYSTEM.DIHEDRAL>
0

>  <SCORE.SYSTEM.SOLV>
0

>  <SCORE.SYSTEM.norm>
0

>  <SCORE.heavy>
44

>  <SCORE.norm>
0.894809

>  <RMSD>
27.042

$$$$
ligand
 OpenBabel11021811513D
libRbt.so/2013.1/901 2013/11/27
 44 50  0  0  0  0  0  0  0  0999 V2000
   15.3352   23.0885    0.4780 P   0  0  2  0  0  0  0  0  0  0  0  0
   13.3973   26.9199   -2.8038 P   0  0  1  0  0  0  0  0  0  0  0  0
   16.3811   23.2851    1.5725 O   0  5  0  0  0  0  0  0  0  0  0  0
   13.3481   26.2740   -4.1670 O   0  5  0  0  0  0  0  0  0  0  0  0
   15.4358   21.6420    0.0572 O   0  0  0  0  0  0  0  0  0  0  0  0
   12.5851   28.2323   -2.8858 O   0  0  0  0  0  0  0  0  0  0  0  0
   16.3844   25.2983   -0.1981 C   0  0  0  0  0  0  0  0  0  0  0  0
   12.9698   26.1551   -0.3747 C   0  0  0  0  0  0  0  0  0  0  0  0
   15.7269   24.1042   -0.6433 O   0  0  0  0  0  0  0  0  0  0  0  0
   12.8844   25.7484   -1.7697 O   0  0  0  0  0  0  0  0  0  0  0  0
   16.7504   26.1730   -1.3924 C   0  0  1  0  0  0  0  0  0  0  0  0
   12.3186   24.9911    0.4636 C   0  0  1  0  0  0  0  0  0  0  0  0
   17.8865   25.7601   -1.8628 O   0  0  0  0  0  0  0  0  0  0  0  0
   11.1888   24.7818   -0.0784 O   0  0  0  0  0  0  0  0  0  0  0  0
   15.7539   26.0826   -2.5252 C   0  0  1  0  0  0  0  0  0  0  0  0
   13.0576   23.6592    0.2252 C   0  0  1  0  0  0  0  0  0  0  0  0
   14.9570   27.1799   -2.4304 O   0  0  0  0  0  0  0  0  0  0  0  0
   13.8869   23.3734    1.2363 O   0  0  0  0  0  0  0  0  0  0  0  0
   16.6486   26.1685   -3.8106 C   0  0  1  0  0  0  0  0  0  0  0  0
   11.9758   22.5670    0.0637 C   0  0  1  0  0  0  0  0  0  0  0  0
   16.5864   27.5392   -4.3857 O   0  0  0  0  0  0  0  0  0  0  0  0
   11.8504   21.7627    1.3218 O   0  0  0  0  0  0  0  0  0  0  0  0
   17.8542   25.8721   -3.4439 C   0  0  2  0  0  0  0  0  0  0  0  0
   10.8805   23.2128   -0.1469 C   0  0  2  0  0  0  0  0  0  0  0  0
   17.0706   21.0494   -5.6686 N   0  0  0  0  0  0  0  0  0  0  0  0
   16.0914   21.9047   -5.2602 C   0  0  0  0  0  0  0  0  0  0  0  0
   16.3972   23.1200   -4.7024 N   0  0  0  0  0  0  0  0  0  0  0  0
   17.7107   23.4708   -4.5548 C   0  0  0  0  0  0  0  0  0  0  0  0
   18.6849   22.6371   -4.9451 C   0  0  0  0  0  0  0  0  0  0  0  0
   18.3654   21.4080   -5.5196 C   0  0  0  0  0  0  0  0  0  0  0  0
   19.2904   20.4454   -5.9700 N   0  0  0  0  0  0  0  0  0  0  0  0
   19.8680   23.2343   -4.6885 N   0  0  0  0  0  0  0  0  0  0  0  0
   19.6105   24.4493   -4.1257 C   0  0  0  0  0  0  0  0  0  0  0  0
   18.2818   24.6044   -4.0583 N   0  0  0  0  0  0  0  0  0  0  0  0
   11.5665   21.8383   -5.1229 N   0  0  0  0  0  0  0  0  0  0  0  0
   12.5348   22.0175   -4.1866 C   0  0  0  0  0  0  0  0  0  0  0  0
   12.1868   22.3881   -2.9182 N   0  0  0  0  0  0  0  0  0  0  0  0
   10.8788   22.5713   -2.5925 C   0  0  0  0  0  0  0  0  0  0  0  0
    9.9122   22.3910   -3.5152 C   0  0  0  0  0  0  0  0  0  0  0  0
   10.2759   22.0173   -4.8057 C   0  0  0  0  0  0  0  0  0  0  0  0
    9.4215   21.7905   -5.9431 N   0  0  0  0  0  0  0  0  0  0  0  0
    8.7253   22.6433   -2.9130 N   0  0  0  0  0  0  0  0  0  0  0  0
    8.9678   22.9746   -1.6125 C   0  0  0  0  0  0  0  0  0  0  0  0
   10.3019   22.9243   -1.4236 N   0  0  0  0  0  0  0  0  0  0  0  0
  1  3  1  1  0  0  0
  1  5  2  0  0  0  0
  1  9  1  0  0  0  0
  1 18  1  0  0  0  0
  2  4  1  6  0  0  0
  2  6  2  0  0  0  0
  2 10  1  0  0  0  0
  2 17  1  0  0  0  0
  7  9  1  0  0  0  0
  8 10  1  0  0  0  0
 11  7  1  1  0  0  0
 11 13  1  0  0  0  0
 11 15  1  0  0  0  0
 12  8  1  6  0  0  0
 12 14  1  0  0  0  0
 12 16  1  0  0  0  0
 13 23  1  0  0  0  0
 14 24  1  0  0  0  0
 15 17  1  1  0  0  0
 15 19  1  0  0  0  0
 16 18  1  1  0  0  0
 16 20  1  0  0  0  0
 19 21  1  1  0  0  0
 19 23  1  0  0  0  0
 20 22  1  1  0  0  0
 20 24  1  0  0  0  0
 23 34  1  6  0  0  0
 24 44  1  6  0  0  0
 25 26  2  0  0  0  0
 25 30  1  0  0  0  0
 26 27  1  0  0  0  0
 27 28  2  0  0  0  0
 28 29  1  0  0  0  0
 28 34  1  0  0  0  0
 29 30  2  0  0  0  0
 29 32  1  0  0  0  0
 30 31  1  0  0  0  0
 32 33  2  0  0  0  0
 33 34  1  0  0  0  0
 35 36  2  0  0  0  0
 35 40  1  0  0  0  0
 36 37  1  0  0  0  0
 37 38  2  0  0  0  0
 38 39  1  0  0  0  0
 38 44  1  0  0  0  0
 39 40  2  0  0  0  0
 39 42  1  0  0  0  0
 40 41  1  0  0  0  0
 42 43  2  0  0  0  0
 43 44  1  0  0  0  0
M  CHG  2   3  -1   4  -1
M  END
>  <CHROM.1>
94.80665076,90.51300351,14.37027489,23.98686261,-2.38901099,-2.91685565,-0.25410602
-2.16422636

>  <Name>
ligand

>  <RI>
0

>  <Rbt.Current_Directory>
/home/itssahil/PROJECTS/Mol_Feturizer/New_Systems/rnas/4QLM

>  <Rbt.Executable>
rbdock ($Id: //depot/dev/client3/rdock/2013.1/src/exe/rbdock.cxx#4 $)

>  <Rbt.Library>
libRbt.so (2013.1, Build901 2013/11/27)

>  <Rbt.Parameter_File>
/export/apps/rDock/src/rDock_2013.1_src/data/scripts/dock_solv.prm

>  <Rbt.Receptor>
prm/blind_docking_80.prm

>  <SCORE>
41.4292

>  <SCORE.INTER>
35.9464

>  <SCORE.INTER.CONST>
1

>  <SCORE.INTER.POLAR>
0

>  <SCORE.INTER.ROT>
2

>  <SCORE.INTER.SOLV>
55.3131

>  <SCORE.INTER.VDW>
0.593194

>  <SCORE.INTER.norm>
0.816963

>  <SCORE.INTRA>
-1.01459

>  <SCORE.INTRA.DIHEDRAL>
-0.0177696

>  <SCORE.INTRA.DIHEDRAL.0>
2.32994

>  <SCORE.INTRA.POLAR>
0

>  <SCORE.INTRA.POLAR.0>
0

>  <SCORE.INTRA.REPUL>
0

>  <SCORE.INTRA.REPUL.0>
0

>  <SCORE.INTRA.SOLV>
0.023583

>  <SCORE.INTRA.SOLV.lig_0>
-117.703

>  <SCORE.INTRA.VDW>
-1.01749

>  <SCORE.INTRA.VDW.0>
-1.59997

>  <SCORE.INTRA.norm>
-0.0230588

>  <SCORE.RESTR>
6.49738

>  <SCORE.RESTR.CAVITY>
6.49738

>  <SCORE.RESTR.norm>
0.147668

>  <SCORE.SYSTEM>
0

>  <SCORE.SYSTEM.CONST>
0

>  <SCORE.SYSTEM.DIHEDRAL>
0

>  <SCORE.SYSTEM.SOLV>
0

>  <SCORE.SYSTEM.norm>
0

>  <SCORE.heavy>
44

>  <SCORE.norm>
0.941572

>  <RMSD>
27.059

$$$$
ligand
 OpenBabel11021811513D
libRbt.so/2013.1/901 2013/11/27
 44 50  0  0  0  0  0  0  0  0999 V2000
   15.3306   23.0705    0.4771 P   0  0  2  0  0  0  0  0  0  0  0  0
   13.3780   26.9056   -2.7917 P   0  0  1  0  0  0  0  0  0  0  0  0
   16.3707   23.2688    1.5767 O   0  5  0  0  0  0  0  0  0  0  0  0
   13.3387   26.2667   -4.1586 O   0  5  0  0  0  0  0  0  0  0  0  0
   15.4433   21.6271    0.0489 O   0  0  0  0  0  0  0  0  0  0  0  0
   12.5566   28.2126   -2.8699 O   0  0  0  0  0  0  0  0  0  0  0  0
   16.3665   25.2914   -0.1830 C   0  0  0  0  0  0  0  0  0  0  0  0
   12.9465   26.1246   -0.3684 C   0  0  0  0  0  0  0  0  0  0  0  0
   15.7194   24.0951   -0.6372 O   0  0  0  0  0  0  0  0  0  0  0  0
   12.8694   25.7249   -1.7659 O   0  0  0  0  0  0  0  0  0  0  0  0
   16.7308   26.1752   -1.3712 C   0  0  1  0  0  0  0  0  0  0  0  0
   12.3004   24.9515    0.4610 C   0  0  1  0  0  0  0  0  0  0  0  0
   17.8717   25.7730   -1.8393 O   0  0  0  0  0  0  0  0  0  0  0  0
   11.1743   24.7370   -0.0865 O   0  0  0  0  0  0  0  0  0  0  0  0
   15.7394   26.0837   -2.5083 C   0  0  1  0  0  0  0  0  0  0  0  0
   13.0499   23.6262    0.2183 C   0  0  1  0  0  0  0  0  0  0  0  0
   14.9342   27.1748   -2.4108 O   0  0  0  0  0  0  0  0  0  0  0  0
   13.8774   23.3409    1.2311 O   0  0  0  0  0  0  0  0  0  0  0  0
   16.6385   26.1830   -3.7897 C   0  0  1  0  0  0  0  0  0  0  0  0
   11.9767   22.5271    0.0467 C   0  0  1  0  0  0  0  0  0  0  0  0
   16.5687   27.5563   -4.3577 O   0  0  0  0  0  0  0  0  0  0  0  0
   11.8522   21.7152    1.2999 O   0  0  0  0  0  0  0  0  0  0  0  0
   17.8447   25.8933   -3.4199 C   0  0  2  0  0  0  0  0  0  0  0  0
   10.8776   23.1661   -0.1647 C   0  0  2  0  0  0  0  0  0  0  0  0
   17.1053   21.0700   -5.6583 N   0  0  0  0  0  0  0  0  0  0  0  0
   16.1184   21.9139   -5.2448 C   0  0  0  0  0  0  0  0  0  0  0  0
   16.4130   23.1305   -4.6838 N   0  0  0  0  0  0  0  0  0  0  0  0
   17.7233   23.4942   -4.5382 C   0  0  0  0  0  0  0  0  0  0  0  0
   18.7050   22.6719   -4.9335 C   0  0  0  0  0  0  0  0  0  0  0  0
   18.3968   21.4415   -5.5112 C   0  0  0  0  0  0  0  0  0  0  0  0
   19.3305   20.4899   -5.9669 N   0  0  0  0  0  0  0  0  0  0  0  0
   19.8825   23.2804   -4.6778 N   0  0  0  0  0  0  0  0  0  0  0  0
   19.6139   24.4909   -4.1104 C   0  0  0  0  0  0  0  0  0  0  0  0
   18.2839   24.6321   -4.0393 N   0  0  0  0  0  0  0  0  0  0  0  0
   11.5949   21.8509   -5.1523 N   0  0  0  0  0  0  0  0  0  0  0  0
   12.5585   22.0370   -4.2125 C   0  0  0  0  0  0  0  0  0  0  0  0
   12.2022   22.3897   -2.9413 N   0  0  0  0  0  0  0  0  0  0  0  0
   10.8908   22.5482   -2.6164 C   0  0  0  0  0  0  0  0  0  0  0  0
    9.9289   22.3608   -3.5426 C   0  0  0  0  0  0  0  0  0  0  0  0
   10.3009   22.0055   -4.8359 C   0  0  0  0  0  0  0  0  0  0  0  0
    9.4525   21.7757   -5.9770 N   0  0  0  0  0  0  0  0  0  0  0  0
    8.7369   22.5878   -2.9403 N   0  0  0  0  0  0  0  0  0  0  0  0
    8.9716   22.9106   -1.6362 C   0  0  0  0  0  0  0  0  0  0  0  0
   10.3061   22.8804   -1.4452 N   0  0  0  0  0  0  0  0  0  0  0  0
  1  3  1  1  0  0  0
  1  5  2  0  0  0  0
  1  9  1  0  0  0  0
  1 18  1  0  0  0  0
  2  4  1  6  0  0  0
  2  6  2  0  0  0  0
  2 10  1  0  0  0  0
  2 17  1  0  0  0  0
  7  9  1  0  0  0  0
  8 10  1  0  0  0  0
 11  7  1  1  0  0  0
 11 13  1  0  0  0  0
 11 15  1  0  0  0  0
 12  8  1  6  0  0  0
 12 14  1  0  0  0  0
 12 16  1  0  0  0  0
 13 23  1  0  0  0  0
 14 24  1  0  0  0  0
 15 17  1  1  0  0  0
 15 19  1  0  0  0  0
 16 18  1  1  0  0  0
 16 20  1  0  0  0  0
 19 21  1  1  0  0  0
 19 23  1  0  0  0  0
 20 22  1  1  0  0  0
 20 24  1  0  0  0  0
 23 34  1  6  0  0  0
 24 44  1  6  0  0  0
 25 26  2  0  0  0  0
 25 30  1  0  0  0  0
 26 27  1  0  0  0  0
 27 28  2  0  0  0  0
 28 29  1  0  0  0  0
 28 34  1  0  0  0  0
 29 30  2  0  0  0  0
 29 32  1  0  0  0  0
 30 31  1  0  0  0  0
 32 33  2  0  0  0  0
 33 34  1  0  0  0  0
 35 36  2  0  0  0  0
 35 40  1  0  0  0  0
 36 37  1  0  0  0  0
 37 38  2  0  0  0  0
 38 39  1  0  0  0  0
 38 44  1  0  0  0  0
 39 40  2  0  0  0  0
 39 42  1  0  0  0  0
 40 41  1  0  0  0  0
 42 43  2  0  0  0  0
 43 44  1  0  0  0  0
M  CHG  2   3  -1   4  -1
M  END
>  <CHROM.1>
94.38540262,89.91878841,14.37065857,23.97904794,-2.38836939,-2.92361067,-0.25650617
-2.15837437

>  <Name>
ligand

>  <RI>
0

>  <Rbt.Current_Directory>
/home/itssahil/PROJECTS/Mol_Feturizer/New_Systems/rnas/4QLM

>  <Rbt.Executable>
rbdock ($Id: //depot/dev/client3/rdock/2013.1/src/exe/rbdock.cxx#4 $)

>  <Rbt.Library>
libRbt.so (2013.1, Build901 2013/11/27)

>  <Rbt.Parameter_File>
/export/apps/rDock/src/rDock_2013.1_src/data/scripts/dock_solv.prm

>  <Rbt.Receptor>
prm/blind_docking_80.prm

>  <SCORE>
41.5697

>  <SCORE.INTER>
36.1534

>  <SCORE.INTER.CONST>
1

>  <SCORE.INTER.POLAR>
0

>  <SCORE.INTER.ROT>
2

>  <SCORE.INTER.SOLV>
55.231

>  <SCORE.INTER.VDW>
0.758576

>  <SCORE.INTER.norm>
0.821668

>  <SCORE.INTRA>
-1.04274

>  <SCORE.INTRA.DIHEDRAL>
-0.0185123

>  <SCORE.INTRA.DIHEDRAL.0>
2.32994

>  <SCORE.INTRA.POLAR>
0

>  <SCORE.INTRA.POLAR.0>
0

>  <SCORE.INTRA.REPUL>
0

>  <SCORE.INTRA.REPUL.0>
0

>  <SCORE.INTRA.SOLV>
0.0231393

>  <SCORE.INTRA.SOLV.lig_0>
-117.703

>  <SCORE.INTRA.VDW>
-1.04505

>  <SCORE.INTRA.VDW.0>
-1.59997

>  <SCORE.INTRA.norm>
-0.0236986

>  <SCORE.RESTR>
6.45908

>  <SCORE.RESTR.CAVITY>
6.45908

>  <SCORE.RESTR.norm>
0.146797

>  <SCORE.SYSTEM>
0

>  <SCORE.SYSTEM.CONST>
0

>  <SCORE.SYSTEM.DIHEDRAL>
0

>  <SCORE.SYSTEM.SOLV>
0

>  <SCORE.SYSTEM.norm>
0

>  <SCORE.heavy>
44

>  <SCORE.norm>
0.944766

>  <RMSD>
27.062

$$$$
ligand
 OpenBabel11021811513D
libRbt.so/2013.1/901 2013/11/27
 44 50  0  0  0  0  0  0  0  0999 V2000
   15.5189   23.1307    0.4380 P   0  0  2  0  0  0  0  0  0  0  0  0
   13.5622   26.8770   -2.9299 P   0  0  1  0  0  0  0  0  0  0  0  0
   16.5518   23.3607    1.5382 O   0  5  0  0  0  0  0  0  0  0  0  0
   13.5341   26.2062   -4.2817 O   0  5  0  0  0  0  0  0  0  0  0  0
   15.6421   21.6784    0.0442 O   0  0  0  0  0  0  0  0  0  0  0  0
   12.7339   28.1771   -3.0430 O   0  0  0  0  0  0  0  0  0  0  0  0
   16.5457   25.3416   -0.2683 C   0  0  0  0  0  0  0  0  0  0  0  0
   13.1220   26.1503   -0.4914 C   0  0  0  0  0  0  0  0  0  0  0  0
   15.9078   24.1313   -0.6979 O   0  0  0  0  0  0  0  0  0  0  0  0
   13.0549   25.7177   -1.8795 O   0  0  0  0  0  0  0  0  0  0  0  0
   16.9114   26.1995   -1.4748 C   0  0  1  0  0  0  0  0  0  0  0  0
   12.4781   24.9931    0.3618 C   0  0  1  0  0  0  0  0  0  0  0  0
   18.0571   25.7932   -1.9274 O   0  0  0  0  0  0  0  0  0  0  0  0
   11.3562   24.7593   -0.1866 O   0  0  0  0  0  0  0  0  0  0  0  0
   15.9268   26.0758   -2.6148 C   0  0  1  0  0  0  0  0  0  0  0  0
   13.2365   23.6669    0.1541 C   0  0  1  0  0  0  0  0  0  0  0  0
   15.1148   27.1642   -2.5471 O   0  0  0  0  0  0  0  0  0  0  0  0
   14.0600   23.4102    1.1778 O   0  0  0  0  0  0  0  0  0  0  0  0
   16.8322   26.1504   -3.8934 C   0  0  1  0  0  0  0  0  0  0  0  0
   12.1705   22.5579    0.0026 C   0  0  1  0  0  0  0  0  0  0  0  0
   16.7577   27.5097   -4.4937 O   0  0  0  0  0  0  0  0  0  0  0  0
   12.0438   21.7747    1.2737 O   0  0  0  0  0  0  0  0  0  0  0  0
   18.0380   25.8765   -3.5105 C   0  0  2  0  0  0  0  0  0  0  0  0
   11.0690   23.1854   -0.2295 C   0  0  2  0  0  0  0  0  0  0  0  0
   17.3384   21.0915   -5.8419 N   0  0  0  0  0  0  0  0  0  0  0  0
   16.3477   21.9668   -5.5113 C   0  0  0  0  0  0  0  0  0  0  0  0
   16.6321   23.1701   -4.9173 N   0  0  0  0  0  0  0  0  0  0  0  0
   17.9357   23.4880   -4.6531 C   0  0  0  0  0  0  0  0  0  0  0  0
   18.9204   22.6343   -4.9659 C   0  0  0  0  0  0  0  0  0  0  0  0
   18.6235   21.4177   -5.5779 C   0  0  0  0  0  0  0  0  0  0  0  0
   19.5614   20.4367   -5.9560 N   0  0  0  0  0  0  0  0  0  0  0  0
   20.0903   23.2009   -4.6020 N   0  0  0  0  0  0  0  0  0  0  0  0
   19.8134   24.4173   -4.0517 C   0  0  0  0  0  0  0  0  0  0  0  0
   18.4878   24.6037   -4.0979 N   0  0  0  0  0  0  0  0  0  0  0  0
   11.8264   21.8929   -5.2171 N   0  0  0  0  0  0  0  0  0  0  0  0
   12.7841   22.1313   -4.2832 C   0  0  0  0  0  0  0  0  0  0  0  0
   12.4169   22.4692   -3.0111 N   0  0  0  0  0  0  0  0  0  0  0  0
   11.1008   22.5611   -2.6794 C   0  0  0  0  0  0  0  0  0  0  0  0
   10.1450   22.3215   -3.5998 C   0  0  0  0  0  0  0  0  0  0  0  0
   10.5279   21.9817   -4.8941 C   0  0  0  0  0  0  0  0  0  0  0  0
    9.6863   21.7048   -6.0299 N   0  0  0  0  0  0  0  0  0  0  0  0
    8.9461   22.4888   -2.9916 N   0  0  0  0  0  0  0  0  0  0  0  0
    9.1708   22.8274   -1.6898 C   0  0  0  0  0  0  0  0  0  0  0  0
   10.5061   22.8666   -1.5061 N   0  0  0  0  0  0  0  0  0  0  0  0
  1  3  1  1  0  0  0
  1  5  2  0  0  0  0
  1  9  1  0  0  0  0
  1 18  1  0  0  0  0
  2  4  1  6  0  0  0
  2  6  2  0  0  0  0
  2 10  1  0  0  0  0
  2 17  1  0  0  0  0
  7  9  1  0  0  0  0
  8 10  1  0  0  0  0
 11  7  1  1  0  0  0
 11 13  1  0  0  0  0
 11 15  1  0  0  0  0
 12  8  1  6  0  0  0
 12 14  1  0  0  0  0
 12 16  1  0  0  0  0
 13 23  1  0  0  0  0
 14 24  1  0  0  0  0
 15 17  1  6  0  0  0
 15 19  1  0  0  0  0
 16 18  1  1  0  0  0
 16 20  1  0  0  0  0
 19 21  1  1  0  0  0
 19 23  1  0  0  0  0
 20 22  1  1  0  0  0
 20 24  1  0  0  0  0
 23 34  1  6  0  0  0
 24 44  1  6  0  0  0
 25 26  2  0  0  0  0
 25 30  1  0  0  0  0
 26 27  1  0  0  0  0
 27 28  2  0  0  0  0
 28 29  1  0  0  0  0
 28 34  1  0  0  0  0
 29 30  2  0  0  0  0
 29 32  1  0  0  0  0
 30 31  1  0  0  0  0
 32 33  2  0  0  0  0
 33 34  1  0  0  0  0
 35 36  2  0  0  0  0
 35 40  1  0  0  0  0
 36 37  1  0  0  0  0
 37 38  2  0  0  0  0
 38 39  1  0  0  0  0
 38 44  1  0  0  0  0
 39 40  2  0  0  0  0
 39 42  1  0  0  0  0
 40 41  1  0  0  0  0
 42 43  2  0  0  0  0
 43 44  1  0  0  0  0
M  CHG  2   3  -1   4  -1
M  END
>  <CHROM.1>
99.95510550,86.98632855,14.56939482,23.98304876,-2.46949589,-2.90876011,-0.24941125
-2.13421370

>  <Name>
ligand

>  <RI>
0

>  <Rbt.Current_Directory>
/home/itssahil/PROJECTS/Mol_Feturizer/New_Systems/rnas/4QLM

>  <Rbt.Executable>
rbdock ($Id: //depot/dev/client3/rdock/2013.1/src/exe/rbdock.cxx#4 $)

>  <Rbt.Library>
libRbt.so (2013.1, Build901 2013/11/27)

>  <Rbt.Parameter_File>
/export/apps/rDock/src/rDock_2013.1_src/data/scripts/dock_solv.prm

>  <Rbt.Receptor>
prm/blind_docking_100.prm

>  <SCORE>
54.0418

>  <SCORE.INTER>
40.611

>  <SCORE.INTER.CONST>
1

>  <SCORE.INTER.POLAR>
0

>  <SCORE.INTER.ROT>
2

>  <SCORE.INTER.SOLV>
56.3117

>  <SCORE.INTER.VDW>
3.3701

>  <SCORE.INTER.norm>
0.922977

>  <SCORE.INTRA>
-1.02539

>  <SCORE.INTRA.DIHEDRAL>
-0.00508647

>  <SCORE.INTRA.DIHEDRAL.0>
2.32994

>  <SCORE.INTRA.POLAR>
0

>  <SCORE.INTRA.POLAR.0>
0

>  <SCORE.INTRA.REPUL>
0

>  <SCORE.INTRA.REPUL.0>
0

>  <SCORE.INTRA.SOLV>
0.0219825

>  <SCORE.INTRA.SOLV.lig_0>
-117.703

>  <SCORE.INTRA.VDW>
-1.03384

>  <SCORE.INTRA.VDW.0>
-1.59997

>  <SCORE.INTRA.norm>
-0.0233044

>  <SCORE.RESTR>
14.4562

>  <SCORE.RESTR.CAVITY>
14.4562

>  <SCORE.RESTR.norm>
0.32855

>  <SCORE.SYSTEM>
0

>  <SCORE.SYSTEM.CONST>
0

>  <SCORE.SYSTEM.DIHEDRAL>
0

>  <SCORE.SYSTEM.SOLV>
0

>  <SCORE.SYSTEM.norm>
0

>  <SCORE.heavy>
44

>  <SCORE.norm>
1.22822

>  <RMSD>
27.177

$$$$
ligand
 OpenBabel11021811513D
libRbt.so/2013.1/901 2013/11/27
 44 50  0  0  0  0  0  0  0  0999 V2000
   15.3176   23.1084    0.4897 P   0  0  2  0  0  0  0  0  0  0  0  0
   13.3839   27.0109   -2.7099 P   0  0  1  0  0  0  0  0  0  0  0  0
   16.4167   23.2654    1.5374 O   0  5  0  0  0  0  0  0  0  0  0  0
   13.2512   26.3676   -4.0689 O   0  5  0  0  0  0  0  0  0  0  0  0
   15.3454   21.6593    0.0668 O   0  0  0  0  0  0  0  0  0  0  0  0
   12.6187   28.3529   -2.7583 O   0  0  0  0  0  0  0  0  0  0  0  0
   16.4186   25.2774   -0.2344 C   0  0  0  0  0  0  0  0  0  0  0  0
   13.0341   26.2620   -0.2635 C   0  0  0  0  0  0  0  0  0  0  0  0
   15.6980   24.1091   -0.6490 O   0  0  0  0  0  0  0  0  0  0  0  0
   12.8728   25.8592   -1.6529 O   0  0  0  0  0  0  0  0  0  0  0  0
   16.7649   26.1381   -1.4447 C   0  0  1  0  0  0  0  0  0  0  0  0
   12.3767   25.1230    0.6039 C   0  0  1  0  0  0  0  0  0  0  0  0
   17.8631   25.6830   -1.9635 O   0  0  0  0  0  0  0  0  0  0  0  0
   11.2173   24.9565    0.1119 O   0  0  0  0  0  0  0  0  0  0  0  0
   15.7173   26.0855   -2.5329 C   0  0  1  0  0  0  0  0  0  0  0  0
   13.0541   23.7644    0.3354 C   0  0  1  0  0  0  0  0  0  0  0  0
   14.9670   27.2120   -2.4051 O   0  0  0  0  0  0  0  0  0  0  0  0
   13.9154   23.4473    1.3098 O   0  0  0  0  0  0  0  0  0  0  0  0
   16.5578   26.1381   -3.8561 C   0  0  1  0  0  0  0  0  0  0  0  0
   11.9261   22.7136    0.2226 C   0  0  1  0  0  0  0  0  0  0  0  0
   16.5222   27.5104   -4.4299 O   0  0  0  0  0  0  0  0  0  0  0  0
   11.8255   21.9142    1.4860 O   0  0  0  0  0  0  0  0  0  0  0  0
   17.7662   25.7966   -3.5419 C   0  0  2  0  0  0  0  0  0  0  0  0
   10.8477   23.4001    0.0590 C   0  0  2  0  0  0  0  0  0  0  0  0
   18.6371   20.4996   -3.6113 N   0  0  0  0  0  0  0  0  0  0  0  0
   18.2344   21.2246   -2.5299 C   0  0  0  0  0  0  0  0  0  0  0  0
   18.0378   22.5794   -2.6164 N   0  0  0  0  0  0  0  0  0  0  0  0
   18.2546   23.2064   -3.8123 C   0  0  0  0  0  0  0  0  0  0  0  0
   18.6577   22.5078   -4.8828 C   0  0  0  0  0  0  0  0  0  0  0  0
   18.8460   21.1300   -4.7888 C   0  0  0  0  0  0  0  0  0  0  0  0
   19.2655   20.2839   -5.8343 N   0  0  0  0  0  0  0  0  0  0  0  0
   18.7867   23.3691   -5.9142 N   0  0  0  0  0  0  0  0  0  0  0  0
   18.4638   24.6145   -5.4628 C   0  0  0  0  0  0  0  0  0  0  0  0
   18.1188   24.5139   -4.1725 N   0  0  0  0  0  0  0  0  0  0  0  0
   11.2217   21.7365   -4.8616 N   0  0  0  0  0  0  0  0  0  0  0  0
   12.2292   21.8295   -3.9547 C   0  0  0  0  0  0  0  0  0  0  0  0
   11.9648   22.2960   -2.6978 N   0  0  0  0  0  0  0  0  0  0  0  0
   10.6999   22.6598   -2.3541 C   0  0  0  0  0  0  0  0  0  0  0  0
    9.6943   22.5659   -3.2474 C   0  0  0  0  0  0  0  0  0  0  0  0
    9.9732   22.0935   -4.5266 C   0  0  0  0  0  0  0  0  0  0  0  0
    9.0674   21.9299   -5.6346 N   0  0  0  0  0  0  0  0  0  0  0  0
    8.5655   22.9945   -2.6332 N   0  0  0  0  0  0  0  0  0  0  0  0
    8.8824   23.3474   -1.3546 C   0  0  0  0  0  0  0  0  0  0  0  0
   10.2037   23.1340   -1.1910 N   0  0  0  0  0  0  0  0  0  0  0  0
  1  3  1  1  0  0  0
  1  5  2  0  0  0  0
  1  9  1  0  0  0  0
  1 18  1  0  0  0  0
  2  4  1  6  0  0  0
  2  6  2  0  0  0  0
  2 10  1  0  0  0  0
  2 17  1  0  0  0  0
  7  9  1  0  0  0  0
  8 10  1  0  0  0  0
 11  7  1  1  0  0  0
 11 13  1  0  0  0  0
 11 15  1  0  0  0  0
 12  8  1  6  0  0  0
 12 14  1  0  0  0  0
 12 16  1  0  0  0  0
 13 23  1  0  0  0  0
 14 24  1  0  0  0  0
 15 17  1  1  0  0  0
 15 19  1  0  0  0  0
 16 18  1  1  0  0  0
 16 20  1  0  0  0  0
 19 21  1  1  0  0  0
 19 23  1  0  0  0  0
 20 22  1  1  0  0  0
 20 24  1  0  0  0  0
 23 34  1  6  0  0  0
 24 44  1  6  0  0  0
 25 26  2  0  0  0  0
 25 30  1  0  0  0  0
 26 27  1  0  0  0  0
 27 28  2  0  0  0  0
 28 29  1  0  0  0  0
 28 34  1  0  0  0  0
 29 30  2  0  0  0  0
 29 32  1  0  0  0  0
 30 31  1  0  0  0  0
 32 33  2  0  0  0  0
 33 34  1  0  0  0  0
 35 36  2  0  0  0  0
 35 40  1  0  0  0  0
 36 37  1  0  0  0  0
 37 38  2  0  0  0  0
 38 39  1  0  0  0  0
 38 44  1  0  0  0  0
 39 40  2  0  0  0  0
 39 42  1  0  0  0  0
 40 41  1  0  0  0  0
 42 43  2  0  0  0  0
 43 44  1  0  0  0  0
M  CHG  2   3  -1   4  -1
M  END
>  <CHROM.1>
16.20122847,96.41783203,14.39449683,23.99145505,-2.18864463,-0.17969769,0.22984038
0.67815214

>  <Name>
ligand

>  <RI>
0

>  <Rbt.Current_Directory>
/home/itssahil/PROJECTS/Mol_Feturizer/New_Systems/rnas/4QLM

>  <Rbt.Executable>
rbdock ($Id: //depot/dev/client3/rdock/2013.1/src/exe/rbdock.cxx#4 $)

>  <Rbt.Library>
libRbt.so (2013.1, Build901 2013/11/27)

>  <Rbt.Parameter_File>
/export/apps/rDock/src/rDock_2013.1_src/data/scripts/dock_solv.prm

>  <Rbt.Receptor>
prm/blind_docking_40.prm

>  <SCORE>
42.4014

>  <SCORE.INTER>
38.9243

>  <SCORE.INTER.CONST>
1

>  <SCORE.INTER.POLAR>
0

>  <SCORE.INTER.ROT>
2

>  <SCORE.INTER.SOLV>
54.4974

>  <SCORE.INTER.VDW>
2.85039

>  <SCORE.INTER.norm>
0.884643

>  <SCORE.INTRA>
-0.640015

>  <SCORE.INTRA.DIHEDRAL>
0.164589

>  <SCORE.INTRA.DIHEDRAL.0>
2.32994

>  <SCORE.INTRA.POLAR>
0

>  <SCORE.INTRA.POLAR.0>
0

>  <SCORE.INTRA.REPUL>
0

>  <SCORE.INTRA.REPUL.0>
0

>  <SCORE.INTRA.SOLV>
0.19852

>  <SCORE.INTRA.SOLV.lig_0>
-117.703

>  <SCORE.INTRA.VDW>
-0.821569

>  <SCORE.INTRA.VDW.0>
-1.59997

>  <SCORE.INTRA.norm>
-0.0145458

>  <SCORE.RESTR>
4.11715

>  <SCORE.RESTR.CAVITY>
4.11715

>  <SCORE.RESTR.norm>
0.0935715

>  <SCORE.SYSTEM>
0

>  <SCORE.SYSTEM.CONST>
0

>  <SCORE.SYSTEM.DIHEDRAL>
0

>  <SCORE.SYSTEM.SOLV>
0

>  <SCORE.SYSTEM.norm>
0

>  <SCORE.heavy>
44

>  <SCORE.norm>
0.963668

>  <RMSD>
27.208

$$$$
ligand
 OpenBabel11021811513D
libRbt.so/2013.1/901 2013/11/27
 44 50  0  0  0  0  0  0  0  0999 V2000
   16.5650   27.5365    0.3395 P   0  0  2  0  0  0  0  0  0  0  0  0
   12.1771   26.8854   -2.7472 P   0  0  1  0  0  0  0  0  0  0  0  0
   17.7693   28.4178    0.0178 O   0  5  0  0  0  0  0  0  0  0  0  0
   11.8858   25.4052   -2.6996 O   0  5  0  0  0  0  0  0  0  0  0  0
   17.0735   26.4505    1.2569 O   0  0  0  0  0  0  0  0  0  0  0  0
   10.9397   27.5793   -3.3609 O   0  0  0  0  0  0  0  0  0  0  0  0
   16.3001   27.8847   -2.1605 C   0  0  0  0  0  0  0  0  0  0  0  0
   13.0360   28.6594   -1.0788 C   0  0  0  0  0  0  0  0  0  0  0  0
   16.0644   27.0139   -1.0458 O   0  0  0  0  0  0  0  0  0  0  0  0
   12.6064   27.2747   -1.2081 O   0  0  0  0  0  0  0  0  0  0  0  0
   15.8075   27.2340   -3.4487 C   0  0  1  0  0  0  0  0  0  0  0  0
   13.2735   28.9046    0.4591 C   0  0  1  0  0  0  0  0  0  0  0  0
   16.7469   26.4592   -3.8952 O   0  0  0  0  0  0  0  0  0  0  0  0
   12.2108   28.5040    1.0285 O   0  0  0  0  0  0  0  0  0  0  0  0
   14.5874   26.3647   -3.2487 C   0  0  1  0  0  0  0  0  0  0  0  0
   14.3376   27.9369    1.0143 C   0  0  1  0  0  0  0  0  0  0  0  0
   13.5155   27.1025   -3.6423 O   0  0  0  0  0  0  0  0  0  0  0  0
   15.5237   28.5420    1.1509 O   0  0  0  0  0  0  0  0  0  0  0  0
   14.8197   25.1705   -4.2387 C   0  0  1  0  0  0  0  0  0  0  0  0
   13.8125   27.4227    2.3741 C   0  0  1  0  0  0  0  0  0  0  0  0
   14.0013   25.3584   -5.4669 O   0  0  0  0  0  0  0  0  0  0  0  0
   14.5017   28.1269    3.5029 O   0  0  0  0  0  0  0  0  0  0  0  0
   16.0835   25.1613   -4.5187 C   0  0  2  0  0  0  0  0  0  0  0  0
   12.5587   27.7210    2.3804 C   0  0  2  0  0  0  0  0  0  0  0  0
   18.9045   20.6057   -4.8500 N   0  0  0  0  0  0  0  0  0  0  0  0
   18.6250   21.4445   -5.8870 C   0  0  0  0  0  0  0  0  0  0  0  0
   17.8942   22.5897   -5.6971 N   0  0  0  0  0  0  0  0  0  0  0  0
   17.4394   22.8861   -4.4419 C   0  0  0  0  0  0  0  0  0  0  0  0
   17.7001   22.0672   -3.4134 C   0  0  0  0  0  0  0  0  0  0  0  0
   18.4515   20.9104   -3.6133 C   0  0  0  0  0  0  0  0  0  0  0  0
   18.7941   19.9705   -2.6212 N   0  0  0  0  0  0  0  0  0  0  0  0
   17.1415   22.6019   -2.3069 N   0  0  0  0  0  0  0  0  0  0  0  0
   16.5239   23.7624   -2.6685 C   0  0  0  0  0  0  0  0  0  0  0  0
   16.7209   23.9485   -3.9803 N   0  0  0  0  0  0  0  0  0  0  0  0
    8.5919   24.9775    0.4162 N   0  0  0  0  0  0  0  0  0  0  0  0
    9.0814   26.1537   -0.0562 C   0  0  0  0  0  0  0  0  0  0  0  0
   10.1299   26.7535    0.5827 N   0  0  0  0  0  0  0  0  0  0  0  0
   10.6844   26.1745    1.6816 C   0  0  0  0  0  0  0  0  0  0  0  0
   10.2069   25.0051    2.1534 C   0  0  0  0  0  0  0  0  0  0  0  0
    9.1361   24.4031    1.4989 C   0  0  0  0  0  0  0  0  0  0  0  0
    8.4603   23.1763    1.8355 N   0  0  0  0  0  0  0  0  0  0  0  0
   10.9428   24.6768    3.2422 N   0  0  0  0  0  0  0  0  0  0  0  0
   11.8797   25.6491    3.4338 C   0  0  0  0  0  0  0  0  0  0  0  0
   11.7136   26.5689    2.4620 N   0  0  0  0  0  0  0  0  0  0  0  0
  1  3  1  6  0  0  0
  1  5  2  0  0  0  0
  1  9  1  0  0  0  0
  1 18  1  0  0  0  0
  2  4  1  6  0  0  0
  2  6  2  0  0  0  0
  2 10  1  0  0  0  0
  2 17  1  0  0  0  0
  7  9  1  0  0  0  0
  8 10  1  0  0  0  0
 11  7  1  1  0  0  0
 11 13  1  0  0  0  0
 11 15  1  0  0  0  0
 12  8  1  6  0  0  0
 12 14  1  0  0  0  0
 12 16  1  0  0  0  0
 13 23  1  0  0  0  0
 14 24  1  0  0  0  0
 15 17  1  6  0  0  0
 15 19  1  0  0  0  0
 16 18  1  1  0  0  0
 16 20  1  0  0  0  0
 19 21  1  6  0  0  0
 19 23  1  0  0  0  0
 20 22  1  1  0  0  0
 20 24  1  0  0  0  0
 23 34  1  1  0  0  0
 24 44  1  6  0  0  0
 25 26  2  0  0  0  0
 25 30  1  0  0  0  0
 26 27  1  0  0  0  0
 27 28  2  0  0  0  0
 28 29  1  0  0  0  0
 28 34  1  0  0  0  0
 29 30  2  0  0  0  0
 29 32  1  0  0  0  0
 30 31  1  0  0  0  0
 32 33  2  0  0  0  0
 33 34  1  0  0  0  0
 35 36  2  0  0  0  0
 35 40  1  0  0  0  0
 36 37  1  0  0  0  0
 37 38  2  0  0  0  0
 38 39  1  0  0  0  0
 38 44  1  0  0  0  0
 39 40  2  0  0  0  0
 39 42  1  0  0  0  0
 40 41  1  0  0  0  0
 42 43  2  0  0  0  0
 43 44  1  0  0  0  0
M  CHG  2   3  -1   4  -1
M  END
>  <CHROM.1>
-117.70094422,-6.34914691,14.23007007,25.80318587,-1.17388164,-0.78505682
0.23697771,0.76972187

>  <Name>
ligand

>  <RI>
0

>  <Rbt.Current_Directory>
/home/itssahil/PROJECTS/Mol_Feturizer/New_Systems/rnas/4QLM

>  <Rbt.Executable>
rbdock ($Id: //depot/dev/client3/rdock/2013.1/src/exe/rbdock.cxx#4 $)

>  <Rbt.Library>
libRbt.so (2013.1, Build901 2013/11/27)

>  <Rbt.Parameter_File>
/export/apps/rDock/src/rDock_2013.1_src/data/scripts/dock_solv.prm

>  <Rbt.Receptor>
prm/blind_docking_100.prm

>  <SCORE>
63.785

>  <SCORE.INTER>
31.3677

>  <SCORE.INTER.CONST>
1

>  <SCORE.INTER.POLAR>
0

>  <SCORE.INTER.ROT>
2

>  <SCORE.INTER.SOLV>
43.3492

>  <SCORE.INTER.VDW>
1.52874

>  <SCORE.INTER.norm>
0.712903

>  <SCORE.INTRA>
0.687074

>  <SCORE.INTRA.DIHEDRAL>
0.0952782

>  <SCORE.INTRA.DIHEDRAL.0>
2.32994

>  <SCORE.INTRA.POLAR>
0

>  <SCORE.INTRA.POLAR.0>
0

>  <SCORE.INTRA.REPUL>
0

>  <SCORE.INTRA.REPUL.0>
0

>  <SCORE.INTRA.SOLV>
0.278808

>  <SCORE.INTRA.SOLV.lig_0>
-117.703

>  <SCORE.INTRA.VDW>
0.500031

>  <SCORE.INTRA.VDW.0>
-1.59997

>  <SCORE.INTRA.norm>
0.0156153

>  <SCORE.RESTR>
31.7302

>  <SCORE.RESTR.CAVITY>
31.7302

>  <SCORE.RESTR.norm>
0.72114

>  <SCORE.SYSTEM>
0

>  <SCORE.SYSTEM.CONST>
0

>  <SCORE.SYSTEM.DIHEDRAL>
0

>  <SCORE.SYSTEM.SOLV>
0

>  <SCORE.SYSTEM.norm>
0

>  <SCORE.heavy>
44

>  <SCORE.norm>
1.44966

>  <RMSD>
27.230

$$$$
ligand
 OpenBabel11021811513D
libRbt.so/2013.1/901 2013/11/27
 44 50  0  0  0  0  0  0  0  0999 V2000
   15.5225   23.0086    0.2654 P   0  0  2  0  0  0  0  0  0  0  0  0
   13.4921   26.8929   -2.8962 P   0  0  1  0  0  0  0  0  0  0  0  0
   16.6007   23.1872    1.3312 O   0  5  0  0  0  0  0  0  0  0  0  0
   13.4016   26.2687   -4.2674 O   0  5  0  0  0  0  0  0  0  0  0  0
   15.6088   21.5689   -0.1811 O   0  0  0  0  0  0  0  0  0  0  0  0
   12.6793   28.2070   -2.9333 O   0  0  0  0  0  0  0  0  0  0  0  0
   16.5536   25.2282   -0.4067 C   0  0  0  0  0  0  0  0  0  0  0  0
   13.1362   26.0900   -0.4679 C   0  0  0  0  0  0  0  0  0  0  0  0
   15.8818   24.0418   -0.8510 O   0  0  0  0  0  0  0  0  0  0  0  0
   13.0088   25.7055   -1.8659 O   0  0  0  0  0  0  0  0  0  0  0  0
   16.8849   26.1214   -1.5974 C   0  0  1  0  0  0  0  0  0  0  0  0
   12.5090   24.9133    0.3709 C   0  0  1  0  0  0  0  0  0  0  0  0
   18.0060   25.7153   -2.1079 O   0  0  0  0  0  0  0  0  0  0  0  0
   11.3633   24.7134   -0.1404 O   0  0  0  0  0  0  0  0  0  0  0  0
   15.8550   26.0497   -2.7012 C   0  0  1  0  0  0  0  0  0  0  0  0
   13.2390   23.5848    0.0895 C   0  0  1  0  0  0  0  0  0  0  0  0
   15.0625   27.1459   -2.5654 O   0  0  0  0  0  0  0  0  0  0  0  0
   14.0978   23.2825    1.0708 O   0  0  0  0  0  0  0  0  0  0  0  0
   16.7111   26.1553   -4.0112 C   0  0  1  0  0  0  0  0  0  0  0  0
   12.1516   22.4960   -0.0569 C   0  0  1  0  0  0  0  0  0  0  0  0
   16.6334   27.5350   -4.5625 O   0  0  0  0  0  0  0  0  0  0  0  0
   12.0629   21.6720    1.1915 O   0  0  0  0  0  0  0  0  0  0  0  0
   17.9267   25.8524   -3.6854 C   0  0  2  0  0  0  0  0  0  0  0  0
   11.0513   23.1458   -0.2245 C   0  0  2  0  0  0  0  0  0  0  0  0
   18.6632   20.5405   -3.9362 N   0  0  0  0  0  0  0  0  0  0  0  0
   18.1262   21.2195   -2.8837 C   0  0  0  0  0  0  0  0  0  0  0  0
   17.9789   22.5828   -2.9188 N   0  0  0  0  0  0  0  0  0  0  0  0
   18.3830   23.2655   -4.0327 C   0  0  0  0  0  0  0  0  0  0  0  0
   18.9195   22.6123   -5.0729 C   0  0  0  0  0  0  0  0  0  0  0  0
   19.0569   21.2259   -5.0328 C   0  0  0  0  0  0  0  0  0  0  0  0
   19.6022   20.4236   -6.0546 N   0  0  0  0  0  0  0  0  0  0  0  0
   19.2189   23.5229   -6.0233 N   0  0  0  0  0  0  0  0  0  0  0  0
   18.8657   24.7525   -5.5515 C   0  0  0  0  0  0  0  0  0  0  0  0
   18.3344   24.5943   -4.3322 N   0  0  0  0  0  0  0  0  0  0  0  0
   11.5872   21.8498   -5.2398 N   0  0  0  0  0  0  0  0  0  0  0  0
   12.5832   22.0134   -4.3301 C   0  0  0  0  0  0  0  0  0  0  0  0
   12.2735   22.3642   -3.0462 N   0  0  0  0  0  0  0  0  0  0  0  0
   10.9760   22.5432   -2.6788 C   0  0  0  0  0  0  0  0  0  0  0  0
    9.9822   22.3781   -3.5750 C   0  0  0  0  0  0  0  0  0  0  0  0
   10.3068   22.0247   -4.8815 C   0  0  0  0  0  0  0  0  0  0  0  0
    9.4187   21.8166   -5.9964 N   0  0  0  0  0  0  0  0  0  0  0  0
    8.8140   22.6218   -2.9339 N   0  0  0  0  0  0  0  0  0  0  0  0
    9.0955   22.9323   -1.6361 C   0  0  0  0  0  0  0  0  0  0  0  0
   10.4346   22.8780   -1.4878 N   0  0  0  0  0  0  0  0  0  0  0  0
  1  3  1  1  0  0  0
  1  5  2  0  0  0  0
  1  9  1  0  0  0  0
  1 18  1  0  0  0  0
  2  4  1  6  0  0  0
  2  6  2  0  0  0  0
  2 10  1  0  0  0  0
  2 17  1  0  0  0  0
  7  9  1  0  0  0  0
  8 10  1  0  0  0  0
 11  7  1  1  0  0  0
 11 13  1  0  0  0  0
 11 15  1  0  0  0  0
 12  8  1  6  0  0  0
 12 14  1  0  0  0  0
 12 16  1  0  0  0  0
 13 23  1  0  0  0  0
 14 24  1  0  0  0  0
 15 17  1  1  0  0  0
 15 19  1  0  0  0  0
 16 18  1  1  0  0  0
 16 20  1  0  0  0  0
 19 21  1  1  0  0  0
 19 23  1  0  0  0  0
 20 22  1  1  0  0  0
 20 24  1  0  0  0  0
 23 34  1  6  0  0  0
 24 44  1  6  0  0  0
 25 26  2  0  0  0  0
 25 30  1  0  0  0  0
 26 27  1  0  0  0  0
 27 28  2  0  0  0  0
 28 29  1  0  0  0  0
 28 34  1  0  0  0  0
 29 30  2  0  0  0  0
 29 32  1  0  0  0  0
 30 31  1  0  0  0  0
 32 33  2  0  0  0  0
 33 34  1  0  0  0  0
 35 36  2  0  0  0  0
 35 40  1  0  0  0  0
 36 37  1  0  0  0  0
 37 38  2  0  0  0  0
 38 39  1  0  0  0  0
 38 44  1  0  0  0  0
 39 40  2  0  0  0  0
 39 42  1  0  0  0  0
 40 41  1  0  0  0  0
 42 43  2  0  0  0  0
 43 44  1  0  0  0  0
M  CHG  2   3  -1   4  -1
M  END
>  <CHROM.1>
24.90193694,90.51660324,14.58515092,23.92023223,-2.42304138,-0.16622151,0.23834229
0.76129211

>  <Name>
ligand

>  <RI>
0

>  <Rbt.Current_Directory>
/home/itssahil/PROJECTS/Mol_Feturizer/New_Systems/rnas/4QLM

>  <Rbt.Executable>
rbdock ($Id: //depot/dev/client3/rdock/2013.1/src/exe/rbdock.cxx#4 $)

>  <Rbt.Library>
libRbt.so (2013.1, Build901 2013/11/27)

>  <Rbt.Parameter_File>
/export/apps/rDock/src/rDock_2013.1_src/data/scripts/dock_solv.prm

>  <Rbt.Receptor>
prm/blind_docking_100.prm

>  <SCORE>
59.1524

>  <SCORE.INTER>
46.1197

>  <SCORE.INTER.CONST>
1

>  <SCORE.INTER.POLAR>
0

>  <SCORE.INTER.ROT>
2

>  <SCORE.INTER.SOLV>
55.6526

>  <SCORE.INTER.VDW>
7.26228

>  <SCORE.INTER.norm>
1.04818

>  <SCORE.INTRA>
-1.06188

>  <SCORE.INTRA.DIHEDRAL>
0.18389

>  <SCORE.INTRA.DIHEDRAL.0>
2.32994

>  <SCORE.INTRA.POLAR>
0

>  <SCORE.INTRA.POLAR.0>
0

>  <SCORE.INTRA.REPUL>
0

>  <SCORE.INTRA.REPUL.0>
0

>  <SCORE.INTRA.SOLV>
0.328035

>  <SCORE.INTRA.SOLV.lig_0>
-117.703

>  <SCORE.INTRA.VDW>
-1.31785

>  <SCORE.INTRA.VDW.0>
-1.59997

>  <SCORE.INTRA.norm>
-0.0241337

>  <SCORE.RESTR>
14.0945

>  <SCORE.RESTR.CAVITY>
14.0945

>  <SCORE.RESTR.norm>
0.32033

>  <SCORE.SYSTEM>
0

>  <SCORE.SYSTEM.CONST>
0

>  <SCORE.SYSTEM.DIHEDRAL>
0

>  <SCORE.SYSTEM.SOLV>
0

>  <SCORE.SYSTEM.norm>
0

>  <SCORE.heavy>
44

>  <SCORE.norm>
1.34437

>  <RMSD>
27.264

$$$$
ligand
 OpenBabel11021811513D
libRbt.so/2013.1/901 2013/11/27
 44 50  0  0  0  0  0  0  0  0999 V2000
   15.5290   23.0116    0.2683 P   0  0  2  0  0  0  0  0  0  0  0  0
   13.4971   26.8944   -2.8941 P   0  0  1  0  0  0  0  0  0  0  0  0
   16.6078   23.1906    1.3335 O   0  5  0  0  0  0  0  0  0  0  0  0
   13.4057   26.2696   -4.2649 O   0  5  0  0  0  0  0  0  0  0  0  0
   15.6150   21.5717   -0.1775 O   0  0  0  0  0  0  0  0  0  0  0  0
   12.6843   28.2086   -2.9313 O   0  0  0  0  0  0  0  0  0  0  0  0
   16.5599   25.2307   -0.4054 C   0  0  0  0  0  0  0  0  0  0  0  0
   13.1425   26.0927   -0.4651 C   0  0  0  0  0  0  0  0  0  0  0  0
   15.8877   24.0441   -0.8487 O   0  0  0  0  0  0  0  0  0  0  0  0
   13.0143   25.7076   -1.8629 O   0  0  0  0  0  0  0  0  0  0  0  0
   16.8906   26.1234   -1.5967 C   0  0  1  0  0  0  0  0  0  0  0  0
   12.5156   24.9165    0.3746 C   0  0  1  0  0  0  0  0  0  0  0  0
   18.0113   25.7169   -2.1076 O   0  0  0  0  0  0  0  0  0  0  0  0
   11.3696   24.7164   -0.1360 O   0  0  0  0  0  0  0  0  0  0  0  0
   15.8600   26.0511   -2.7000 C   0  0  1  0  0  0  0  0  0  0  0  0
   13.2454   23.5878    0.0934 C   0  0  1  0  0  0  0  0  0  0  0  0
   15.0677   27.1475   -2.5643 O   0  0  0  0  0  0  0  0  0  0  0  0
   14.1047   23.2859    1.0744 O   0  0  0  0  0  0  0  0  0  0  0  0
   16.7154   26.1561   -4.0105 C   0  0  1  0  0  0  0  0  0  0  0  0
   12.1579   22.4990   -0.0518 C   0  0  1  0  0  0  0  0  0  0  0  0
   16.6375   27.5355   -4.5624 O   0  0  0  0  0  0  0  0  0  0  0  0
   12.0698   21.6756    1.1970 O   0  0  0  0  0  0  0  0  0  0  0  0
   17.9312   25.8532   -3.6852 C   0  0  2  0  0  0  0  0  0  0  0  0
   11.0575   23.1488   -0.2191 C   0  0  2  0  0  0  0  0  0  0  0  0
   18.6580   20.5401   -3.9374 N   0  0  0  0  0  0  0  0  0  0  0  0
   18.1191   21.2194   -2.8861 C   0  0  0  0  0  0  0  0  0  0  0  0
   17.9745   22.5830   -2.9207 N   0  0  0  0  0  0  0  0  0  0  0  0
   18.3835   23.2657   -4.0329 C   0  0  0  0  0  0  0  0  0  0  0  0
   18.9220   22.6122   -5.0718 C   0  0  0  0  0  0  0  0  0  0  0  0
   19.0566   21.2254   -5.0323 C   0  0  0  0  0  0  0  0  0  0  0  0
   19.6035   20.4228   -6.0530 N   0  0  0  0  0  0  0  0  0  0  0  0
   19.2262   23.5229   -6.0207 N   0  0  0  0  0  0  0  0  0  0  0  0
   18.8738   24.7528   -5.5491 C   0  0  0  0  0  0  0  0  0  0  0  0
   18.3384   24.5948   -4.3315 N   0  0  0  0  0  0  0  0  0  0  0  0
   11.5910   21.8561   -5.2356 N   0  0  0  0  0  0  0  0  0  0  0  0
   12.5876   22.0212   -4.3268 C   0  0  0  0  0  0  0  0  0  0  0  0
   12.2785   22.3708   -3.0424 N   0  0  0  0  0  0  0  0  0  0  0  0
   10.9810   22.5472   -2.6737 C   0  0  0  0  0  0  0  0  0  0  0  0
    9.9866   22.3806   -3.5690 C   0  0  0  0  0  0  0  0  0  0  0  0
   10.3106   22.0284   -4.8760 C   0  0  0  0  0  0  0  0  0  0  0  0
    9.4219   21.8191   -5.9902 N   0  0  0  0  0  0  0  0  0  0  0  0
    8.8186   22.6218   -2.9266 N   0  0  0  0  0  0  0  0  0  0  0  0
    9.1008   22.9322   -1.6290 C   0  0  0  0  0  0  0  0  0  0  0  0
   10.4401   22.8804   -1.4820 N   0  0  0  0  0  0  0  0  0  0  0  0
  1  3  1  1  0  0  0
  1  5  2  0  0  0  0
  1  9  1  0  0  0  0
  1 18  1  0  0  0  0
  2  4  1  6  0  0  0
  2  6  2  0  0  0  0
  2 10  1  0  0  0  0
  2 17  1  0  0  0  0
  7  9  1  0  0  0  0
  8 10  1  0  0  0  0
 11  7  1  1  0  0  0
 11 13  1  0  0  0  0
 11 15  1  0  0  0  0
 12  8  1  6  0  0  0
 12 14  1  0  0  0  0
 12 16  1  0  0  0  0
 13 23  1  0  0  0  0
 14 24  1  0  0  0  0
 15 17  1  1  0  0  0
 15 19  1  0  0  0  0
 16 18  1  1  0  0  0
 16 20  1  0  0  0  0
 19 21  1  1  0  0  0
 19 23  1  0  0  0  0
 20 22  1  1  0  0  0
 20 24  1  0  0  0  0
 23 34  1  6  0  0  0
 24 44  1  6  0  0  0
 25 26  2  0  0  0  0
 25 30  1  0  0  0  0
 26 27  1  0  0  0  0
 27 28  2  0  0  0  0
 28 29  1  0  0  0  0
 28 34  1  0  0  0  0
 29 30  2  0  0  0  0
 29 32  1  0  0  0  0
 30 31  1  0  0  0  0
 32 33  2  0  0  0  0
 33 34  1  0  0  0  0
 35 36  2  0  0  0  0
 35 40  1  0  0  0  0
 36 37  1  0  0  0  0
 37 38  2  0  0  0  0
 38 39  1  0  0  0  0
 38 44  1  0  0  0  0
 39 40  2  0  0  0  0
 39 42  1  0  0  0  0
 40 41  1  0  0  0  0
 42 43  2  0  0  0  0
 43 44  1  0  0  0  0
M  CHG  2   3  -1   4  -1
M  END
>  <CHROM.1>
25.14993615,90.38973905,14.58962310,23.92227036,-2.42037369,-0.16717612,0.23869051
0.76253779

>  <Name>
ligand

>  <RI>
0

>  <Rbt.Current_Directory>
/home/itssahil/PROJECTS/Mol_Feturizer/New_Systems/rnas/4QLM

>  <Rbt.Executable>
rbdock ($Id: //depot/dev/client3/rdock/2013.1/src/exe/rbdock.cxx#4 $)

>  <Rbt.Library>
libRbt.so (2013.1, Build901 2013/11/27)

>  <Rbt.Parameter_File>
/export/apps/rDock/src/rDock_2013.1_src/data/scripts/dock_solv.prm

>  <Rbt.Receptor>
prm/blind_docking_100.prm

>  <SCORE>
59.1932

>  <SCORE.INTER>
46.1792

>  <SCORE.INTER.CONST>
1

>  <SCORE.INTER.POLAR>
0

>  <SCORE.INTER.ROT>
2

>  <SCORE.INTER.SOLV>
55.6356

>  <SCORE.INTER.VDW>
7.3076

>  <SCORE.INTER.norm>
1.04953

>  <SCORE.INTRA>
-1.07013

>  <SCORE.INTRA.DIHEDRAL>
0.184125

>  <SCORE.INTRA.DIHEDRAL.0>
2.32994

>  <SCORE.INTRA.POLAR>
0

>  <SCORE.INTRA.POLAR.0>
0

>  <SCORE.INTRA.REPUL>
0

>  <SCORE.INTRA.REPUL.0>
0

>  <SCORE.INTRA.SOLV>
0.330701

>  <SCORE.INTRA.SOLV.lig_0>
-117.703

>  <SCORE.INTRA.VDW>
-1.32754

>  <SCORE.INTRA.VDW.0>
-1.59997

>  <SCORE.INTRA.norm>
-0.0243211

>  <SCORE.RESTR>
14.0842

>  <SCORE.RESTR.CAVITY>
14.0842

>  <SCORE.RESTR.norm>
0.320094

>  <SCORE.SYSTEM>
0

>  <SCORE.SYSTEM.CONST>
0

>  <SCORE.SYSTEM.DIHEDRAL>
0

>  <SCORE.SYSTEM.SOLV>
0

>  <SCORE.SYSTEM.norm>
0

>  <SCORE.heavy>
44

>  <SCORE.norm>
1.3453

>  <RMSD>
27.268

$$$$
ligand
 OpenBabel11021811513D
libRbt.so/2013.1/901 2013/11/27
 44 50  0  0  0  0  0  0  0  0999 V2000
   18.4251   37.4049  -23.1221 P   0  0  2  0  0  0  0  0  0  0  0  0
   17.0270   38.7052  -28.1778 P   0  0  1  0  0  0  0  0  0  0  0  0
   18.0966   36.0978  -22.4051 O   0  5  0  0  0  0  0  0  0  0  0  0
   16.5722   40.1421  -28.0968 O   0  5  0  0  0  0  0  0  0  0  0  0
   18.5971   38.4444  -22.0407 O   0  0  0  0  0  0  0  0  0  0  0  0
   17.2033   38.3610  -29.6743 O   0  0  0  0  0  0  0  0  0  0  0  0
   16.5280   36.4967  -24.5424 C   0  0  0  0  0  0  0  0  0  0  0  0
   18.8670   37.2784  -27.0610 C   0  0  0  0  0  0  0  0  0  0  0  0
   17.2068   37.6663  -24.0654 O   0  0  0  0  0  0  0  0  0  0  0  0
   18.3469   38.6308  -27.1995 O   0  0  0  0  0  0  0  0  0  0  0  0
   15.3381   36.8963  -25.4084 C   0  0  1  0  0  0  0  0  0  0  0  0
   20.1931   37.4009  -26.2196 C   0  0  1  0  0  0  0  0  0  0  0  0
   14.3285   37.1257  -24.6272 O   0  0  0  0  0  0  0  0  0  0  0  0
   20.8773   38.2974  -26.8045 O   0  0  0  0  0  0  0  0  0  0  0  0
   15.5734   38.1646  -26.1961 C   0  0  1  0  0  0  0  0  0  0  0  0
   19.9158   38.0351  -24.8419 C   0  0  1  0  0  0  0  0  0  0  0  0
   15.8985   37.7829  -27.4598 O   0  0  0  0  0  0  0  0  0  0  0  0
   19.8724   37.1077  -23.8776 O   0  0  0  0  0  0  0  0  0  0  0  0
   14.1730   38.8710  -26.1837 C   0  0  1  0  0  0  0  0  0  0  0  0
   21.0444   39.0589  -24.5825 C   0  0  1  0  0  0  0  0  0  0  0  0
   13.4813   38.6570  -27.4834 O   0  0  0  0  0  0  0  0  0  0  0  0
   22.0535   38.4967  -23.6280 O   0  0  0  0  0  0  0  0  0  0  0  0
   13.5022   38.3477  -25.2081 C   0  0  2  0  0  0  0  0  0  0  0  0
   21.5950   39.2450  -25.7328 C   0  0  2  0  0  0  0  0  0  0  0  0
   14.9533   41.8200  -21.3793 N   0  0  0  0  0  0  0  0  0  0  0  0
   15.8040   41.0844  -22.1490 C   0  0  0  0  0  0  0  0  0  0  0  0
   15.3311   40.2224  -23.1055 N   0  0  0  0  0  0  0  0  0  0  0  0
   13.9802   40.1031  -23.2817 C   0  0  0  0  0  0  0  0  0  0  0  0
   13.1309   40.8146  -22.5275 C   0  0  0  0  0  0  0  0  0  0  0  0
   13.6200   41.6953  -21.5642 C   0  0  0  0  0  0  0  0  0  0  0  0
   12.8375   42.4974  -20.7102 N   0  0  0  0  0  0  0  0  0  0  0  0
   11.8752   40.5061  -22.9153 N   0  0  0  0  0  0  0  0  0  0  0  0
   11.9607   39.5857  -23.9177 C   0  0  0  0  0  0  0  0  0  0  0  0
   13.2571   39.3489  -24.1570 N   0  0  0  0  0  0  0  0  0  0  0  0
   20.8705   42.5548  -29.6876 N   0  0  0  0  0  0  0  0  0  0  0  0
   20.9047   41.1982  -29.7569 C   0  0  0  0  0  0  0  0  0  0  0  0
   21.1132   40.4695  -28.6199 N   0  0  0  0  0  0  0  0  0  0  0  0
   21.2799   41.0973  -27.4246 C   0  0  0  0  0  0  0  0  0  0  0  0
   21.2427   42.4430  -27.3476 C   0  0  0  0  0  0  0  0  0  0  0  0
   21.0338   43.1775  -28.5112 C   0  0  0  0  0  0  0  0  0  0  0  0
   20.9763   44.6087  -28.6647 N   0  0  0  0  0  0  0  0  0  0  0  0
   21.4391   42.7800  -26.0503 N   0  0  0  0  0  0  0  0  0  0  0  0
   21.5918   41.6326  -25.3291 C   0  0  0  0  0  0  0  0  0  0  0  0
   21.4888   40.5978  -26.1874 N   0  0  0  0  0  0  0  0  0  0  0  0
  1  3  1  1  0  0  0
  1  5  2  0  0  0  0
  1  9  1  0  0  0  0
  1 18  1  0  0  0  0
  2  4  1  1  0  0  0
  2  6  2  0  0  0  0
  2 10  1  0  0  0  0
  2 17  1  0  0  0  0
  7  9  1  0  0  0  0
  8 10  1  0  0  0  0
 11  7  1  1  0  0  0
 11 13  1  0  0  0  0
 11 15  1  0  0  0  0
 12  8  1  6  0  0  0
 12 14  1  0  0  0  0
 12 16  1  0  0  0  0
 13 23  1  0  0  0  0
 14 24  1  0  0  0  0
 15 17  1  6  0  0  0
 15 19  1  0  0  0  0
 16 18  1  1  0  0  0
 16 20  1  0  0  0  0
 19 21  1  6  0  0  0
 19 23  1  0  0  0  0
 20 22  1  1  0  0  0
 20 24  1  0  0  0  0
 23 34  1  1  0  0  0
 24 44  1  6  0  0  0
 25 26  2  0  0  0  0
 25 30  1  0  0  0  0
 26 27  1  0  0  0  0
 27 28  2  0  0  0  0
 28 29  1  0  0  0  0
 28 34  1  0  0  0  0
 29 30  2  0  0  0  0
 29 32  1  0  0  0  0
 30 31  1  0  0  0  0
 32 33  2  0  0  0  0
 33 34  1  0  0  0  0
 35 36  2  0  0  0  0
 35 40  1  0  0  0  0
 36 37  1  0  0  0  0
 37 38  2  0  0  0  0
 38 39  1  0  0  0  0
 38 44  1  0  0  0  0
 39 40  2  0  0  0  0
 39 42  1  0  0  0  0
 40 41  1  0  0  0  0
 42 43  2  0  0  0  0
 43 44  1  0  0  0  0
M  CHG  2   3  -1   4  -1
M  END
>  <CHROM.1>
56.28648188,-21.79879044,17.59289338,39.39512692,-25.43306808,-2.60951493
0.09975492,-1.11921553

>  <Name>
ligand

>  <RI>
0

>  <Rbt.Current_Directory>
/home/itssahil/PROJECTS/Mol_Feturizer/New_Systems/rnas/4QLM

>  <Rbt.Executable>
rbdock ($Id: //depot/dev/client3/rdock/2013.1/src/exe/rbdock.cxx#4 $)

>  <Rbt.Library>
libRbt.so (2013.1, Build901 2013/11/27)

>  <Rbt.Parameter_File>
/export/apps/rDock/src/rDock_2013.1_src/data/scripts/dock_solv.prm

>  <Rbt.Receptor>
prm/blind_docking_100.prm

>  <SCORE>
110.991

>  <SCORE.INTER>
94.8504

>  <SCORE.INTER.CONST>
1

>  <SCORE.INTER.POLAR>
0

>  <SCORE.INTER.ROT>
2

>  <SCORE.INTER.SOLV>
43.208

>  <SCORE.INTER.VDW>
43.8976

>  <SCORE.INTER.norm>
2.15569

>  <SCORE.INTRA>
-0.36295

>  <SCORE.INTRA.DIHEDRAL>
0.0911686

>  <SCORE.INTRA.DIHEDRAL.0>
2.32994

>  <SCORE.INTRA.POLAR>
0

>  <SCORE.INTRA.POLAR.0>
0

>  <SCORE.INTRA.REPUL>
0

>  <SCORE.INTRA.REPUL.0>
0

>  <SCORE.INTRA.SOLV>
0.244192

>  <SCORE.INTRA.SOLV.lig_0>
-117.703

>  <SCORE.INTRA.VDW>
-0.530631

>  <SCORE.INTRA.VDW.0>
-1.59997

>  <SCORE.INTRA.norm>
-0.00824887

>  <SCORE.RESTR>
16.5031

>  <SCORE.RESTR.CAVITY>
16.5031

>  <SCORE.RESTR.norm>
0.375071

>  <SCORE.SYSTEM>
0

>  <SCORE.SYSTEM.CONST>
0

>  <SCORE.SYSTEM.DIHEDRAL>
0

>  <SCORE.SYSTEM.SOLV>
0

>  <SCORE.SYSTEM.norm>
0

>  <SCORE.heavy>
44

>  <SCORE.norm>
2.52251

>  <RMSD>
27.430

$$$$
ligand
 OpenBabel11021811513D
libRbt.so/2013.1/901 2013/11/27
 44 50  0  0  0  0  0  0  0  0999 V2000
   16.0317   24.2000    0.3660 P   0  0  2  0  0  0  0  0  0  0  0  0
   13.9893   22.2046   -4.2223 P   0  0  1  0  0  0  0  0  0  0  0  0
   15.9921   23.5281    1.7362 O   0  5  0  0  0  0  0  0  0  0  0  0
   13.3095   23.3772   -4.8862 O   0  5  0  0  0  0  0  0  0  0  0  0
   16.1232   25.6838    0.6293 O   0  0  0  0  0  0  0  0  0  0  0  0
   14.0862   21.0735   -5.2712 O   0  0  0  0  0  0  0  0  0  0  0  0
   14.1941   22.4788    0.0468 C   0  0  0  0  0  0  0  0  0  0  0  0
   16.1345   21.8526   -2.8286 C   0  0  0  0  0  0  0  0  0  0  0  0
   14.7074   23.7611   -0.3384 O   0  0  0  0  0  0  0  0  0  0  0  0
   15.3852   22.8240   -3.6118 O   0  0  0  0  0  0  0  0  0  0  0  0
   12.8816   22.1991   -0.6774 C   0  0  1  0  0  0  0  0  0  0  0  0
   17.4912   22.5527   -2.4405 C   0  0  1  0  0  0  0  0  0  0  0  0
   11.9217   22.7515   -0.0022 O   0  0  0  0  0  0  0  0  0  0  0  0
   17.9606   22.9988   -3.5335 O   0  0  0  0  0  0  0  0  0  0  0  0
   12.8298   22.7907   -2.0673 C   0  0  1  0  0  0  0  0  0  0  0  0
   17.2360   23.8414   -1.6335 C   0  0  1  0  0  0  0  0  0  0  0  0
   13.0999   21.7768   -2.9317 O   0  0  0  0  0  0  0  0  0  0  0  0
   17.4348   23.6449   -0.3244 O   0  0  0  0  0  0  0  0  0  0  0  0
   11.3377   23.2507   -2.2164 C   0  0  1  0  0  0  0  0  0  0  0  0
   18.1959   24.9180   -2.1893 C   0  0  1  0  0  0  0  0  0  0  0  0
   10.5782   22.2650   -3.0318 O   0  0  0  0  0  0  0  0  0  0  0  0
   19.3661   25.1017   -1.2716 O   0  0  0  0  0  0  0  0  0  0  0  0
   10.8539   23.3347   -1.0187 C   0  0  2  0  0  0  0  0  0  0  0  0
   18.6025   24.4492   -3.3189 C   0  0  2  0  0  0  0  0  0  0  0  0
   10.9978   28.6490   -1.7667 N   0  0  0  0  0  0  0  0  0  0  0  0
   11.5632   27.7159   -2.5834 C   0  0  0  0  0  0  0  0  0  0  0  0
   11.4685   26.3764   -2.3036 N   0  0  0  0  0  0  0  0  0  0  0  0
   10.7951   25.9787   -1.1817 C   0  0  0  0  0  0  0  0  0  0  0  0
   10.2400   26.8850   -0.3651 C   0  0  0  0  0  0  0  0  0  0  0  0
   10.3328   28.2438   -0.6617 C   0  0  0  0  0  0  0  0  0  0  0  0
    9.7957   29.2927    0.1104 N   0  0  0  0  0  0  0  0  0  0  0  0
    9.6440   26.2198    0.6470 N   0  0  0  0  0  0  0  0  0  0  0  0
    9.8455   24.8861    0.4477 C   0  0  0  0  0  0  0  0  0  0  0  0
   10.5396   24.7343   -0.6877 N   0  0  0  0  0  0  0  0  0  0  0  0
   19.6037   26.0941   -8.1576 N   0  0  0  0  0  0  0  0  0  0  0  0
   20.3352   25.2094   -7.4305 C   0  0  0  0  0  0  0  0  0  0  0  0
   19.9383   24.8861   -6.1635 N   0  0  0  0  0  0  0  0  0  0  0  0
   18.8148   25.4416   -5.6347 C   0  0  0  0  0  0  0  0  0  0  0  0
   18.0815   26.3167   -6.3521 C   0  0  0  0  0  0  0  0  0  0  0  0
   18.4952   26.6434   -7.6402 C   0  0  0  0  0  0  0  0  0  0  0  0
   17.8828   27.5588   -8.5688 N   0  0  0  0  0  0  0  0  0  0  0  0
   17.0377   26.7002   -5.5785 N   0  0  0  0  0  0  0  0  0  0  0  0
   17.1308   26.0511   -4.3827 C   0  0  0  0  0  0  0  0  0  0  0  0
   18.2311   25.2731   -4.4286 N   0  0  0  0  0  0  0  0  0  0  0  0
  1  3  1  1  0  0  0
  1  5  2  0  0  0  0
  1  9  1  0  0  0  0
  1 18  1  0  0  0  0
  2  4  1  6  0  0  0
  2  6  2  0  0  0  0
  2 10  1  0  0  0  0
  2 17  1  0  0  0  0
  7  9  1  0  0  0  0
  8 10  1  0  0  0  0
 11  7  1  1  0  0  0
 11 13  1  0  0  0  0
 11 15  1  0  0  0  0
 12  8  1  6  0  0  0
 12 14  1  0  0  0  0
 12 16  1  0  0  0  0
 13 23  1  0  0  0  0
 14 24  1  0  0  0  0
 15 17  1  6  0  0  0
 15 19  1  0  0  0  0
 16 18  1  1  0  0  0
 16 20  1  0  0  0  0
 19 21  1  6  0  0  0
 19 23  1  0  0  0  0
 20 22  1  1  0  0  0
 20 24  1  0  0  0  0
 23 34  1  1  0  0  0
 24 44  1  6  0  0  0
 25 26  2  0  0  0  0
 25 30  1  0  0  0  0
 26 27  1  0  0  0  0
 27 28  2  0  0  0  0
 28 29  1  0  0  0  0
 28 34  1  0  0  0  0
 29 30  2  0  0  0  0
 29 32  1  0  0  0  0
 30 31  1  0  0  0  0
 32 33  2  0  0  0  0
 33 34  1  0  0  0  0
 35 36  2  0  0  0  0
 35 40  1  0  0  0  0
 36 37  1  0  0  0  0
 37 38  2  0  0  0  0
 38 39  1  0  0  0  0
 38 44  1  0  0  0  0
 39 40  2  0  0  0  0
 39 42  1  0  0  0  0
 40 41  1  0  0  0  0
 42 43  2  0  0  0  0
 43 44  1  0  0  0  0
M  CHG  2   3  -1   4  -1
M  END
>  <CHROM.1>
106.89326909,-86.98450600,14.80928692,24.51501363,-2.58859713,-2.73002527
0.42626811,-0.82028781

>  <Name>
ligand

>  <RI>
0

>  <Rbt.Current_Directory>
/home/itssahil/PROJECTS/Mol_Feturizer/New_Systems/rnas/4QLM

>  <Rbt.Executable>
rbdock ($Id: //depot/dev/client3/rdock/2013.1/src/exe/rbdock.cxx#4 $)

>  <Rbt.Library>
libRbt.so (2013.1, Build901 2013/11/27)

>  <Rbt.Parameter_File>
/export/apps/rDock/src/rDock_2013.1_src/data/scripts/dock_solv.prm

>  <Rbt.Receptor>
prm/blind_docking_60.prm

>  <SCORE>
111.261

>  <SCORE.INTER>
102.408

>  <SCORE.INTER.CONST>
1

>  <SCORE.INTER.POLAR>
0

>  <SCORE.INTER.ROT>
2

>  <SCORE.INTER.SOLV>
52.5881

>  <SCORE.INTER.VDW>
45.8094

>  <SCORE.INTER.norm>
2.32746

>  <SCORE.INTRA>
0.918028

>  <SCORE.INTRA.DIHEDRAL>
0.000314892

>  <SCORE.INTRA.DIHEDRAL.0>
2.32994

>  <SCORE.INTRA.POLAR>
0

>  <SCORE.INTRA.POLAR.0>
0

>  <SCORE.INTRA.REPUL>
0

>  <SCORE.INTRA.REPUL.0>
0

>  <SCORE.INTRA.SOLV>
0.017928

>  <SCORE.INTRA.SOLV.lig_0>
-117.703

>  <SCORE.INTRA.VDW>
0.908907

>  <SCORE.INTRA.VDW.0>
-1.59997

>  <SCORE.INTRA.norm>
0.0208643

>  <SCORE.RESTR>
7.93513

>  <SCORE.RESTR.CAVITY>
7.93513

>  <SCORE.RESTR.norm>
0.180344

>  <SCORE.SYSTEM>
0

>  <SCORE.SYSTEM.CONST>
0

>  <SCORE.SYSTEM.DIHEDRAL>
0

>  <SCORE.SYSTEM.SOLV>
0

>  <SCORE.SYSTEM.norm>
0

>  <SCORE.heavy>
44

>  <SCORE.norm>
2.52867

>  <RMSD>
27.435

$$$$
ligand
 OpenBabel11021811513D
libRbt.so/2013.1/901 2013/11/27
 44 50  0  0  0  0  0  0  0  0999 V2000
   18.9600   37.4837  -23.1859 P   0  0  2  0  0  0  0  0  0  0  0  0
   16.8676   38.6522  -28.0296 P   0  0  1  0  0  0  0  0  0  0  0  0
   18.8434   36.1497  -22.4529 O   0  5  0  0  0  0  0  0  0  0  0  0
   16.2898   40.0383  -27.8781 O   0  5  0  0  0  0  0  0  0  0  0  0
   19.1559   38.5330  -22.1181 O   0  0  0  0  0  0  0  0  0  0  0  0
   16.9015   38.3295  -29.5408 O   0  0  0  0  0  0  0  0  0  0  0  0
   17.0068   36.3991  -24.3900 C   0  0  0  0  0  0  0  0  0  0  0  0
   18.9526   37.4077  -27.1508 C   0  0  0  0  0  0  0  0  0  0  0  0
   17.6212   37.6280  -23.9792 O   0  0  0  0  0  0  0  0  0  0  0  0
   18.2930   38.7039  -27.2109 O   0  0  0  0  0  0  0  0  0  0  0  0
   15.6919   36.6836  -25.1081 C   0  0  1  0  0  0  0  0  0  0  0  0
   20.3494   37.6562  -26.4661 C   0  0  1  0  0  0  0  0  0  0  0  0
   14.7622   36.8129  -24.2129 O   0  0  0  0  0  0  0  0  0  0  0  0
   20.8723   38.6156  -27.1142 O   0  0  0  0  0  0  0  0  0  0  0  0
   15.7118   37.9702  -25.9010 C   0  0  1  0  0  0  0  0  0  0  0  0
   20.1742   38.2581  -25.0576 C   0  0  1  0  0  0  0  0  0  0  0  0
   15.9234   37.6240  -27.1985 O   0  0  0  0  0  0  0  0  0  0  0  0
   20.3317   37.3291  -24.1068 O   0  0  0  0  0  0  0  0  0  0  0  0
   14.2612   38.5379  -25.7183 C   0  0  1  0  0  0  0  0  0  0  0  0
   21.2221   39.3856  -24.9165 C   0  0  1  0  0  0  0  0  0  0  0  0
   13.4472   38.2605  -26.9323 O   0  0  0  0  0  0  0  0  0  0  0  0
   22.3841   38.9217  -24.0920 O   0  0  0  0  0  0  0  0  0  0  0  0
   13.7611   37.9506  -24.6788 C   0  0  2  0  0  0  0  0  0  0  0  0
   21.6153   39.6261  -26.1200 C   0  0  2  0  0  0  0  0  0  0  0  0
   14.1389   42.7591  -22.3215 N   0  0  0  0  0  0  0  0  0  0  0  0
   14.5982   42.4457  -23.5657 C   0  0  0  0  0  0  0  0  0  0  0  0
   14.4508   41.1826  -24.0799 N   0  0  0  0  0  0  0  0  0  0  0  0
   13.8331   40.2258  -23.3228 C   0  0  0  0  0  0  0  0  0  0  0  0
   13.3826   40.5171  -22.0945 C   0  0  0  0  0  0  0  0  0  0  0  0
   13.5280   41.8056  -21.5833 C   0  0  0  0  0  0  0  0  0  0  0  0
   13.1002   42.2395  -20.3130 N   0  0  0  0  0  0  0  0  0  0  0  0
   12.8203   39.4008  -21.5846 N   0  0  0  0  0  0  0  0  0  0  0  0
   12.9365   38.4107  -22.5149 C   0  0  0  0  0  0  0  0  0  0  0  0
   13.5447   38.9215  -23.5935 N   0  0  0  0  0  0  0  0  0  0  0  0
   20.8325   42.9758  -30.0299 N   0  0  0  0  0  0  0  0  0  0  0  0
   21.1189   41.6518  -30.1369 C   0  0  0  0  0  0  0  0  0  0  0  0
   21.3040   40.9079  -29.0057 N   0  0  0  0  0  0  0  0  0  0  0  0
   21.1970   41.4872  -27.7795 C   0  0  0  0  0  0  0  0  0  0  0  0
   20.9086   42.7995  -27.6657 C   0  0  0  0  0  0  0  0  0  0  0  0
   20.7255   43.5506  -28.8231 C   0  0  0  0  0  0  0  0  0  0  0  0
   20.4323   44.9563  -28.9375 N   0  0  0  0  0  0  0  0  0  0  0  0
   20.8694   43.0923  -26.3436 N   0  0  0  0  0  0  0  0  0  0  0  0
   21.1300   41.9504  -25.6451 C   0  0  0  0  0  0  0  0  0  0  0  0
   21.3282   40.9632  -26.5418 N   0  0  0  0  0  0  0  0  0  0  0  0
  1  3  1  1  0  0  0
  1  5  2  0  0  0  0
  1  9  1  0  0  0  0
  1 18  1  0  0  0  0
  2  4  1  1  0  0  0
  2  6  2  0  0  0  0
  2 10  1  0  0  0  0
  2 17  1  0  0  0  0
  7  9  1  0  0  0  0
  8 10  1  0  0  0  0
 11  7  1  1  0  0  0
 11 13  1  0  0  0  0
 11 15  1  0  0  0  0
 12  8  1  6  0  0  0
 12 14  1  0  0  0  0
 12 16  1  0  0  0  0
 13 23  1  0  0  0  0
 14 24  1  0  0  0  0
 15 17  1  6  0  0  0
 15 19  1  0  0  0  0
 16 18  1  1  0  0  0
 16 20  1  0  0  0  0
 19 21  1  6  0  0  0
 19 23  1  0  0  0  0
 20 22  1  1  0  0  0
 20 24  1  0  0  0  0
 23 34  1  1  0  0  0
 24 44  1  6  0  0  0
 25 26  2  0  0  0  0
 25 30  1  0  0  0  0
 26 27  1  0  0  0  0
 27 28  2  0  0  0  0
 28 29  1  0  0  0  0
 28 34  1  0  0  0  0
 29 30  2  0  0  0  0
 29 32  1  0  0  0  0
 30 31  1  0  0  0  0
 32 33  2  0  0  0  0
 33 34  1  0  0  0  0
 35 36  2  0  0  0  0
 35 40  1  0  0  0  0
 36 37  1  0  0  0  0
 37 38  2  0  0  0  0
 38 39  1  0  0  0  0
 38 44  1  0  0  0  0
 39 40  2  0  0  0  0
 39 42  1  0  0  0  0
 40 41  1  0  0  0  0
 42 43  2  0  0  0  0
 43 44  1  0  0  0  0
M  CHG  2   3  -1   4  -1
M  END
>  <CHROM.1>
112.03617547,-37.12454058,17.65835532,39.48201367,-25.45863795,-2.66743094
0.42483451,-0.53493581

>  <Name>
ligand

>  <RI>
0

>  <Rbt.Current_Directory>
/home/itssahil/PROJECTS/Mol_Feturizer/New_Systems/rnas/4QLM

>  <Rbt.Executable>
rbdock ($Id: //depot/dev/client3/rdock/2013.1/src/exe/rbdock.cxx#4 $)

>  <Rbt.Library>
libRbt.so (2013.1, Build901 2013/11/27)

>  <Rbt.Parameter_File>
/export/apps/rDock/src/rDock_2013.1_src/data/scripts/dock_solv.prm

>  <Rbt.Receptor>
prm/blind_docking_100.prm

>  <SCORE>
85.7058

>  <SCORE.INTER>
68.5919

>  <SCORE.INTER.CONST>
1

>  <SCORE.INTER.POLAR>
0

>  <SCORE.INTER.ROT>
2

>  <SCORE.INTER.SOLV>
44.1883

>  <SCORE.INTER.VDW>
26.0652

>  <SCORE.INTER.norm>
1.55891

>  <SCORE.INTRA>
1.21691

>  <SCORE.INTRA.DIHEDRAL>
0.0462645

>  <SCORE.INTRA.DIHEDRAL.0>
2.32994

>  <SCORE.INTRA.POLAR>
0

>  <SCORE.INTRA.POLAR.0>
0

>  <SCORE.INTRA.REPUL>
0

>  <SCORE.INTRA.REPUL.0>
0

>  <SCORE.INTRA.SOLV>
0.0894195

>  <SCORE.INTRA.SOLV.lig_0>
-117.703

>  <SCORE.INTRA.VDW>
1.14906

>  <SCORE.INTRA.VDW.0>
-1.59997

>  <SCORE.INTRA.norm>
0.0276569

>  <SCORE.RESTR>
15.897

>  <SCORE.RESTR.CAVITY>
15.897

>  <SCORE.RESTR.norm>
0.361295

>  <SCORE.SYSTEM>
0

>  <SCORE.SYSTEM.CONST>
0

>  <SCORE.SYSTEM.DIHEDRAL>
0

>  <SCORE.SYSTEM.SOLV>
0

>  <SCORE.SYSTEM.norm>
0

>  <SCORE.heavy>
44

>  <SCORE.norm>
1.94786

>  <RMSD>
27.514

$$$$
ligand
 OpenBabel11021811513D
libRbt.so/2013.1/901 2013/11/27
 44 50  0  0  0  0  0  0  0  0999 V2000
   16.4513   23.6417    0.3040 P   0  0  2  0  0  0  0  0  0  0  0  0
   13.7334   22.5581   -4.2396 P   0  0  1  0  0  0  0  0  0  0  0  0
   16.3371   22.8833    1.6240 O   0  5  0  0  0  0  0  0  0  0  0  0
   13.3075   23.9065   -4.7674 O   0  5  0  0  0  0  0  0  0  0  0  0
   16.9013   25.0381    0.6605 O   0  0  0  0  0  0  0  0  0  0  0  0
   13.5022   21.5273   -5.3679 O   0  0  0  0  0  0  0  0  0  0  0  0
   14.2478   22.4172    0.0099 C   0  0  0  0  0  0  0  0  0  0  0  0
   15.8160   21.6107   -3.0423 C   0  0  0  0  0  0  0  0  0  0  0  0
   15.0221   23.5769   -0.3250 O   0  0  0  0  0  0  0  0  0  0  0  0
   15.2687   22.7897   -3.6972 O   0  0  0  0  0  0  0  0  0  0  0  0
   12.8659   22.5059   -0.6288 C   0  0  1  0  0  0  0  0  0  0  0  0
   17.3189   21.9483   -2.7125 C   0  0  1  0  0  0  0  0  0  0  0  0
   12.1026   23.2032    0.1544 O   0  0  0  0  0  0  0  0  0  0  0  0
   17.8141   22.3664   -3.8053 O   0  0  0  0  0  0  0  0  0  0  0  0
   12.8715   23.2088   -1.9667 C   0  0  1  0  0  0  0  0  0  0  0  0
   17.4190   23.1884   -1.8020 C   0  0  1  0  0  0  0  0  0  0  0  0
   12.8465   22.2367   -2.9168 O   0  0  0  0  0  0  0  0  0  0  0  0
   17.6434   22.8421   -0.5286 O   0  0  0  0  0  0  0  0  0  0  0  0
   11.5215   24.0073   -1.9689 C   0  0  1  0  0  0  0  0  0  0  0  0
   18.5687   24.0611   -2.3549 C   0  0  1  0  0  0  0  0  0  0  0  0
   10.5065   23.2928   -2.7892 O   0  0  0  0  0  0  0  0  0  0  0  0
   19.8015   23.8955   -1.5194 O   0  0  0  0  0  0  0  0  0  0  0  0
   11.1421   24.0979   -0.7346 C   0  0  2  0  0  0  0  0  0  0  0  0
   18.7876   23.6092   -3.5418 C   0  0  2  0  0  0  0  0  0  0  0  0
   12.2019   29.3345   -1.2603 N   0  0  0  0  0  0  0  0  0  0  0  0
   12.4042   28.3830   -2.2147 C   0  0  0  0  0  0  0  0  0  0  0  0
   12.0982   27.0665   -1.9812 N   0  0  0  0  0  0  0  0  0  0  0  0
   11.5836   26.7104   -0.7652 C   0  0  0  0  0  0  0  0  0  0  0  0
   11.3857   27.6337    0.1859 C   0  0  0  0  0  0  0  0  0  0  0  0
   11.6905   28.9708   -0.0628 C   0  0  0  0  0  0  0  0  0  0  0  0
   11.5302   30.0341    0.8475 N   0  0  0  0  0  0  0  0  0  0  0  0
   10.8711   27.0103    1.2670 N   0  0  0  0  0  0  0  0  0  0  0  0
   10.7603   25.6836    0.9723 C   0  0  0  0  0  0  0  0  0  0  0  0
   11.1825   25.4993   -0.2854 N   0  0  0  0  0  0  0  0  0  0  0  0
   15.4503   26.8029   -5.9465 N   0  0  0  0  0  0  0  0  0  0  0  0
   15.1730   25.9605   -4.9170 C   0  0  0  0  0  0  0  0  0  0  0  0
   16.1664   25.1780   -4.3992 N   0  0  0  0  0  0  0  0  0  0  0  0
   17.4266   25.2453   -4.9069 C   0  0  0  0  0  0  0  0  0  0  0  0
   17.7101   26.0823   -5.9254 C   0  0  0  0  0  0  0  0  0  0  0  0
   16.6914   26.8728   -6.4494 C   0  0  0  0  0  0  0  0  0  0  0  0
   16.7623   27.8133   -7.5382 N   0  0  0  0  0  0  0  0  0  0  0  0
   19.0243   25.9335   -6.2181 N   0  0  0  0  0  0  0  0  0  0  0  0
   19.5486   25.0038   -5.3693 C   0  0  0  0  0  0  0  0  0  0  0  0
   18.5536   24.5866   -4.5606 N   0  0  0  0  0  0  0  0  0  0  0  0
  1  3  1  1  0  0  0
  1  5  2  0  0  0  0
  1  9  1  0  0  0  0
  1 18  1  0  0  0  0
  2  4  1  6  0  0  0
  2  6  2  0  0  0  0
  2 10  1  0  0  0  0
  2 17  1  0  0  0  0
  7  9  1  0  0  0  0
  8 10  1  0  0  0  0
 11  7  1  1  0  0  0
 11 13  1  0  0  0  0
 11 15  1  0  0  0  0
 12  8  1  6  0  0  0
 12 14  1  0  0  0  0
 12 16  1  0  0  0  0
 13 23  1  0  0  0  0
 14 24  1  0  0  0  0
 15 17  1  6  0  0  0
 15 19  1  0  0  0  0
 16 18  1  1  0  0  0
 16 20  1  0  0  0  0
 19 21  1  6  0  0  0
 19 23  1  0  0  0  0
 20 22  1  1  0  0  0
 20 24  1  0  0  0  0
 23 34  1  1  0  0  0
 24 44  1  6  0  0  0
 25 26  2  0  0  0  0
 25 30  1  0  0  0  0
 26 27  1  0  0  0  0
 27 28  2  0  0  0  0
 28 29  1  0  0  0  0
 28 34  1  0  0  0  0
 29 30  2  0  0  0  0
 29 32  1  0  0  0  0
 30 31  1  0  0  0  0
 32 33  2  0  0  0  0
 33 34  1  0  0  0  0
 35 36  2  0  0  0  0
 35 40  1  0  0  0  0
 36 37  1  0  0  0  0
 37 38  2  0  0  0  0
 38 39  1  0  0  0  0
 38 44  1  0  0  0  0
 39 40  2  0  0  0  0
 39 42  1  0  0  0  0
 40 41  1  0  0  0  0
 42 43  2  0  0  0  0
 43 44  1  0  0  0  0
M  CHG  2   3  -1   4  -1
M  END
>  <CHROM.1>
114.61711942,58.55020186,14.80826951,24.58822820,-2.34619128,-0.20188392
-0.59962926,2.35511325

>  <Name>
ligand

>  <RI>
0

>  <Rbt.Current_Directory>
/home/itssahil/PROJECTS/Mol_Feturizer/New_Systems/rnas/4QLM

>  <Rbt.Executable>
rbdock ($Id: //depot/dev/client3/rdock/2013.1/src/exe/rbdock.cxx#4 $)

>  <Rbt.Library>
libRbt.so (2013.1, Build901 2013/11/27)

>  <Rbt.Parameter_File>
/export/apps/rDock/src/rDock_2013.1_src/data/scripts/dock_solv.prm

>  <Rbt.Receptor>
prm/blind_docking_100.prm

>  <SCORE>
130.559

>  <SCORE.INTER>
114.923

>  <SCORE.INTER.CONST>
1

>  <SCORE.INTER.POLAR>
0

>  <SCORE.INTER.ROT>
2

>  <SCORE.INTER.SOLV>
53.2853

>  <SCORE.INTER.VDW>
53.9203

>  <SCORE.INTER.norm>
2.61189

>  <SCORE.INTRA>
-0.953748

>  <SCORE.INTRA.DIHEDRAL>
0.0489084

>  <SCORE.INTRA.DIHEDRAL.0>
2.32994

>  <SCORE.INTRA.POLAR>
0

>  <SCORE.INTRA.POLAR.0>
0

>  <SCORE.INTRA.REPUL>
0

>  <SCORE.INTRA.REPUL.0>
0

>  <SCORE.INTRA.SOLV>
1.06282

>  <SCORE.INTRA.SOLV.lig_0>
-117.703

>  <SCORE.INTRA.VDW>
-1.50961

>  <SCORE.INTRA.VDW.0>
-1.59997

>  <SCORE.INTRA.norm>
-0.0216761

>  <SCORE.RESTR>
16.5895

>  <SCORE.RESTR.CAVITY>
16.5895

>  <SCORE.RESTR.norm>
0.377034

>  <SCORE.SYSTEM>
0

>  <SCORE.SYSTEM.CONST>
0

>  <SCORE.SYSTEM.DIHEDRAL>
0

>  <SCORE.SYSTEM.SOLV>
0

>  <SCORE.SYSTEM.norm>
0

>  <SCORE.heavy>
44

>  <SCORE.norm>
2.96725

>  <RMSD>
27.639

$$$$
ligand
 OpenBabel11021811513D
libRbt.so/2013.1/901 2013/11/27
 44 50  0  0  0  0  0  0  0  0999 V2000
   16.3896   23.1124    0.1086 P   0  0  2  0  0  0  0  0  0  0  0  0
   13.5601   22.4338   -4.4455 P   0  0  1  0  0  0  0  0  0  0  0  0
   16.2546   22.2845    1.3841 O   0  5  0  0  0  0  0  0  0  0  0  0
   13.1961   23.8304   -4.8873 O   0  5  0  0  0  0  0  0  0  0  0  0
   16.9144   24.4613    0.5380 O   0  0  0  0  0  0  0  0  0  0  0  0
   13.2620   21.4838   -5.6276 O   0  0  0  0  0  0  0  0  0  0  0  0
   14.1231   22.0185   -0.2202 C   0  0  0  0  0  0  0  0  0  0  0  0
   15.6077   21.3153   -3.3389 C   0  0  0  0  0  0  0  0  0  0  0  0
   14.9506   23.1558   -0.4998 O   0  0  0  0  0  0  0  0  0  0  0  0
   15.1122   22.5565   -3.9155 O   0  0  0  0  0  0  0  0  0  0  0  0
   12.7391   22.2132   -0.8301 C   0  0  1  0  0  0  0  0  0  0  0  0
   17.1301   21.5577   -3.0147 C   0  0  1  0  0  0  0  0  0  0  0  0
   12.0226   22.9006    0.0044 O   0  0  0  0  0  0  0  0  0  0  0  0
   17.6312   22.0140   -4.0892 O   0  0  0  0  0  0  0  0  0  0  0  0
   12.7625   22.9923   -2.1251 C   0  0  1  0  0  0  0  0  0  0  0  0
   17.3049   22.7357   -2.0356 C   0  0  1  0  0  0  0  0  0  0  0  0
   12.6757   22.0800   -3.1293 O   0  0  0  0  0  0  0  0  0  0  0  0
   17.5284   22.3046   -0.7882 O   0  0  0  0  0  0  0  0  0  0  0  0
   11.4548   23.8558   -2.0591 C   0  0  1  0  0  0  0  0  0  0  0  0
   18.4900   23.5810   -2.5556 C   0  0  1  0  0  0  0  0  0  0  0  0
   10.3941   23.2420   -2.9028 O   0  0  0  0  0  0  0  0  0  0  0  0
   19.7238   23.3055   -1.7512 O   0  0  0  0  0  0  0  0  0  0  0  0
   11.0969   23.8926   -0.8156 C   0  0  2  0  0  0  0  0  0  0  0  0
   18.6699   23.1891   -3.7701 C   0  0  2  0  0  0  0  0  0  0  0  0
   12.5254   29.0640   -1.0075 N   0  0  0  0  0  0  0  0  0  0  0  0
   12.6996   28.1538   -2.0067 C   0  0  0  0  0  0  0  0  0  0  0  0
   12.2971   26.8509   -1.8587 N   0  0  0  0  0  0  0  0  0  0  0  0
   11.7138   26.4660   -0.6832 C   0  0  0  0  0  0  0  0  0  0  0  0
   11.5423   27.3480    0.3113 C   0  0  0  0  0  0  0  0  0  0  0  0
   11.9455   28.6724    0.1492 C   0  0  0  0  0  0  0  0  0  0  0  0
   11.8224   29.6934    1.1122 N   0  0  0  0  0  0  0  0  0  0  0  0
   10.9462   26.7042    1.3371 N   0  0  0  0  0  0  0  0  0  0  0  0
   10.7578   25.4062    0.9642 C   0  0  0  0  0  0  0  0  0  0  0  0
   11.2142   25.2614   -0.2867 N   0  0  0  0  0  0  0  0  0  0  0  0
   15.5363   26.8287   -5.7838 N   0  0  0  0  0  0  0  0  0  0  0  0
   15.2422   25.9695   -4.7730 C   0  0  0  0  0  0  0  0  0  0  0  0
   16.1793   25.0630   -4.3638 N   0  0  0  0  0  0  0  0  0  0  0  0
   17.4012   25.0240   -4.9603 C   0  0  0  0  0  0  0  0  0  0  0  0
   17.7016   25.8764   -5.9609 C   0  0  0  0  0  0  0  0  0  0  0  0
   16.7400   26.7939   -6.3741 C   0  0  0  0  0  0  0  0  0  0  0  0
   16.8358   27.7749   -7.4246 N   0  0  0  0  0  0  0  0  0  0  0  0
   18.9688   25.6064   -6.3563 N   0  0  0  0  0  0  0  0  0  0  0  0
   19.4478   24.5860   -5.5886 C   0  0  0  0  0  0  0  0  0  0  0  0
   18.4721   24.2350   -4.7267 N   0  0  0  0  0  0  0  0  0  0  0  0
  1  3  1  1  0  0  0
  1  5  2  0  0  0  0
  1  9  1  0  0  0  0
  1 18  1  0  0  0  0
  2  4  1  6  0  0  0
  2  6  2  0  0  0  0
  2 10  1  0  0  0  0
  2 17  1  0  0  0  0
  7  9  1  0  0  0  0
  8 10  1  0  0  0  0
 11  7  1  1  0  0  0
 11 13  1  0  0  0  0
 11 15  1  0  0  0  0
 12  8  1  6  0  0  0
 12 14  1  0  0  0  0
 12 16  1  0  0  0  0
 13 23  1  0  0  0  0
 14 24  1  0  0  0  0
 15 17  1  6  0  0  0
 15 19  1  0  0  0  0
 16 18  1  1  0  0  0
 16 20  1  0  0  0  0
 19 21  1  6  0  0  0
 19 23  1  0  0  0  0
 20 22  1  1  0  0  0
 20 24  1  0  0  0  0
 23 34  1  1  0  0  0
 24 44  1  6  0  0  0
 25 26  2  0  0  0  0
 25 30  1  0  0  0  0
 26 27  1  0  0  0  0
 27 28  2  0  0  0  0
 28 29  1  0  0  0  0
 28 34  1  0  0  0  0
 29 30  2  0  0  0  0
 29 32  1  0  0  0  0
 30 31  1  0  0  0  0
 32 33  2  0  0  0  0
 33 34  1  0  0  0  0
 35 36  2  0  0  0  0
 35 40  1  0  0  0  0
 36 37  1  0  0  0  0
 37 38  2  0  0  0  0
 38 39  1  0  0  0  0
 38 44  1  0  0  0  0
 39 40  2  0  0  0  0
 39 42  1  0  0  0  0
 40 41  1  0  0  0  0
 42 43  2  0  0  0  0
 43 44  1  0  0  0  0
M  CHG  2   3  -1   4  -1
M  END
>  <CHROM.1>
111.51224784,63.18333027,14.77429001,24.30275400,-2.44068832,-0.13881997
-0.64882402,2.48884030

>  <Name>
ligand

>  <RI>
0

>  <Rbt.Current_Directory>
/home/itssahil/PROJECTS/Mol_Feturizer/New_Systems/rnas/4QLM

>  <Rbt.Executable>
rbdock ($Id: //depot/dev/client3/rdock/2013.1/src/exe/rbdock.cxx#4 $)

>  <Rbt.Library>
libRbt.so (2013.1, Build901 2013/11/27)

>  <Rbt.Parameter_File>
/export/apps/rDock/src/rDock_2013.1_src/data/scripts/dock_solv.prm

>  <Rbt.Receptor>
prm/blind_docking_100.prm

>  <SCORE>
136.343

>  <SCORE.INTER>
123.457

>  <SCORE.INTER.CONST>
1

>  <SCORE.INTER.POLAR>
0

>  <SCORE.INTER.ROT>
2

>  <SCORE.INTER.SOLV>
54.2822

>  <SCORE.INTER.VDW>
59.2771

>  <SCORE.INTER.norm>
2.80584

>  <SCORE.INTRA>
-1.20344

>  <SCORE.INTRA.DIHEDRAL>
0.0351844

>  <SCORE.INTRA.DIHEDRAL.0>
2.32994

>  <SCORE.INTRA.POLAR>
0

>  <SCORE.INTRA.POLAR.0>
0

>  <SCORE.INTRA.REPUL>
0

>  <SCORE.INTRA.REPUL.0>
0

>  <SCORE.INTRA.SOLV>
0.865152

>  <SCORE.INTRA.SOLV.lig_0>
-117.703

>  <SCORE.INTRA.VDW>
-1.65361

>  <SCORE.INTRA.VDW.0>
-1.59997

>  <SCORE.INTRA.norm>
-0.0273509

>  <SCORE.RESTR>
14.0892

>  <SCORE.RESTR.CAVITY>
14.0892

>  <SCORE.RESTR.norm>
0.320209

>  <SCORE.SYSTEM>
0

>  <SCORE.SYSTEM.CONST>
0

>  <SCORE.SYSTEM.DIHEDRAL>
0

>  <SCORE.SYSTEM.SOLV>
0

>  <SCORE.SYSTEM.norm>
0

>  <SCORE.heavy>
44

>  <SCORE.norm>
3.09869

>  <RMSD>
27.686

$$$$
ligand
 OpenBabel11021811513D
libRbt.so/2013.1/901 2013/11/27
 44 50  0  0  0  0  0  0  0  0999 V2000
   17.2719   37.7628  -28.1154 P   0  0  2  0  0  0  0  0  0  0  0  0
   18.5898   37.4005  -22.8869 P   0  0  1  0  0  0  0  0  0  0  0  0
   17.8830   36.9529  -29.2561 O   0  5  0  0  0  0  0  0  0  0  0  0
   18.6521   38.8288  -22.4030 O   0  5  0  0  0  0  0  0  0  0  0  0
   16.7721   39.0464  -28.7336 O   0  0  0  0  0  0  0  0  0  0  0  0
   18.5993   36.4898  -21.6381 O   0  0  0  0  0  0  0  0  0  0  0  0
   19.4216   36.9216  -27.0608 C   0  0  0  0  0  0  0  0  0  0  0  0
   17.1169   36.0652  -24.5349 C   0  0  0  0  0  0  0  0  0  0  0  0
   18.4361   37.9628  -27.0920 O   0  0  0  0  0  0  0  0  0  0  0  0
   17.2772   37.3535  -23.8767 O   0  0  0  0  0  0  0  0  0  0  0  0
   20.5179   37.2659  -26.0582 C   0  0  1  0  0  0  0  0  0  0  0  0
   15.7558   36.1407  -25.3243 C   0  0  1  0  0  0  0  0  0  0  0  0
   21.3849   38.0259  -26.6525 O   0  0  0  0  0  0  0  0  0  0  0  0
   14.8998   36.5413  -24.4752 O   0  0  0  0  0  0  0  0  0  0  0  0
   20.0111   38.0394  -24.8628 C   0  0  1  0  0  0  0  0  0  0  0  0
   15.7759   37.2917  -26.3499 C   0  0  1  0  0  0  0  0  0  0  0  0
   19.8727   37.1431  -23.8499 O   0  0  0  0  0  0  0  0  0  0  0  0
   15.9991   36.8374  -27.5891 O   0  0  0  0  0  0  0  0  0  0  0  0
   21.1780   39.0395  -24.5494 C   0  0  1  0  0  0  0  0  0  0  0  0
   14.4075   38.0042  -26.2537 C   0  0  1  0  0  0  0  0  0  0  0  0
   21.9789   38.5454  -23.3970 O   0  0  0  0  0  0  0  0  0  0  0  0
   13.5221   37.5955  -27.3914 O   0  0  0  0  0  0  0  0  0  0  0  0
   21.9009   39.1134  -25.6207 C   0  0  2  0  0  0  0  0  0  0  0  0
   13.8982   37.5965  -25.1422 C   0  0  2  0  0  0  0  0  0  0  0  0
   20.9314   42.6447  -29.5464 N   0  0  0  0  0  0  0  0  0  0  0  0
   20.7704   41.2944  -29.6345 C   0  0  0  0  0  0  0  0  0  0  0  0
   21.0456   40.4752  -28.5693 N   0  0  0  0  0  0  0  0  0  0  0  0
   21.4916   41.0315  -27.4023 C   0  0  0  0  0  0  0  0  0  0  0  0
   21.6617   42.3572  -27.3027 C   0  0  0  0  0  0  0  0  0  0  0  0
   21.3707   43.1833  -28.3869 C   0  0  0  0  0  0  0  0  0  0  0  0
   21.5057   44.5855  -28.4120 N   0  0  0  0  0  0  0  0  0  0  0  0
   22.1002   42.6254  -26.0544 N   0  0  0  0  0  0  0  0  0  0  0  0
   22.2060   41.4426  -25.3845 C   0  0  0  0  0  0  0  0  0  0  0  0
   21.8150   40.4608  -26.2075 N   0  0  0  0  0  0  0  0  0  0  0  0
   14.5362   42.6122  -23.8948 N   0  0  0  0  0  0  0  0  0  0  0  0
   14.9843   41.9885  -25.0157 C   0  0  0  0  0  0  0  0  0  0  0  0
   14.7380   40.6558  -25.1906 N   0  0  0  0  0  0  0  0  0  0  0  0
   14.0437   39.9583  -24.2515 C   0  0  0  0  0  0  0  0  0  0  0  0
   13.5920   40.5717  -23.1389 C   0  0  0  0  0  0  0  0  0  0  0  0
   13.8507   41.9284  -22.9669 C   0  0  0  0  0  0  0  0  0  0  0  0
   13.4840   42.7733  -21.8593 N   0  0  0  0  0  0  0  0  0  0  0  0
   12.9480   39.6399  -22.3958 N   0  0  0  0  0  0  0  0  0  0  0  0
   13.0017   38.4508  -23.0613 C   0  0  0  0  0  0  0  0  0  0  0  0
   13.6785   38.6588  -24.2088 N   0  0  0  0  0  0  0  0  0  0  0  0
  1  3  1  6  0  0  0
  1  5  2  0  0  0  0
  1  9  1  0  0  0  0
  1 18  1  0  0  0  0
  2  4  1  1  0  0  0
  2  6  2  0  0  0  0
  2 10  1  0  0  0  0
  2 17  1  0  0  0  0
  7  9  1  0  0  0  0
  8 10  1  0  0  0  0
 11  7  1  6  0  0  0
 11 13  1  0  0  0  0
 11 15  1  0  0  0  0
 12  8  1  1  0  0  0
 12 14  1  0  0  0  0
 12 16  1  0  0  0  0
 13 23  1  0  0  0  0
 14 24  1  0  0  0  0
 15 17  1  1  0  0  0
 15 19  1  0  0  0  0
 16 18  1  6  0  0  0
 16 20  1  0  0  0  0
 19 21  1  1  0  0  0
 19 23  1  0  0  0  0
 20 22  1  6  0  0  0
 20 24  1  0  0  0  0
 23 34  1  6  0  0  0
 24 44  1  1  0  0  0
 25 26  2  0  0  0  0
 25 30  1  0  0  0  0
 26 27  1  0  0  0  0
 27 28  2  0  0  0  0
 28 29  1  0  0  0  0
 28 34  1  0  0  0  0
 29 30  2  0  0  0  0
 29 32  1  0  0  0  0
 30 31  1  0  0  0  0
 32 33  2  0  0  0  0
 33 34  1  0  0  0  0
 35 36  2  0  0  0  0
 35 40  1  0  0  0  0
 36 37  1  0  0  0  0
 37 38  2  0  0  0  0
 38 39  1  0  0  0  0
 38 44  1  0  0  0  0
 39 40  2  0  0  0  0
 39 42  1  0  0  0  0
 40 41  1  0  0  0  0
 42 43  2  0  0  0  0
 43 44  1  0  0  0  0
M  CHG  2   3  -1   4  -1
M  END
>  <CHROM.1>
-4.75199397,112.35720892,17.85001819,39.10820046,-25.58278938,-0.35554894
-0.33181010,2.85752862

>  <Name>
ligand

>  <RI>
0

>  <Rbt.Current_Directory>
/home/itssahil/PROJECTS/Mol_Feturizer/New_Systems/rnas/4QLM

>  <Rbt.Executable>
rbdock ($Id: //depot/dev/client3/rdock/2013.1/src/exe/rbdock.cxx#4 $)

>  <Rbt.Library>
libRbt.so (2013.1, Build901 2013/11/27)

>  <Rbt.Parameter_File>
/export/apps/rDock/src/rDock_2013.1_src/data/scripts/dock_solv.prm

>  <Rbt.Receptor>
prm/blind_docking_100.prm

>  <SCORE>
91.3577

>  <SCORE.INTER>
74.0576

>  <SCORE.INTER.CONST>
1

>  <SCORE.INTER.POLAR>
0

>  <SCORE.INTER.ROT>
2

>  <SCORE.INTER.SOLV>
42.5349

>  <SCORE.INTER.VDW>
30.2601

>  <SCORE.INTER.norm>
1.68313

>  <SCORE.INTRA>
0.837773

>  <SCORE.INTRA.DIHEDRAL>
0.0575564

>  <SCORE.INTRA.DIHEDRAL.0>
2.32994

>  <SCORE.INTRA.POLAR>
0

>  <SCORE.INTRA.POLAR.0>
0

>  <SCORE.INTRA.REPUL>
0

>  <SCORE.INTRA.REPUL.0>
0

>  <SCORE.INTRA.SOLV>
0.0922715

>  <SCORE.INTRA.SOLV.lig_0>
-117.703

>  <SCORE.INTRA.VDW>
0.762859

>  <SCORE.INTRA.VDW.0>
-1.59997

>  <SCORE.INTRA.norm>
0.0190403

>  <SCORE.RESTR>
16.4624

>  <SCORE.RESTR.CAVITY>
16.4624

>  <SCORE.RESTR.norm>
0.374145

>  <SCORE.SYSTEM>
0

>  <SCORE.SYSTEM.CONST>
0

>  <SCORE.SYSTEM.DIHEDRAL>
0

>  <SCORE.SYSTEM.SOLV>
0

>  <SCORE.SYSTEM.norm>
0

>  <SCORE.heavy>
44

>  <SCORE.norm>
2.07631

>  <RMSD>
27.692

$$$$
ligand
 OpenBabel11021811513D
libRbt.so/2013.1/901 2013/11/27
 44 50  0  0  0  0  0  0  0  0999 V2000
   13.5264   22.2634   -4.3642 P   0  0  2  0  0  0  0  0  0  0  0  0
   16.0166   23.6580    0.2249 P   0  0  1  0  0  0  0  0  0  0  0  0
   13.7557   20.9804   -5.1589 O   0  5  0  0  0  0  0  0  0  0  0  0
   16.3448   25.1217    0.0584 O   0  5  0  0  0  0  0  0  0  0  0  0
   13.0318   23.2883   -5.3564 O   0  0  0  0  0  0  0  0  0  0  0  0
   16.2293   23.3042    1.7144 O   0  0  0  0  0  0  0  0  0  0  0  0
   15.7648   21.4841   -3.4566 C   0  0  0  0  0  0  0  0  0  0  0  0
   14.0575   22.1114   -0.4372 C   0  0  0  0  0  0  0  0  0  0  0  0
   14.9169   22.6058   -3.7382 O   0  0  0  0  0  0  0  0  0  0  0  0
   14.5072   23.4955   -0.4076 O   0  0  0  0  0  0  0  0  0  0  0  0
   17.1001   21.9625   -2.8968 C   0  0  1  0  0  0  0  0  0  0  0  0
   12.5624   22.1451   -0.9324 C   0  0  1  0  0  0  0  0  0  0  0  0
   17.8745   22.2575   -3.8946 O   0  0  0  0  0  0  0  0  0  0  0  0
   11.9833   22.9948   -0.1864 O   0  0  0  0  0  0  0  0  0  0  0  0
   16.9807   23.2131   -2.0566 C   0  0  1  0  0  0  0  0  0  0  0  0
   12.4575   22.7950   -2.3266 C   0  0  1  0  0  0  0  0  0  0  0  0
   16.9955   22.8119   -0.7577 O   0  0  0  0  0  0  0  0  0  0  0  0
   12.3266   21.8717   -3.2869 O   0  0  0  0  0  0  0  0  0  0  0  0
   18.2881   24.0107   -2.3952 C   0  0  1  0  0  0  0  0  0  0  0  0
   11.2360   23.7416   -2.2910 C   0  0  1  0  0  0  0  0  0  0  0  0
   19.2854   23.8441   -1.3038 O   0  0  0  0  0  0  0  0  0  0  0  0
   10.0648   23.1130   -2.9826 O   0  0  0  0  0  0  0  0  0  0  0  0
   18.7359   23.5321   -3.5115 C   0  0  2  0  0  0  0  0  0  0  0  0
   10.9685   23.8919   -1.0392 C   0  0  2  0  0  0  0  0  0  0  0  0
   19.9070   25.6378   -8.3090 N   0  0  0  0  0  0  0  0  0  0  0  0
   20.3596   24.4437   -7.8334 C   0  0  0  0  0  0  0  0  0  0  0  0
   19.9995   23.9922   -6.5892 N   0  0  0  0  0  0  0  0  0  0  0  0
   19.1732   24.7617   -5.8176 C   0  0  0  0  0  0  0  0  0  0  0  0
   18.7257   25.9417   -6.2688 C   0  0  0  0  0  0  0  0  0  0  0  0
   19.0888   26.3887   -7.5381 C   0  0  0  0  0  0  0  0  0  0  0  0
   18.6887   27.6041   -8.1277 N   0  0  0  0  0  0  0  0  0  0  0  0
   17.9357   26.4771   -5.3141 N   0  0  0  0  0  0  0  0  0  0  0  0
   17.9071   25.6121   -4.2605 C   0  0  0  0  0  0  0  0  0  0  0  0
   18.6549   24.5464   -4.5754 N   0  0  0  0  0  0  0  0  0  0  0  0
   12.7712   28.6944   -1.9373 N   0  0  0  0  0  0  0  0  0  0  0  0
   12.9322   27.6026   -2.7301 C   0  0  0  0  0  0  0  0  0  0  0  0
   12.3993   26.4047   -2.3452 N   0  0  0  0  0  0  0  0  0  0  0  0
   11.7069   26.3060   -1.1785 C   0  0  0  0  0  0  0  0  0  0  0  0
   11.5392   27.3862   -0.3890 C   0  0  0  0  0  0  0  0  0  0  0  0
   12.0887   28.6015   -0.7867 C   0  0  0  0  0  0  0  0  0  0  0  0
   12.0500   29.8662   -0.0982 N   0  0  0  0  0  0  0  0  0  0  0  0
   10.8222   26.9915    0.6905 N   0  0  0  0  0  0  0  0  0  0  0  0
   10.5452   25.6629    0.5570 C   0  0  0  0  0  0  0  0  0  0  0  0
   11.0938   25.2491   -0.6031 N   0  0  0  0  0  0  0  0  0  0  0  0
  1  3  1  6  0  0  0
  1  5  2  0  0  0  0
  1  9  1  0  0  0  0
  1 18  1  0  0  0  0
  2  4  1  6  0  0  0
  2  6  2  0  0  0  0
  2 10  1  0  0  0  0
  2 17  1  0  0  0  0
  7  9  1  0  0  0  0
  8 10  1  0  0  0  0
 11  7  1  6  0  0  0
 11 13  1  0  0  0  0
 11 15  1  0  0  0  0
 12  8  1  1  0  0  0
 12 14  1  0  0  0  0
 12 16  1  0  0  0  0
 13 23  1  0  0  0  0
 14 24  1  0  0  0  0
 15 17  1  1  0  0  0
 15 19  1  0  0  0  0
 16 18  1  6  0  0  0
 16 20  1  0  0  0  0
 19 21  1  1  0  0  0
 19 23  1  0  0  0  0
 20 22  1  6  0  0  0
 20 24  1  0  0  0  0
 23 34  1  6  0  0  0
 24 44  1  1  0  0  0
 25 26  2  0  0  0  0
 25 30  1  0  0  0  0
 26 27  1  0  0  0  0
 27 28  2  0  0  0  0
 28 29  1  0  0  0  0
 28 34  1  0  0  0  0
 29 30  2  0  0  0  0
 29 32  1  0  0  0  0
 30 31  1  0  0  0  0
 32 33  2  0  0  0  0
 33 34  1  0  0  0  0
 35 36  2  0  0  0  0
 35 40  1  0  0  0  0
 36 37  1  0  0  0  0
 37 38  2  0  0  0  0
 38 39  1  0  0  0  0
 38 44  1  0  0  0  0
 39 40  2  0  0  0  0
 39 42  1  0  0  0  0
 40 41  1  0  0  0  0
 42 43  2  0  0  0  0
 43 44  1  0  0  0  0
M  CHG  2   3  -1   4  -1
M  END
>  <CHROM.1>
-76.32029457,103.92859551,15.04338566,24.33872880,-2.74059140,-3.05115809
0.61813732,-0.24269150

>  <Name>
ligand

>  <RI>
0

>  <Rbt.Current_Directory>
/home/itssahil/PROJECTS/Mol_Feturizer/New_Systems/rnas/4QLM

>  <Rbt.Executable>
rbdock ($Id: //depot/dev/client3/rdock/2013.1/src/exe/rbdock.cxx#4 $)

>  <Rbt.Library>
libRbt.so (2013.1, Build901 2013/11/27)

>  <Rbt.Parameter_File>
/export/apps/rDock/src/rDock_2013.1_src/data/scripts/dock_solv.prm

>  <Rbt.Receptor>
prm/blind_docking_80.prm

>  <SCORE>
110.169

>  <SCORE.INTER>
96.9291

>  <SCORE.INTER.CONST>
1

>  <SCORE.INTER.POLAR>
0

>  <SCORE.INTER.ROT>
2

>  <SCORE.INTER.SOLV>
50.3907

>  <SCORE.INTER.VDW>
42.8891

>  <SCORE.INTER.norm>
2.20293

>  <SCORE.INTRA>
4.63644

>  <SCORE.INTRA.DIHEDRAL>
0.150867

>  <SCORE.INTRA.DIHEDRAL.0>
2.32994

>  <SCORE.INTRA.POLAR>
0

>  <SCORE.INTRA.POLAR.0>
0

>  <SCORE.INTRA.REPUL>
0

>  <SCORE.INTRA.REPUL.0>
0

>  <SCORE.INTRA.SOLV>
0.0486049

>  <SCORE.INTRA.SOLV.lig_0>
-117.703

>  <SCORE.INTRA.VDW>
4.53671

>  <SCORE.INTRA.VDW.0>
-1.59997

>  <SCORE.INTRA.norm>
0.105374

>  <SCORE.RESTR>
8.60362

>  <SCORE.RESTR.CAVITY>
8.60362

>  <SCORE.RESTR.norm>
0.195537

>  <SCORE.SYSTEM>
0

>  <SCORE.SYSTEM.CONST>
0

>  <SCORE.SYSTEM.DIHEDRAL>
0

>  <SCORE.SYSTEM.SOLV>
0

>  <SCORE.SYSTEM.norm>
0

>  <SCORE.heavy>
44

>  <SCORE.norm>
2.50384

>  <RMSD>
27.704

$$$$
ligand
 OpenBabel11021811513D
libRbt.so/2013.1/901 2013/11/27
 44 50  0  0  0  0  0  0  0  0999 V2000
   13.3963   22.2918   -4.2679 P   0  0  2  0  0  0  0  0  0  0  0  0
   16.1869   23.4352    0.2166 P   0  0  1  0  0  0  0  0  0  0  0  0
   13.4333   20.9755   -5.0402 O   0  5  0  0  0  0  0  0  0  0  0  0
   16.6960   24.8408    0.0085 O   0  5  0  0  0  0  0  0  0  0  0  0
   13.0076   23.3539   -5.2682 O   0  0  0  0  0  0  0  0  0  0  0  0
   16.3983   23.0842    1.7069 O   0  0  0  0  0  0  0  0  0  0  0  0
   15.5424   21.2455   -3.4072 C   0  0  0  0  0  0  0  0  0  0  0  0
   14.0249   22.1441   -0.3552 C   0  0  0  0  0  0  0  0  0  0  0  0
   14.8382   22.4623   -3.6895 O   0  0  0  0  0  0  0  0  0  0  0  0
   14.6503   23.4584   -0.3691 O   0  0  0  0  0  0  0  0  0  0  0  0
   16.9451   21.5567   -2.8963 C   0  0  1  0  0  0  0  0  0  0  0  0
   12.5321   22.3624   -0.8084 C   0  0  1  0  0  0  0  0  0  0  0  0
   17.7196   21.7304   -3.9220 O   0  0  0  0  0  0  0  0  0  0  0  0
   12.0909   23.2936   -0.0652 O   0  0  0  0  0  0  0  0  0  0  0  0
   17.0142   22.8274   -2.0809 C   0  0  1  0  0  0  0  0  0  0  0  0
   12.4687   22.9948   -2.2130 C   0  0  1  0  0  0  0  0  0  0  0  0
   17.0174   22.4514   -0.7744 O   0  0  0  0  0  0  0  0  0  0  0  0
   12.1900   22.0789   -3.1486 O   0  0  0  0  0  0  0  0  0  0  0  0
   18.4026   23.4423   -2.4741 C   0  0  1  0  0  0  0  0  0  0  0  0
   11.3814   24.0923   -2.1638 C   0  0  1  0  0  0  0  0  0  0  0  0
   19.4034   23.1677   -1.4081 O   0  0  0  0  0  0  0  0  0  0  0  0
   10.1179   23.6084   -2.8078 O   0  0  0  0  0  0  0  0  0  0  0  0
   18.7499   22.8893   -3.5919 C   0  0  2  0  0  0  0  0  0  0  0  0
   11.1745   24.2989   -0.9085 C   0  0  2  0  0  0  0  0  0  0  0  0
   17.1580   27.3615   -6.0992 N   0  0  0  0  0  0  0  0  0  0  0  0
   16.6924   26.9148   -4.8988 C   0  0  0  0  0  0  0  0  0  0  0  0
   17.1669   25.7555   -4.3399 N   0  0  0  0  0  0  0  0  0  0  0  0
   18.1223   25.0397   -5.0070 C   0  0  0  0  0  0  0  0  0  0  0  0
   18.5847   25.4625   -6.1919 C   0  0  0  0  0  0  0  0  0  0  0  0
   18.1041   26.6466   -6.7483 C   0  0  0  0  0  0  0  0  0  0  0  0
   18.5055   27.1985   -7.9809 N   0  0  0  0  0  0  0  0  0  0  0  0
   19.5114   24.5765   -6.6144 N   0  0  0  0  0  0  0  0  0  0  0  0
   19.6100   23.5935   -5.6747 C   0  0  0  0  0  0  0  0  0  0  0  0
   18.7677   23.8859   -4.6753 N   0  0  0  0  0  0  0  0  0  0  0  0
   13.1781   28.9478   -2.1307 N   0  0  0  0  0  0  0  0  0  0  0  0
   13.1039   27.8559   -2.9360 C   0  0  0  0  0  0  0  0  0  0  0  0
   12.5513   26.7012   -2.4579 N   0  0  0  0  0  0  0  0  0  0  0  0
   12.0730   26.6460   -1.1857 C   0  0  0  0  0  0  0  0  0  0  0  0
   12.1391   27.7270   -0.3824 C   0  0  0  0  0  0  0  0  0  0  0  0
   12.7071   28.8978   -0.8761 C   0  0  0  0  0  0  0  0  0  0  0  0
   12.8968   30.1533   -0.1959 N   0  0  0  0  0  0  0  0  0  0  0  0
   11.5966   27.3798    0.8093 N   0  0  0  0  0  0  0  0  0  0  0  0
   11.1913   26.0799    0.7319 C   0  0  0  0  0  0  0  0  0  0  0  0
   11.4875   25.6362   -0.5064 N   0  0  0  0  0  0  0  0  0  0  0  0
  1  3  1  6  0  0  0
  1  5  2  0  0  0  0
  1  9  1  0  0  0  0
  1 18  1  0  0  0  0
  2  4  1  6  0  0  0
  2  6  2  0  0  0  0
  2 10  1  0  0  0  0
  2 17  1  0  0  0  0
  7  9  1  0  0  0  0
  8 10  1  0  0  0  0
 11  7  1  6  0  0  0
 11 13  1  0  0  0  0
 11 15  1  0  0  0  0
 12  8  1  1  0  0  0
 12 14  1  0  0  0  0
 12 16  1  0  0  0  0
 13 23  1  0  0  0  0
 14 24  1  0  0  0  0
 15 17  1  1  0  0  0
 15 19  1  0  0  0  0
 16 18  1  6  0  0  0
 16 20  1  0  0  0  0
 19 21  1  1  0  0  0
 19 23  1  0  0  0  0
 20 22  1  6  0  0  0
 20 24  1  0  0  0  0
 23 34  1  6  0  0  0
 24 44  1  1  0  0  0
 25 26  2  0  0  0  0
 25 30  1  0  0  0  0
 26 27  1  0  0  0  0
 27 28  2  0  0  0  0
 28 29  1  0  0  0  0
 28 34  1  0  0  0  0
 29 30  2  0  0  0  0
 29 32  1  0  0  0  0
 30 31  1  0  0  0  0
 32 33  2  0  0  0  0
 33 34  1  0  0  0  0
 35 36  2  0  0  0  0
 35 40  1  0  0  0  0
 36 37  1  0  0  0  0
 37 38  2  0  0  0  0
 38 39  1  0  0  0  0
 38 44  1  0  0  0  0
 39 40  2  0  0  0  0
 39 42  1  0  0  0  0
 40 41  1  0  0  0  0
 42 43  2  0  0  0  0
 43 44  1  0  0  0  0
M  CHG  2   3  -1   4  -1
M  END
>  <CHROM.1>
89.96076458,113.05991826,14.98784764,24.36526784,-2.59172153,3.13940455,0.61621746
-0.30826054

>  <Name>
ligand

>  <RI>
0

>  <Rbt.Current_Directory>
/home/itssahil/PROJECTS/Mol_Feturizer/New_Systems/rnas/4QLM

>  <Rbt.Executable>
rbdock ($Id: //depot/dev/client3/rdock/2013.1/src/exe/rbdock.cxx#4 $)

>  <Rbt.Library>
libRbt.so (2013.1, Build901 2013/11/27)

>  <Rbt.Parameter_File>
/export/apps/rDock/src/rDock_2013.1_src/data/scripts/dock_solv.prm

>  <Rbt.Receptor>
prm/blind_docking_80.prm

>  <SCORE>
123.182

>  <SCORE.INTER>
113.757

>  <SCORE.INTER.CONST>
1

>  <SCORE.INTER.POLAR>
0

>  <SCORE.INTER.ROT>
2

>  <SCORE.INTER.SOLV>
50.9715

>  <SCORE.INTER.VDW>
53.9145

>  <SCORE.INTER.norm>
2.5854

>  <SCORE.INTRA>
-0.153186

>  <SCORE.INTRA.DIHEDRAL>
-0.0302555

>  <SCORE.INTRA.DIHEDRAL.0>
2.32994

>  <SCORE.INTRA.POLAR>
0

>  <SCORE.INTRA.POLAR.0>
0

>  <SCORE.INTRA.REPUL>
0

>  <SCORE.INTRA.REPUL.0>
0

>  <SCORE.INTRA.SOLV>
0.0304784

>  <SCORE.INTRA.SOLV.lig_0>
-117.703

>  <SCORE.INTRA.VDW>
-0.153297

>  <SCORE.INTRA.VDW.0>
-1.59997

>  <SCORE.INTRA.norm>
-0.00348149

>  <SCORE.RESTR>
9.57773

>  <SCORE.RESTR.CAVITY>
9.57773

>  <SCORE.RESTR.norm>
0.217676

>  <SCORE.SYSTEM>
0

>  <SCORE.SYSTEM.CONST>
0

>  <SCORE.SYSTEM.DIHEDRAL>
0

>  <SCORE.SYSTEM.SOLV>
0

>  <SCORE.SYSTEM.norm>
0

>  <SCORE.heavy>
44

>  <SCORE.norm>
2.79959

>  <RMSD>
27.770

$$$$
ligand
 OpenBabel11021811513D
libRbt.so/2013.1/901 2013/11/27
 44 50  0  0  0  0  0  0  0  0999 V2000
   16.2093   23.4143    0.1274 P   0  0  2  0  0  0  0  0  0  0  0  0
   13.2606   22.9081   -4.3732 P   0  0  1  0  0  0  0  0  0  0  0  0
   16.0395   22.6051    1.4107 O   0  5  0  0  0  0  0  0  0  0  0  0
   12.9868   24.3240   -4.8184 O   0  5  0  0  0  0  0  0  0  0  0  0
   16.8340   24.7259    0.5384 O   0  0  0  0  0  0  0  0  0  0  0  0
   12.8767   21.9743   -5.5435 O   0  0  0  0  0  0  0  0  0  0  0  0
   13.8670   22.4789   -0.1553 C   0  0  0  0  0  0  0  0  0  0  0  0
   15.2446   21.6562   -3.2939 C   0  0  0  0  0  0  0  0  0  0  0  0
   14.7664   23.5542   -0.4568 O   0  0  0  0  0  0  0  0  0  0  0  0
   14.8265   22.9256   -3.8705 O   0  0  0  0  0  0  0  0  0  0  0  0
   12.4894   22.7658   -0.7430 C   0  0  1  0  0  0  0  0  0  0  0  0
   16.7855   21.7940   -2.9972 C   0  0  1  0  0  0  0  0  0  0  0  0
   11.8370   23.5061    0.0989 O   0  0  0  0  0  0  0  0  0  0  0  0
   17.2983   22.2082   -4.0833 O   0  0  0  0  0  0  0  0  0  0  0  0
   12.5443   23.5340   -2.0435 C   0  0  1  0  0  0  0  0  0  0  0  0
   17.0588   22.9627   -2.0294 C   0  0  1  0  0  0  0  0  0  0  0  0
   12.3769   22.6242   -3.0398 O   0  0  0  0  0  0  0  0  0  0  0  0
   17.2735   22.5242   -0.7830 O   0  0  0  0  0  0  0  0  0  0  0  0
   11.3010   24.4867   -1.9613 C   0  0  1  0  0  0  0  0  0  0  0  0
   18.2904   23.7205   -2.5753 C   0  0  1  0  0  0  0  0  0  0  0  0
   10.1858   23.9434   -2.7826 O   0  0  0  0  0  0  0  0  0  0  0  0
   19.5160   23.3644   -1.7901 O   0  0  0  0  0  0  0  0  0  0  0  0
   10.9683   24.5554   -0.7122 C   0  0  2  0  0  0  0  0  0  0  0  0
   18.4215   23.3101   -3.7900 C   0  0  2  0  0  0  0  0  0  0  0  0
   11.0916   28.3406    3.0928 N   0  0  0  0  0  0  0  0  0  0  0  0
   10.7708   27.0303    3.2855 C   0  0  0  0  0  0  0  0  0  0  0  0
   10.7701   26.1385    2.2433 N   0  0  0  0  0  0  0  0  0  0  0  0
   11.0957   26.5812    0.9910 C   0  0  0  0  0  0  0  0  0  0  0  0
   11.4063   27.8685    0.7845 C   0  0  0  0  0  0  0  0  0  0  0  0
   11.4139   28.7661    1.8508 C   0  0  0  0  0  0  0  0  0  0  0  0
   11.7212   30.1386    1.7683 N   0  0  0  0  0  0  0  0  0  0  0  0
   11.6863   28.0213   -0.5272 N   0  0  0  0  0  0  0  0  0  0  0  0
   11.5366   26.8082   -1.1315 C   0  0  0  0  0  0  0  0  0  0  0  0
   11.1896   25.9158   -0.1949 N   0  0  0  0  0  0  0  0  0  0  0  0
   20.5008   26.0768   -7.6813 N   0  0  0  0  0  0  0  0  0  0  0  0
   21.0938   25.0663   -6.9930 C   0  0  0  0  0  0  0  0  0  0  0  0
   20.4101   24.4424   -5.9877 N   0  0  0  0  0  0  0  0  0  0  0  0
   19.1416   24.8260   -5.6810 C   0  0  0  0  0  0  0  0  0  0  0  0
   18.5451   25.8249   -6.3627 C   0  0  0  0  0  0  0  0  0  0  0  0
   19.2502   26.4576   -7.3825 C   0  0  0  0  0  0  0  0  0  0  0  0
   18.8216   27.5486   -8.2197 N   0  0  0  0  0  0  0  0  0  0  0  0
   17.3047   25.9860   -5.8426 N   0  0  0  0  0  0  0  0  0  0  0  0
   17.1401   25.0760   -4.8403 C   0  0  0  0  0  0  0  0  0  0  0  0
   18.2802   24.3617   -4.7502 N   0  0  0  0  0  0  0  0  0  0  0  0
  1  3  1  1  0  0  0
  1  5  2  0  0  0  0
  1  9  1  0  0  0  0
  1 18  1  0  0  0  0
  2  4  1  6  0  0  0
  2  6  2  0  0  0  0
  2 10  1  0  0  0  0
  2 17  1  0  0  0  0
  7  9  1  0  0  0  0
  8 10  1  0  0  0  0
 11  7  1  1  0  0  0
 11 13  1  0  0  0  0
 11 15  1  0  0  0  0
 12  8  1  6  0  0  0
 12 14  1  0  0  0  0
 12 16  1  0  0  0  0
 13 23  1  0  0  0  0
 14 24  1  0  0  0  0
 15 17  1  6  0  0  0
 15 19  1  0  0  0  0
 16 18  1  1  0  0  0
 16 20  1  0  0  0  0
 19 21  1  6  0  0  0
 19 23  1  0  0  0  0
 20 22  1  1  0  0  0
 20 24  1  0  0  0  0
 23 34  1  1  0  0  0
 24 44  1  6  0  0  0
 25 26  2  0  0  0  0
 25 30  1  0  0  0  0
 26 27  1  0  0  0  0
 27 28  2  0  0  0  0
 28 29  1  0  0  0  0
 28 34  1  0  0  0  0
 29 30  2  0  0  0  0
 29 32  1  0  0  0  0
 30 31  1  0  0  0  0
 32 33  2  0  0  0  0
 33 34  1  0  0  0  0
 35 36  2  0  0  0  0
 35 40  1  0  0  0  0
 36 37  1  0  0  0  0
 37 38  2  0  0  0  0
 38 39  1  0  0  0  0
 38 44  1  0  0  0  0
 39 40  2  0  0  0  0
 39 42  1  0  0  0  0
 40 41  1  0  0  0  0
 42 43  2  0  0  0  0
 43 44  1  0  0  0  0
M  CHG  2   3  -1   4  -1
M  END
>  <CHROM.1>
-56.39572418,-119.40793118,14.89781091,24.53313778,-2.27871694,2.91416760
0.70683983,0.09337357

>  <Name>
ligand

>  <RI>
0

>  <Rbt.Current_Directory>
/home/itssahil/PROJECTS/Mol_Feturizer/New_Systems/rnas/4QLM

>  <Rbt.Executable>
rbdock ($Id: //depot/dev/client3/rdock/2013.1/src/exe/rbdock.cxx#4 $)

>  <Rbt.Library>
libRbt.so (2013.1, Build901 2013/11/27)

>  <Rbt.Parameter_File>
/export/apps/rDock/src/rDock_2013.1_src/data/scripts/dock_solv.prm

>  <Rbt.Receptor>
prm/blind_docking_60.prm

>  <SCORE>
89.8346

>  <SCORE.INTER>
72.8244

>  <SCORE.INTER.CONST>
1

>  <SCORE.INTER.POLAR>
0

>  <SCORE.INTER.ROT>
2

>  <SCORE.INTER.SOLV>
49.8049

>  <SCORE.INTER.VDW>
27.0147

>  <SCORE.INTER.norm>
1.6551

>  <SCORE.INTRA>
4.82462

>  <SCORE.INTRA.DIHEDRAL>
0.0412994

>  <SCORE.INTRA.DIHEDRAL.0>
2.32994

>  <SCORE.INTRA.POLAR>
0

>  <SCORE.INTRA.POLAR.0>
0

>  <SCORE.INTRA.REPUL>
0

>  <SCORE.INTRA.REPUL.0>
0

>  <SCORE.INTRA.SOLV>
0.0437092

>  <SCORE.INTRA.SOLV.lig_0>
-117.703

>  <SCORE.INTRA.VDW>
4.78212

>  <SCORE.INTRA.VDW.0>
-1.59997

>  <SCORE.INTRA.norm>
0.109651

>  <SCORE.RESTR>
12.1856

>  <SCORE.RESTR.CAVITY>
12.1856

>  <SCORE.RESTR.norm>
0.276945

>  <SCORE.SYSTEM>
0

>  <SCORE.SYSTEM.CONST>
0

>  <SCORE.SYSTEM.DIHEDRAL>
0

>  <SCORE.SYSTEM.SOLV>
0

>  <SCORE.SYSTEM.norm>
0

>  <SCORE.heavy>
44

>  <SCORE.norm>
2.0417

>  <RMSD>
27.791

$$$$
ligand
 OpenBabel11021811513D
libRbt.so/2013.1/901 2013/11/27
 44 50  0  0  0  0  0  0  0  0999 V2000
   18.7527   37.5121  -23.0652 P   0  0  2  0  0  0  0  0  0  0  0  0
   18.0577   37.5939  -28.4239 P   0  0  1  0  0  0  0  0  0  0  0  0
   18.3266   36.3924  -22.1191 O   0  5  0  0  0  0  0  0  0  0  0  0
   17.5997   38.9982  -28.7339 O   0  5  0  0  0  0  0  0  0  0  0  0
   18.7788   38.7739  -22.2364 O   0  0  0  0  0  0  0  0  0  0  0  0
   18.4349   36.9252  -29.7654 O   0  0  0  0  0  0  0  0  0  0  0  0
   17.0640   36.2521  -24.4800 C   0  0  0  0  0  0  0  0  0  0  0  0
   19.7253   36.5102  -26.7768 C   0  0  0  0  0  0  0  0  0  0  0  0
   17.6745   37.5183  -24.1966 O   0  0  0  0  0  0  0  0  0  0  0  0
   19.2323   37.7807  -27.2880 O   0  0  0  0  0  0  0  0  0  0  0  0
   16.0038   36.4112  -25.5645 C   0  0  1  0  0  0  0  0  0  0  0  0
   20.9251   36.8578  -25.8170 C   0  0  1  0  0  0  0  0  0  0  0  0
   14.8979   36.7824  -24.9975 O   0  0  0  0  0  0  0  0  0  0  0  0
   21.6847   37.6179  -26.4948 O   0  0  0  0  0  0  0  0  0  0  0  0
   16.3470   37.4745  -26.5823 C   0  0  1  0  0  0  0  0  0  0  0  0
   20.4648   37.7791  -24.6697 C   0  0  1  0  0  0  0  0  0  0  0  0
   16.8398   36.8262  -27.6709 O   0  0  0  0  0  0  0  0  0  0  0  0
   20.2884   37.0932  -23.5338 O   0  0  0  0  0  0  0  0  0  0  0  0
   14.9597   38.1250  -26.9175 C   0  0  1  0  0  0  0  0  0  0  0  0
   21.5502   38.8670  -24.5030 C   0  0  1  0  0  0  0  0  0  0  0  0
   14.4504   37.6026  -28.2142 O   0  0  0  0  0  0  0  0  0  0  0  0
   22.4189   38.5645  -23.3202 O   0  0  0  0  0  0  0  0  0  0  0  0
   14.1612   37.8171  -25.9462 C   0  0  2  0  0  0  0  0  0  0  0  0
   22.2525   38.8036  -25.5819 C   0  0  2  0  0  0  0  0  0  0  0  0
   14.8647   41.6821  -22.2872 N   0  0  0  0  0  0  0  0  0  0  0  0
   15.7565   40.6946  -22.5815 C   0  0  0  0  0  0  0  0  0  0  0  0
   15.4813   39.7512  -23.5385 N   0  0  0  0  0  0  0  0  0  0  0  0
   14.2872   39.8083  -24.2026 C   0  0  0  0  0  0  0  0  0  0  0  0
   13.3970   40.7693  -23.9191 C   0  0  0  0  0  0  0  0  0  0  0  0
   13.6885   41.7297  -22.9519 C   0  0  0  0  0  0  0  0  0  0  0  0
   12.8431   42.7872  -22.5620 N   0  0  0  0  0  0  0  0  0  0  0  0
   12.3245   40.5887  -24.7187 N   0  0  0  0  0  0  0  0  0  0  0  0
   12.5620   39.4949  -25.4974 C   0  0  0  0  0  0  0  0  0  0  0  0
   13.7781   39.0227  -25.1934 N   0  0  0  0  0  0  0  0  0  0  0  0
   19.4364   42.2798  -28.2477 N   0  0  0  0  0  0  0  0  0  0  0  0
   18.9784   41.1523  -27.6432 C   0  0  0  0  0  0  0  0  0  0  0  0
   19.8546   40.3358  -26.9853 N   0  0  0  0  0  0  0  0  0  0  0  0
   21.1765   40.6520  -26.9304 C   0  0  0  0  0  0  0  0  0  0  0  0
   21.6374   41.7716  -27.5240 C   0  0  0  0  0  0  0  0  0  0  0  0
   20.7387   42.5954  -28.1954 C   0  0  0  0  0  0  0  0  0  0  0  0
   21.0098   43.8169  -28.9092 N   0  0  0  0  0  0  0  0  0  0  0  0
   22.9739   41.8232  -27.3090 N   0  0  0  0  0  0  0  0  0  0  0  0
   23.3311   40.7310  -26.5746 C   0  0  0  0  0  0  0  0  0  0  0  0
   22.2123   40.0148  -26.3431 N   0  0  0  0  0  0  0  0  0  0  0  0
  1  3  1  1  0  0  0
  1  5  2  0  0  0  0
  1  9  1  0  0  0  0
  1 18  1  0  0  0  0
  2  4  1  6  0  0  0
  2  6  2  0  0  0  0
  2 10  1  0  0  0  0
  2 17  1  0  0  0  0
  7  9  1  0  0  0  0
  8 10  1  0  0  0  0
 11  7  1  1  0  0  0
 11 13  1  0  0  0  0
 11 15  1  0  0  0  0
 12  8  1  6  0  0  0
 12 14  1  0  0  0  0
 12 16  1  0  0  0  0
 13 23  1  0  0  0  0
 14 24  1  0  0  0  0
 15 17  1  6  0  0  0
 15 19  1  0  0  0  0
 16 18  1  1  0  0  0
 16 20  1  0  0  0  0
 19 21  1  6  0  0  0
 19 23  1  0  0  0  0
 20 22  1  1  0  0  0
 20 24  1  0  0  0  0
 23 34  1  1  0  0  0
 24 44  1  6  0  0  0
 25 26  2  0  0  0  0
 25 30  1  0  0  0  0
 26 27  1  0  0  0  0
 27 28  2  0  0  0  0
 28 29  1  0  0  0  0
 28 34  1  0  0  0  0
 29 30  2  0  0  0  0
 29 32  1  0  0  0  0
 30 31  1  0  0  0  0
 32 33  2  0  0  0  0
 33 34  1  0  0  0  0
 35 36  2  0  0  0  0
 35 40  1  0  0  0  0
 36 37  1  0  0  0  0
 37 38  2  0  0  0  0
 38 39  1  0  0  0  0
 38 44  1  0  0  0  0
 39 40  2  0  0  0  0
 39 42  1  0  0  0  0
 40 41  1  0  0  0  0
 42 43  2  0  0  0  0
 43 44  1  0  0  0  0
M  CHG  2   3  -1   4  -1
M  END
>  <CHROM.1>
37.70890257,58.59293111,18.02838158,38.96451683,-25.66717926,-2.89402597
0.19112603,-0.80981832

>  <Name>
ligand

>  <RI>
0

>  <Rbt.Current_Directory>
/home/itssahil/PROJECTS/Mol_Feturizer/New_Systems/rnas/4QLM

>  <Rbt.Executable>
rbdock ($Id: //depot/dev/client3/rdock/2013.1/src/exe/rbdock.cxx#4 $)

>  <Rbt.Library>
libRbt.so (2013.1, Build901 2013/11/27)

>  <Rbt.Parameter_File>
/export/apps/rDock/src/rDock_2013.1_src/data/scripts/dock_solv.prm

>  <Rbt.Receptor>
prm/blind_docking_100.prm

>  <SCORE>
92.5885

>  <SCORE.INTER>
76.6619

>  <SCORE.INTER.CONST>
1

>  <SCORE.INTER.POLAR>
0

>  <SCORE.INTER.ROT>
2

>  <SCORE.INTER.SOLV>
42.0451

>  <SCORE.INTER.VDW>
32.1596

>  <SCORE.INTER.norm>
1.74232

>  <SCORE.INTRA>
-1.60087

>  <SCORE.INTRA.DIHEDRAL>
0.16145

>  <SCORE.INTRA.DIHEDRAL.0>
2.32994

>  <SCORE.INTRA.POLAR>
0

>  <SCORE.INTRA.POLAR.0>
0

>  <SCORE.INTRA.REPUL>
0

>  <SCORE.INTRA.REPUL.0>
0

>  <SCORE.INTRA.SOLV>
1.42244

>  <SCORE.INTRA.SOLV.lig_0>
-117.703

>  <SCORE.INTRA.VDW>
-2.39281

>  <SCORE.INTRA.VDW.0>
-1.59997

>  <SCORE.INTRA.norm>
-0.0363834

>  <SCORE.RESTR>
17.5275

>  <SCORE.RESTR.CAVITY>
17.5275

>  <SCORE.RESTR.norm>
0.398352

>  <SCORE.SYSTEM>
0

>  <SCORE.SYSTEM.CONST>
0

>  <SCORE.SYSTEM.DIHEDRAL>
0

>  <SCORE.SYSTEM.SOLV>
0

>  <SCORE.SYSTEM.norm>
0

>  <SCORE.heavy>
44

>  <SCORE.norm>
2.10428

>  <RMSD>
27.819

$$$$
ligand
 OpenBabel11021811513D
libRbt.so/2013.1/901 2013/11/27
 44 50  0  0  0  0  0  0  0  0999 V2000
   16.2803   23.6456    0.2148 P   0  0  2  0  0  0  0  0  0  0  0  0
   13.1617   22.8971   -4.1349 P   0  0  1  0  0  0  0  0  0  0  0  0
   16.0700   23.0205    1.5916 O   0  5  0  0  0  0  0  0  0  0  0  0
   13.0158   24.2685   -4.7479 O   0  5  0  0  0  0  0  0  0  0  0  0
   17.0437   24.9270    0.4484 O   0  0  0  0  0  0  0  0  0  0  0  0
   12.6522   21.8715   -5.1730 O   0  0  0  0  0  0  0  0  0  0  0  0
   13.8495   22.9260    0.0922 C   0  0  0  0  0  0  0  0  0  0  0  0
   15.0438   21.5907   -2.9435 C   0  0  0  0  0  0  0  0  0  0  0  0
   14.8414   23.8594   -0.3566 O   0  0  0  0  0  0  0  0  0  0  0  0
   14.7360   22.8162   -3.6661 O   0  0  0  0  0  0  0  0  0  0  0  0
   12.4900   23.2779   -0.5021 C   0  0  1  0  0  0  0  0  0  0  0  0
   16.5991   21.6061   -2.6936 C   0  0  1  0  0  0  0  0  0  0  0  0
   11.9396   24.1779    0.2525 O   0  0  0  0  0  0  0  0  0  0  0  0
   17.1173   21.8303   -3.8317 O   0  0  0  0  0  0  0  0  0  0  0  0
   12.5813   23.8721   -1.8888 C   0  0  1  0  0  0  0  0  0  0  0  0
   17.0155   22.8501   -1.8837 C   0  0  1  0  0  0  0  0  0  0  0  0
   12.2948   22.8694   -2.7611 O   0  0  0  0  0  0  0  0  0  0  0  0
   17.2233   22.5473   -0.5965 O   0  0  0  0  0  0  0  0  0  0  0  0
   11.4413   24.9493   -1.9038 C   0  0  1  0  0  0  0  0  0  0  0  0
   18.2990   23.4063   -2.5414 C   0  0  1  0  0  0  0  0  0  0  0  0
   10.2535   24.4262   -2.6312 O   0  0  0  0  0  0  0  0  0  0  0  0
   19.5065   23.0257   -1.7398 O   0  0  0  0  0  0  0  0  0  0  0  0
   11.1548   25.2034   -0.6673 C   0  0  2  0  0  0  0  0  0  0  0  0
   18.3522   22.8396   -3.6977 C   0  0  2  0  0  0  0  0  0  0  0  0
   14.4882   29.0633    1.0093 N   0  0  0  0  0  0  0  0  0  0  0  0
   14.8073   27.7467    0.8613 C   0  0  0  0  0  0  0  0  0  0  0  0
   13.8798   26.8360    0.4232 N   0  0  0  0  0  0  0  0  0  0  0  0
   12.6137   27.2648    0.1345 C   0  0  0  0  0  0  0  0  0  0  0  0
   12.2829   28.5552    0.2820 C   0  0  0  0  0  0  0  0  0  0  0  0
   13.2341   29.4758    0.7186 C   0  0  0  0  0  0  0  0  0  0  0  0
   13.0158   30.8539    0.9140 N   0  0  0  0  0  0  0  0  0  0  0  0
   10.9884   28.6938   -0.0747 N   0  0  0  0  0  0  0  0  0  0  0  0
   10.5204   27.4660   -0.4387 C   0  0  0  0  0  0  0  0  0  0  0  0
   11.5250   26.5870   -0.3272 N   0  0  0  0  0  0  0  0  0  0  0  0
   17.0066   27.5759   -5.3937 N   0  0  0  0  0  0  0  0  0  0  0  0
   16.8421   27.0835   -4.1380 C   0  0  0  0  0  0  0  0  0  0  0  0
   17.2449   25.8087   -3.8550 N   0  0  0  0  0  0  0  0  0  0  0  0
   17.8123   25.0388   -4.8223 C   0  0  0  0  0  0  0  0  0  0  0  0
   17.9829   25.5224   -6.0693 C   0  0  0  0  0  0  0  0  0  0  0  0
   17.5662   26.8204   -6.3499 C   0  0  0  0  0  0  0  0  0  0  0  0
   17.6323   27.5275   -7.6033 N   0  0  0  0  0  0  0  0  0  0  0  0
   18.5611   24.5447   -6.8074 N   0  0  0  0  0  0  0  0  0  0  0  0
   18.7501   23.4585   -6.0047 C   0  0  0  0  0  0  0  0  0  0  0  0
   18.2867   23.7751   -4.7787 N   0  0  0  0  0  0  0  0  0  0  0  0
  1  3  1  1  0  0  0
  1  5  2  0  0  0  0
  1  9  1  0  0  0  0
  1 18  1  0  0  0  0
  2  4  1  6  0  0  0
  2  6  2  0  0  0  0
  2 10  1  0  0  0  0
  2 17  1  0  0  0  0
  7  9  1  0  0  0  0
  8 10  1  0  0  0  0
 11  7  1  1  0  0  0
 11 13  1  0  0  0  0
 11 15  1  0  0  0  0
 12  8  1  6  0  0  0
 12 14  1  0  0  0  0
 12 16  1  0  0  0  0
 13 23  1  0  0  0  0
 14 24  1  0  0  0  0
 15 17  1  6  0  0  0
 15 19  1  0  0  0  0
 16 18  1  1  0  0  0
 16 20  1  0  0  0  0
 19 21  1  6  0  0  0
 19 23  1  0  0  0  0
 20 22  1  1  0  0  0
 20 24  1  0  0  0  0
 23 34  1  1  0  0  0
 24 44  1  6  0  0  0
 25 26  2  0  0  0  0
 25 30  1  0  0  0  0
 26 27  1  0  0  0  0
 27 28  2  0  0  0  0
 28 29  1  0  0  0  0
 28 34  1  0  0  0  0
 29 30  2  0  0  0  0
 29 32  1  0  0  0  0
 30 31  1  0  0  0  0
 32 33  2  0  0  0  0
 33 34  1  0  0  0  0
 35 36  2  0  0  0  0
 35 40  1  0  0  0  0
 36 37  1  0  0  0  0
 37 38  2  0  0  0  0
 38 39  1  0  0  0  0
 38 44  1  0  0  0  0
 39 40  2  0  0  0  0
 39 42  1  0  0  0  0
 40 41  1  0  0  0  0
 42 43  2  0  0  0  0
 43 44  1  0  0  0  0
M  CHG  2   3  -1   4  -1
M  END
>  <CHROM.1>
31.58165692,98.93460326,14.92756389,24.77306717,-2.19624901,2.64861602,0.67505074
0.13460456

>  <Name>
ligand

>  <RI>
0

>  <Rbt.Current_Directory>
/home/itssahil/PROJECTS/Mol_Feturizer/New_Systems/rnas/4QLM

>  <Rbt.Executable>
rbdock ($Id: //depot/dev/client3/rdock/2013.1/src/exe/rbdock.cxx#4 $)

>  <Rbt.Library>
libRbt.so (2013.1, Build901 2013/11/27)

>  <Rbt.Parameter_File>
/export/apps/rDock/src/rDock_2013.1_src/data/scripts/dock_solv.prm

>  <Rbt.Receptor>
prm/blind_docking_100.prm

>  <SCORE>
85.8452

>  <SCORE.INTER>
68.8726

>  <SCORE.INTER.CONST>
1

>  <SCORE.INTER.POLAR>
0

>  <SCORE.INTER.ROT>
2

>  <SCORE.INTER.SOLV>
50.584

>  <SCORE.INTER.VDW>
24.1204

>  <SCORE.INTER.norm>
1.56529

>  <SCORE.INTRA>
-0.812066

>  <SCORE.INTRA.DIHEDRAL>
0.182941

>  <SCORE.INTRA.DIHEDRAL.0>
2.32994

>  <SCORE.INTRA.POLAR>
0

>  <SCORE.INTRA.POLAR.0>
0

>  <SCORE.INTRA.REPUL>
0

>  <SCORE.INTRA.REPUL.0>
0

>  <SCORE.INTRA.SOLV>
0.38758

>  <SCORE.INTRA.SOLV.lig_0>
-117.703

>  <SCORE.INTRA.VDW>
-1.09733

>  <SCORE.INTRA.VDW.0>
-1.59997

>  <SCORE.INTRA.norm>
-0.018456

>  <SCORE.RESTR>
17.7847

>  <SCORE.RESTR.CAVITY>
17.7847

>  <SCORE.RESTR.norm>
0.404198

>  <SCORE.SYSTEM>
0

>  <SCORE.SYSTEM.CONST>
0

>  <SCORE.SYSTEM.DIHEDRAL>
0

>  <SCORE.SYSTEM.SOLV>
0

>  <SCORE.SYSTEM.norm>
0

>  <SCORE.heavy>
44

>  <SCORE.norm>
1.95103

>  <RMSD>
27.835

$$$$
ligand
 OpenBabel11021811513D
libRbt.so/2013.1/901 2013/11/27
 44 50  0  0  0  0  0  0  0  0999 V2000
   13.2427   23.1082   -4.2363 P   0  0  2  0  0  0  0  0  0  0  0  0
   16.3478   23.6498    0.1535 P   0  0  1  0  0  0  0  0  0  0  0  0
   13.0198   21.8223   -5.0283 O   0  5  0  0  0  0  0  0  0  0  0  0
   17.0890   24.9481   -0.0538 O   0  5  0  0  0  0  0  0  0  0  0  0
   13.0123   24.2427   -5.2055 O   0  0  0  0  0  0  0  0  0  0  0  0
   16.5465   23.2360    1.6295 O   0  0  0  0  0  0  0  0  0  0  0  0
   15.1998   21.6835   -3.4739 C   0  0  0  0  0  0  0  0  0  0  0  0
   13.9732   22.7706   -0.3532 C   0  0  0  0  0  0  0  0  0  0  0  0
   14.7116   23.0107   -3.7113 O   0  0  0  0  0  0  0  0  0  0  0  0
   14.8196   23.9547   -0.3722 O   0  0  0  0  0  0  0  0  0  0  0  0
   16.6525   21.7328   -3.0128 C   0  0  1  0  0  0  0  0  0  0  0  0
   12.5272   23.2571   -0.7455 C   0  0  1  0  0  0  0  0  0  0  0  0
   17.4089   21.7892   -4.0649 O   0  0  0  0  0  0  0  0  0  0  0  0
   12.2836   24.2355    0.0274 O   0  0  0  0  0  0  0  0  0  0  0  0
   16.9734   22.9543   -2.1825 C   0  0  1  0  0  0  0  0  0  0  0  0
   12.5267   23.9200   -2.1374 C   0  0  1  0  0  0  0  0  0  0  0  0
   16.9564   22.5564   -0.8827 O   0  0  0  0  0  0  0  0  0  0  0  0
   12.0580   23.0870   -3.0746 O   0  0  0  0  0  0  0  0  0  0  0  0
   18.4336   23.3239   -2.6200 C   0  0  1  0  0  0  0  0  0  0  0  0
   11.6523   25.1901   -2.0306 C   0  0  1  0  0  0  0  0  0  0  0  0
   19.4073   22.8556   -1.5972 O   0  0  0  0  0  0  0  0  0  0  0  0
   10.3014   24.9492   -2.6325 O   0  0  0  0  0  0  0  0  0  0  0  0
   18.6383   22.7420   -3.7580 C   0  0  2  0  0  0  0  0  0  0  0  0
   11.5295   25.4036   -0.7655 C   0  0  2  0  0  0  0  0  0  0  0  0
   17.3377   27.1901   -6.4680 N   0  0  0  0  0  0  0  0  0  0  0  0
   16.7118   26.7302   -5.3482 C   0  0  0  0  0  0  0  0  0  0  0  0
   17.1233   25.5786   -4.7268 N   0  0  0  0  0  0  0  0  0  0  0  0
   18.1798   24.8843   -5.2484 C   0  0  0  0  0  0  0  0  0  0  0  0
   18.8008   25.3202   -6.3533 C   0  0  0  0  0  0  0  0  0  0  0  0
   18.3823   26.4964   -6.9731 C   0  0  0  0  0  0  0  0  0  0  0  0
   18.9473   27.0603   -8.1340 N   0  0  0  0  0  0  0  0  0  0  0  0
   19.7966   24.4543   -6.6370 N   0  0  0  0  0  0  0  0  0  0  0  0
   19.7776   23.4701   -5.6935 C   0  0  0  0  0  0  0  0  0  0  0  0
   18.7932   23.7424   -4.8269 N   0  0  0  0  0  0  0  0  0  0  0  0
   14.9473   29.2357   -1.6337 N   0  0  0  0  0  0  0  0  0  0  0  0
   14.7747   28.1138   -2.3806 C   0  0  0  0  0  0  0  0  0  0  0  0
   13.8329   27.1953   -2.0109 N   0  0  0  0  0  0  0  0  0  0  0  0
   13.0685   27.4047   -0.9053 C   0  0  0  0  0  0  0  0  0  0  0  0
   13.2311   28.5179   -0.1620 C   0  0  0  0  0  0  0  0  0  0  0  0
   14.1953   29.4463   -0.5435 C   0  0  0  0  0  0  0  0  0  0  0  0
   14.5497   30.6826    0.1054 N   0  0  0  0  0  0  0  0  0  0  0  0
   12.3471   28.4536    0.8624 N   0  0  0  0  0  0  0  0  0  0  0  0
   11.6359   27.2962    0.7411 C   0  0  0  0  0  0  0  0  0  0  0  0
   12.0874   26.6564   -0.3565 N   0  0  0  0  0  0  0  0  0  0  0  0
  1  3  1  6  0  0  0
  1  5  2  0  0  0  0
  1  9  1  0  0  0  0
  1 18  1  0  0  0  0
  2  4  1  6  0  0  0
  2  6  2  0  0  0  0
  2 10  1  0  0  0  0
  2 17  1  0  0  0  0
  7  9  1  0  0  0  0
  8 10  1  0  0  0  0
 11  7  1  6  0  0  0
 11 13  1  0  0  0  0
 11 15  1  0  0  0  0
 12  8  1  1  0  0  0
 12 14  1  0  0  0  0
 12 16  1  0  0  0  0
 13 23  1  0  0  0  0
 14 24  1  0  0  0  0
 15 17  1  1  0  0  0
 15 19  1  0  0  0  0
 16 18  1  6  0  0  0
 16 20  1  0  0  0  0
 19 21  1  1  0  0  0
 19 23  1  0  0  0  0
 20 22  1  1  0  0  0
 20 24  1  0  0  0  0
 23 34  1  6  0  0  0
 24 44  1  6  0  0  0
 25 26  2  0  0  0  0
 25 30  1  0  0  0  0
 26 27  1  0  0  0  0
 27 28  2  0  0  0  0
 28 29  1  0  0  0  0
 28 34  1  0  0  0  0
 29 30  2  0  0  0  0
 29 32  1  0  0  0  0
 30 31  1  0  0  0  0
 32 33  2  0  0  0  0
 33 34  1  0  0  0  0
 35 36  2  0  0  0  0
 35 40  1  0  0  0  0
 36 37  1  0  0  0  0
 37 38  2  0  0  0  0
 38 39  1  0  0  0  0
 38 44  1  0  0  0  0
 39 40  2  0  0  0  0
 39 42  1  0  0  0  0
 40 41  1  0  0  0  0
 42 43  2  0  0  0  0
 43 44  1  0  0  0  0
M  CHG  2   3  -1   4  -1
M  END
>  <CHROM.1>
74.53686188,94.69305956,15.25621125,24.78241281,-2.58809028,2.91702461,0.71264294
-0.09804053

>  <Name>
ligand

>  <RI>
0

>  <Rbt.Current_Directory>
/home/itssahil/PROJECTS/Mol_Feturizer/New_Systems/rnas/4QLM

>  <Rbt.Executable>
rbdock ($Id: //depot/dev/client3/rdock/2013.1/src/exe/rbdock.cxx#4 $)

>  <Rbt.Library>
libRbt.so (2013.1, Build901 2013/11/27)

>  <Rbt.Parameter_File>
/export/apps/rDock/src/rDock_2013.1_src/data/scripts/dock_solv.prm

>  <Rbt.Receptor>
prm/blind_docking_100.prm

>  <SCORE>
88.6632

>  <SCORE.INTER>
76.8498

>  <SCORE.INTER.CONST>
1

>  <SCORE.INTER.POLAR>
0

>  <SCORE.INTER.ROT>
2

>  <SCORE.INTER.SOLV>
47.3403

>  <SCORE.INTER.VDW>
30.5197

>  <SCORE.INTER.norm>
1.74659

>  <SCORE.INTRA>
-1.10953

>  <SCORE.INTRA.DIHEDRAL>
0.0021079

>  <SCORE.INTRA.DIHEDRAL.0>
2.32994

>  <SCORE.INTRA.POLAR>
0

>  <SCORE.INTRA.POLAR.0>
0

>  <SCORE.INTRA.REPUL>
0

>  <SCORE.INTRA.REPUL.0>
0

>  <SCORE.INTRA.SOLV>
0.0187622

>  <SCORE.INTRA.SOLV.lig_0>
-117.703

>  <SCORE.INTRA.VDW>
-1.11997

>  <SCORE.INTRA.VDW.0>
-1.59997

>  <SCORE.INTRA.norm>
-0.0252166

>  <SCORE.RESTR>
12.923

>  <SCORE.RESTR.CAVITY>
12.923

>  <SCORE.RESTR.norm>
0.293704

>  <SCORE.SYSTEM>
0

>  <SCORE.SYSTEM.CONST>
0

>  <SCORE.SYSTEM.DIHEDRAL>
0

>  <SCORE.SYSTEM.SOLV>
0

>  <SCORE.SYSTEM.norm>
0

>  <SCORE.heavy>
44

>  <SCORE.norm>
2.01507

>  <RMSD>
27.917

$$$$
ligand
 OpenBabel11021811513D
libRbt.so/2013.1/901 2013/11/27
 44 50  0  0  0  0  0  0  0  0999 V2000
   13.2797   23.0733   -4.3466 P   0  0  2  0  0  0  0  0  0  0  0  0
   16.3707   23.6492    0.0488 P   0  0  1  0  0  0  0  0  0  0  0  0
   13.1697   21.8206   -5.2120 O   0  5  0  0  0  0  0  0  0  0  0  0
   16.9838   25.0218   -0.0856 O   0  5  0  0  0  0  0  0  0  0  0  0
   12.9320   24.2356   -5.2454 O   0  0  0  0  0  0  0  0  0  0  0  0
   16.6247   23.1705    1.4963 O   0  0  0  0  0  0  0  0  0  0  0  0
   15.3710   21.7984   -3.6818 C   0  0  0  0  0  0  0  0  0  0  0  0
   14.0839   22.5800   -0.4948 C   0  0  0  0  0  0  0  0  0  0  0  0
   14.7572   23.0850   -3.8372 O   0  0  0  0  0  0  0  0  0  0  0  0
   14.8146   23.8381   -0.4487 O   0  0  0  0  0  0  0  0  0  0  0  0
   16.8179   21.9581   -3.2274 C   0  0  1  0  0  0  0  0  0  0  0  0
   12.5939   22.9494   -0.8488 C   0  0  1  0  0  0  0  0  0  0  0  0
   17.5533   22.1474   -4.2790 O   0  0  0  0  0  0  0  0  0  0  0  0
   12.2682   23.8535   -0.0178 O   0  0  0  0  0  0  0  0  0  0  0  0
   17.0318   23.1539   -2.3282 C   0  0  1  0  0  0  0  0  0  0  0  0
   12.5148   23.6895   -2.1989 C   0  0  1  0  0  0  0  0  0  0  0  0
   17.0675   22.6808   -1.0541 O   0  0  0  0  0  0  0  0  0  0  0  0
   12.1158   22.8721   -3.1810 O   0  0  0  0  0  0  0  0  0  0  0  0
   18.4455   23.6851   -2.7518 C   0  0  1  0  0  0  0  0  0  0  0  0
   11.5258   24.8626   -2.0117 C   0  0  1  0  0  0  0  0  0  0  0  0
   19.4709   23.2523   -1.7645 O   0  0  0  0  0  0  0  0  0  0  0  0
   10.1967   24.5303   -2.6186 O   0  0  0  0  0  0  0  0  0  0  0  0
   18.6910   23.1929   -3.9236 C   0  0  2  0  0  0  0  0  0  0  0  0
   11.3982   24.9891   -0.7355 C   0  0  2  0  0  0  0  0  0  0  0  0
   20.3718   25.5143   -8.4630 N   0  0  0  0  0  0  0  0  0  0  0  0
   20.7466   24.2834   -8.0139 C   0  0  0  0  0  0  0  0  0  0  0  0
   20.2570   23.7776   -6.8367 N   0  0  0  0  0  0  0  0  0  0  0  0
   19.3794   24.5295   -6.1054 C   0  0  0  0  0  0  0  0  0  0  0  0
   19.0070   25.7448   -6.5306 C   0  0  0  0  0  0  0  0  0  0  0  0
   19.5020   26.2474   -7.7327 C   0  0  0  0  0  0  0  0  0  0  0  0
   19.1910   27.5039   -8.2890 N   0  0  0  0  0  0  0  0  0  0  0  0
   18.1420   26.2521   -5.6270 N   0  0  0  0  0  0  0  0  0  0  0  0
   17.9903   25.3336   -4.6307 C   0  0  0  0  0  0  0  0  0  0  0  0
   18.7384   24.2642   -4.9321 N   0  0  0  0  0  0  0  0  0  0  0  0
   14.5171   29.1170   -1.3300 N   0  0  0  0  0  0  0  0  0  0  0  0
   14.4581   28.0192   -2.1286 C   0  0  0  0  0  0  0  0  0  0  0  0
   13.5837   27.0129   -1.8287 N   0  0  0  0  0  0  0  0  0  0  0  0
   12.7729   27.1112   -0.7408 C   0  0  0  0  0  0  0  0  0  0  0  0
   12.8227   28.1996    0.0535 C   0  0  0  0  0  0  0  0  0  0  0  0
   13.7190   29.2182   -0.2571 C   0  0  0  0  0  0  0  0  0  0  0  0
   13.9526   30.4487    0.4544 N   0  0  0  0  0  0  0  0  0  0  0  0
   11.9173   28.0193    1.0448 N   0  0  0  0  0  0  0  0  0  0  0  0
   11.3064   26.8154    0.8519 C   0  0  0  0  0  0  0  0  0  0  0  0
   11.8402   26.2631   -0.2563 N   0  0  0  0  0  0  0  0  0  0  0  0
  1  3  1  6  0  0  0
  1  5  2  0  0  0  0
  1  9  1  0  0  0  0
  1 18  1  0  0  0  0
  2  4  1  6  0  0  0
  2  6  2  0  0  0  0
  2 10  1  0  0  0  0
  2 17  1  0  0  0  0
  7  9  1  0  0  0  0
  8 10  1  0  0  0  0
 11  7  1  6  0  0  0
 11 13  1  0  0  0  0
 11 15  1  0  0  0  0
 12  8  1  1  0  0  0
 12 14  1  0  0  0  0
 12 16  1  0  0  0  0
 13 23  1  0  0  0  0
 14 24  1  0  0  0  0
 15 17  1  1  0  0  0
 15 19  1  0  0  0  0
 16 18  1  6  0  0  0
 16 20  1  0  0  0  0
 19 21  1  1  0  0  0
 19 23  1  0  0  0  0
 20 22  1  6  0  0  0
 20 24  1  0  0  0  0
 23 34  1  6  0  0  0
 24 44  1  1  0  0  0
 25 26  2  0  0  0  0
 25 30  1  0  0  0  0
 26 27  1  0  0  0  0
 27 28  2  0  0  0  0
 28 29  1  0  0  0  0
 28 34  1  0  0  0  0
 29 30  2  0  0  0  0
 29 32  1  0  0  0  0
 30 31  1  0  0  0  0
 32 33  2  0  0  0  0
 33 34  1  0  0  0  0
 35 36  2  0  0  0  0
 35 40  1  0  0  0  0
 36 37  1  0  0  0  0
 37 38  2  0  0  0  0
 38 39  1  0  0  0  0
 38 44  1  0  0  0  0
 39 40  2  0  0  0  0
 39 42  1  0  0  0  0
 40 41  1  0  0  0  0
 42 43  2  0  0  0  0
 43 44  1  0  0  0  0
M  CHG  2   3  -1   4  -1
M  END
>  <CHROM.1>
-91.10304738,92.11247755,15.38966402,24.68829375,-2.74577342,2.87363685,0.68058115
0.17732307

>  <Name>
ligand

>  <RI>
0

>  <Rbt.Current_Directory>
/home/itssahil/PROJECTS/Mol_Feturizer/New_Systems/rnas/4QLM

>  <Rbt.Executable>
rbdock ($Id: //depot/dev/client3/rdock/2013.1/src/exe/rbdock.cxx#4 $)

>  <Rbt.Library>
libRbt.so (2013.1, Build901 2013/11/27)

>  <Rbt.Parameter_File>
/export/apps/rDock/src/rDock_2013.1_src/data/scripts/dock_solv.prm

>  <Rbt.Receptor>
prm/blind_docking_100.prm

>  <SCORE>
74.0205

>  <SCORE.INTER>
57.5161

>  <SCORE.INTER.CONST>
1

>  <SCORE.INTER.POLAR>
0

>  <SCORE.INTER.ROT>
2

>  <SCORE.INTER.SOLV>
48.0025

>  <SCORE.INTER.VDW>
17.4099

>  <SCORE.INTER.norm>
1.30718

>  <SCORE.INTRA>
2.85566

>  <SCORE.INTRA.DIHEDRAL>
0.185474

>  <SCORE.INTRA.DIHEDRAL.0>
2.32994

>  <SCORE.INTRA.POLAR>
0

>  <SCORE.INTRA.POLAR.0>
0

>  <SCORE.INTRA.REPUL>
0

>  <SCORE.INTRA.REPUL.0>
0

>  <SCORE.INTRA.SOLV>
0.0283942

>  <SCORE.INTRA.SOLV.lig_0>
-117.703

>  <SCORE.INTRA.VDW>
2.74873

>  <SCORE.INTRA.VDW.0>
-1.59997

>  <SCORE.INTRA.norm>
0.0649014

>  <SCORE.RESTR>
13.6487

>  <SCORE.RESTR.CAVITY>
13.6487

>  <SCORE.RESTR.norm>
0.310198

>  <SCORE.SYSTEM>
0

>  <SCORE.SYSTEM.CONST>
0

>  <SCORE.SYSTEM.DIHEDRAL>
0

>  <SCORE.SYSTEM.SOLV>
0

>  <SCORE.SYSTEM.norm>
0

>  <SCORE.heavy>
44

>  <SCORE.norm>
1.68228

>  <RMSD>
27.948

$$$$
ligand
 OpenBabel11021811513D
libRbt.so/2013.1/901 2013/11/27
 44 50  0  0  0  0  0  0  0  0999 V2000
   13.3781   23.1796   -4.3291 P   0  0  2  0  0  0  0  0  0  0  0  0
   16.4117   23.6651    0.1169 P   0  0  1  0  0  0  0  0  0  0  0  0
   13.1714   21.9047   -5.1431 O   0  5  0  0  0  0  0  0  0  0  0  0
   17.1525   24.9682   -0.0597 O   0  5  0  0  0  0  0  0  0  0  0  0
   13.1599   24.3274   -5.2853 O   0  0  0  0  0  0  0  0  0  0  0  0
   16.5881   23.2305    1.5896 O   0  0  0  0  0  0  0  0  0  0  0  0
   15.3268   21.7489   -3.5564 C   0  0  0  0  0  0  0  0  0  0  0  0
   14.0479   22.7874   -0.4402 C   0  0  0  0  0  0  0  0  0  0  0  0
   14.8387   23.0782   -3.7823 O   0  0  0  0  0  0  0  0  0  0  0  0
   14.8912   23.9737   -0.4286 O   0  0  0  0  0  0  0  0  0  0  0  0
   16.7719   21.7952   -3.0717 C   0  0  1  0  0  0  0  0  0  0  0  0
   12.6069   23.2758   -0.8483 C   0  0  1  0  0  0  0  0  0  0  0  0
   17.5447   21.8689   -4.1108 O   0  0  0  0  0  0  0  0  0  0  0  0
   12.3484   24.2422   -0.0653 O   0  0  0  0  0  0  0  0  0  0  0  0
   17.0761   23.0053   -2.2188 C   0  0  1  0  0  0  0  0  0  0  0  0
   12.6267   23.9589   -2.2303 C   0  0  1  0  0  0  0  0  0  0  0  0
   17.0396   22.5885   -0.9253 O   0  0  0  0  0  0  0  0  0  0  0  0
   12.1752   23.1384   -3.1868 O   0  0  0  0  0  0  0  0  0  0  0  0
   18.5420   23.3850   -2.6276 C   0  0  1  0  0  0  0  0  0  0  0  0
   11.7471   25.2251   -2.1190 C   0  0  1  0  0  0  0  0  0  0  0  0
   19.5008   22.9044   -1.5964 O   0  0  0  0  0  0  0  0  0  0  0  0
   10.4066   24.9895   -2.7456 O   0  0  0  0  0  0  0  0  0  0  0  0
   18.7665   22.8203   -3.7706 C   0  0  2  0  0  0  0  0  0  0  0  0
   11.6037   25.4198   -0.8530 C   0  0  2  0  0  0  0  0  0  0  0  0
   17.2494   27.0216   -6.7486 N   0  0  0  0  0  0  0  0  0  0  0  0
   16.5297   26.4657   -5.7337 C   0  0  0  0  0  0  0  0  0  0  0  0
   17.0083   25.3900   -5.0299 N   0  0  0  0  0  0  0  0  0  0  0  0
   18.2293   24.8705   -5.3608 C   0  0  0  0  0  0  0  0  0  0  0  0
   18.9455   25.4019   -6.3613 C   0  0  0  0  0  0  0  0  0  0  0  0
   18.4561   26.5008   -7.0652 C   0  0  0  0  0  0  0  0  0  0  0  0
   19.1071   27.1502   -8.1327 N   0  0  0  0  0  0  0  0  0  0  0  0
   20.0957   24.7026   -6.4636 N   0  0  0  0  0  0  0  0  0  0  0  0
   20.0767   23.7241   -5.5142 C   0  0  0  0  0  0  0  0  0  0  0  0
   18.9354   23.8365   -4.8222 N   0  0  0  0  0  0  0  0  0  0  0  0
   15.1030   29.2145   -1.5429 N   0  0  0  0  0  0  0  0  0  0  0  0
   14.9595   28.0924   -2.2956 C   0  0  0  0  0  0  0  0  0  0  0  0
   13.9896   27.1845   -1.9756 N   0  0  0  0  0  0  0  0  0  0  0  0
   13.1687   27.4047   -0.9135 C   0  0  0  0  0  0  0  0  0  0  0  0
   13.3022   28.5182   -0.1648 C   0  0  0  0  0  0  0  0  0  0  0  0
   14.2953   29.4357   -0.4955 C   0  0  0  0  0  0  0  0  0  0  0  0
   14.6267   30.6700    0.1690 N   0  0  0  0  0  0  0  0  0  0  0  0
   12.3634   28.4656    0.8103 N   0  0  0  0  0  0  0  0  0  0  0  0
   11.6479   27.3153    0.6531 C   0  0  0  0  0  0  0  0  0  0  0  0
   12.1515   26.6679   -0.4171 N   0  0  0  0  0  0  0  0  0  0  0  0
  1  3  1  6  0  0  0
  1  5  2  0  0  0  0
  1  9  1  0  0  0  0
  1 18  1  0  0  0  0
  2  4  1  6  0  0  0
  2  6  2  0  0  0  0
  2 10  1  0  0  0  0
  2 17  1  0  0  0  0
  7  9  1  0  0  0  0
  8 10  1  0  0  0  0
 11  7  1  6  0  0  0
 11 13  1  0  0  0  0
 11 15  1  0  0  0  0
 12  8  1  1  0  0  0
 12 14  1  0  0  0  0
 12 16  1  0  0  0  0
 13 23  1  0  0  0  0
 14 24  1  0  0  0  0
 15 17  1  1  0  0  0
 15 19  1  0  0  0  0
 16 18  1  6  0  0  0
 16 20  1  0  0  0  0
 19 21  1  1  0  0  0
 19 23  1  0  0  0  0
 20 22  1  6  0  0  0
 20 24  1  0  0  0  0
 23 34  1  6  0  0  0
 24 44  1  1  0  0  0
 25 26  2  0  0  0  0
 25 30  1  0  0  0  0
 26 27  1  0  0  0  0
 27 28  2  0  0  0  0
 28 29  1  0  0  0  0
 28 34  1  0  0  0  0
 29 30  2  0  0  0  0
 29 32  1  0  0  0  0
 30 31  1  0  0  0  0
 32 33  2  0  0  0  0
 33 34  1  0  0  0  0
 35 36  2  0  0  0  0
 35 40  1  0  0  0  0
 36 37  1  0  0  0  0
 37 38  2  0  0  0  0
 38 39  1  0  0  0  0
 38 44  1  0  0  0  0
 39 40  2  0  0  0  0
 39 42  1  0  0  0  0
 40 41  1  0  0  0  0
 42 43  2  0  0  0  0
 43 44  1  0  0  0  0
M  CHG  2   3  -1   4  -1
M  END
>  <CHROM.1>
62.31738620,92.17797180,15.35082354,24.81077250,-2.64116310,0.19595663,-0.71744661
3.01513939

>  <Name>
ligand

>  <RI>
0

>  <Rbt.Current_Directory>
/home/itssahil/PROJECTS/Mol_Feturizer/New_Systems/rnas/4QLM

>  <Rbt.Executable>
rbdock ($Id: //depot/dev/client3/rdock/2013.1/src/exe/rbdock.cxx#4 $)

>  <Rbt.Library>
libRbt.so (2013.1, Build901 2013/11/27)

>  <Rbt.Parameter_File>
/export/apps/rDock/src/rDock_2013.1_src/data/scripts/dock_solv.prm

>  <Rbt.Receptor>
prm/blind_docking_100.prm

>  <SCORE>
81.9893

>  <SCORE.INTER>
69.9169

>  <SCORE.INTER.CONST>
1

>  <SCORE.INTER.POLAR>
0

>  <SCORE.INTER.ROT>
2

>  <SCORE.INTER.SOLV>
47.2325

>  <SCORE.INTER.VDW>
25.9338

>  <SCORE.INTER.norm>
1.58902

>  <SCORE.INTRA>
-1.32194

>  <SCORE.INTRA.DIHEDRAL>
0.0591884

>  <SCORE.INTRA.DIHEDRAL.0>
2.32994

>  <SCORE.INTRA.POLAR>
0

>  <SCORE.INTRA.POLAR.0>
0

>  <SCORE.INTRA.REPUL>
0

>  <SCORE.INTRA.REPUL.0>
0

>  <SCORE.INTRA.SOLV>
0.0771605

>  <SCORE.INTRA.SOLV.lig_0>
-117.703

>  <SCORE.INTRA.VDW>
-1.39011

>  <SCORE.INTRA.VDW.0>
-1.59997

>  <SCORE.INTRA.norm>
-0.030044

>  <SCORE.RESTR>
13.3943

>  <SCORE.RESTR.CAVITY>
13.3943

>  <SCORE.RESTR.norm>
0.304416

>  <SCORE.SYSTEM>
0

>  <SCORE.SYSTEM.CONST>
0

>  <SCORE.SYSTEM.DIHEDRAL>
0

>  <SCORE.SYSTEM.SOLV>
0

>  <SCORE.SYSTEM.norm>
0

>  <SCORE.heavy>
44

>  <SCORE.norm>
1.86339

>  <RMSD>
27.957

$$$$
ligand
 OpenBabel11021811513D
libRbt.so/2013.1/901 2013/11/27
 44 50  0  0  0  0  0  0  0  0999 V2000
   13.2394   23.1144   -4.2272 P   0  0  2  0  0  0  0  0  0  0  0  0
   16.3561   23.6145    0.1594 P   0  0  1  0  0  0  0  0  0  0  0  0
   13.0118   21.8353   -5.0288 O   0  5  0  0  0  0  0  0  0  0  0  0
   17.0996   24.9128   -0.0393 O   0  5  0  0  0  0  0  0  0  0  0  0
   13.0091   24.2571   -5.1868 O   0  0  0  0  0  0  0  0  0  0  0  0
   16.5573   23.1886    1.6315 O   0  0  0  0  0  0  0  0  0  0  0  0
   15.1952   21.6795   -3.4807 C   0  0  0  0  0  0  0  0  0  0  0  0
   13.9784   22.7444   -0.3486 C   0  0  0  0  0  0  0  0  0  0  0  0
   14.7093   23.0096   -3.7065 O   0  0  0  0  0  0  0  0  0  0  0  0
   14.8273   23.9268   -0.3603 O   0  0  0  0  0  0  0  0  0  0  0  0
   16.6491   21.7220   -3.0227 C   0  0  1  0  0  0  0  0  0  0  0  0
   12.5325   23.2371   -0.7335 C   0  0  1  0  0  0  0  0  0  0  0  0
   17.4031   21.7852   -4.0763 O   0  0  0  0  0  0  0  0  0  0  0  0
   12.2928   24.2099    0.0476 O   0  0  0  0  0  0  0  0  0  0  0  0
   16.9745   22.9362   -2.1836 C   0  0  1  0  0  0  0  0  0  0  0  0
   12.5301   23.9111   -2.1202 C   0  0  1  0  0  0  0  0  0  0  0  0
   16.9598   22.5280   -0.8869 O   0  0  0  0  0  0  0  0  0  0  0  0
   12.0574   23.0866   -3.0628 O   0  0  0  0  0  0  0  0  0  0  0  0
   18.4345   23.3062   -2.6216 C   0  0  1  0  0  0  0  0  0  0  0  0
   11.6587   25.1822   -2.0012 C   0  0  1  0  0  0  0  0  0  0  0  0
   19.4097   22.8277   -1.6050 O   0  0  0  0  0  0  0  0  0  0  0  0
   10.3058   24.9489   -2.6017 O   0  0  0  0  0  0  0  0  0  0  0  0
   18.6353   22.7329   -3.7647 C   0  0  2  0  0  0  0  0  0  0  0  0
   11.5394   25.3858   -0.7342 C   0  0  2  0  0  0  0  0  0  0  0  0
   17.3059   27.1766   -6.4680 N   0  0  0  0  0  0  0  0  0  0  0  0
   16.6718   26.7013   -5.3593 C   0  0  0  0  0  0  0  0  0  0  0  0
   17.0919   25.5525   -4.7386 N   0  0  0  0  0  0  0  0  0  0  0  0
   18.1653   24.8766   -5.2496 C   0  0  0  0  0  0  0  0  0  0  0  0
   18.7946   25.3277   -6.3436 C   0  0  0  0  0  0  0  0  0  0  0  0
   18.3673   26.5011   -6.9626 C   0  0  0  0  0  0  0  0  0  0  0  0
   18.9395   27.0798   -8.1127 N   0  0  0  0  0  0  0  0  0  0  0  0
   19.8069   24.4780   -6.6185 N   0  0  0  0  0  0  0  0  0  0  0  0
   19.7896   23.4885   -5.6806 C   0  0  0  0  0  0  0  0  0  0  0  0
   18.7898   23.7414   -4.8260 N   0  0  0  0  0  0  0  0  0  0  0  0
   15.2547   28.9915   -1.2964 N   0  0  0  0  0  0  0  0  0  0  0  0
   15.1300   27.8345   -1.9978 C   0  0  0  0  0  0  0  0  0  0  0  0
   14.0950   26.9861   -1.7216 N   0  0  0  0  0  0  0  0  0  0  0  0
   13.1913   27.2998   -0.7545 C   0  0  0  0  0  0  0  0  0  0  0  0
   13.3062   28.4484   -0.0575 C   0  0  0  0  0  0  0  0  0  0  0  0
   14.3656   29.3048   -0.3426 C   0  0  0  0  0  0  0  0  0  0  0  0
   14.6905   30.5612    0.2827 N   0  0  0  0  0  0  0  0  0  0  0  0
   12.2808   28.4898    0.8269 N   0  0  0  0  0  0  0  0  0  0  0  0
   11.5315   27.3618    0.6654 C   0  0  0  0  0  0  0  0  0  0  0  0
   12.1009   26.6342   -0.3166 N   0  0  0  0  0  0  0  0  0  0  0  0
  1  3  1  6  0  0  0
  1  5  2  0  0  0  0
  1  9  1  0  0  0  0
  1 18  1  0  0  0  0
  2  4  1  6  0  0  0
  2  6  2  0  0  0  0
  2 10  1  0  0  0  0
  2 17  1  0  0  0  0
  7  9  1  0  0  0  0
  8 10  1  0  0  0  0
 11  7  1  6  0  0  0
 11 13  1  0  0  0  0
 11 15  1  0  0  0  0
 12  8  1  1  0  0  0
 12 14  1  0  0  0  0
 12 16  1  0  0  0  0
 13 23  1  0  0  0  0
 14 24  1  0  0  0  0
 15 17  1  1  0  0  0
 15 19  1  0  0  0  0
 16 18  1  6  0  0  0
 16 20  1  0  0  0  0
 19 21  1  1  0  0  0
 19 23  1  0  0  0  0
 20 22  1  1  0  0  0
 20 24  1  0  0  0  0
 23 34  1  6  0  0  0
 24 44  1  6  0  0  0
 25 26  2  0  0  0  0
 25 30  1  0  0  0  0
 26 27  1  0  0  0  0
 27 28  2  0  0  0  0
 28 29  1  0  0  0  0
 28 34  1  0  0  0  0
 29 30  2  0  0  0  0
 29 32  1  0  0  0  0
 30 31  1  0  0  0  0
 32 33  2  0  0  0  0
 33 34  1  0  0  0  0
 35 36  2  0  0  0  0
 35 40  1  0  0  0  0
 36 37  1  0  0  0  0
 37 38  2  0  0  0  0
 38 39  1  0  0  0  0
 38 44  1  0  0  0  0
 39 40  2  0  0  0  0
 39 42  1  0  0  0  0
 40 41  1  0  0  0  0
 42 43  2  0  0  0  0
 43 44  1  0  0  0  0
M  CHG  2   3  -1   4  -1
M  END
>  <CHROM.1>
73.20438013,84.89309415,15.28076438,24.75186795,-2.55102440,2.85890217,0.70488396
0.01333956

>  <Name>
ligand

>  <RI>
0

>  <Rbt.Current_Directory>
/home/itssahil/PROJECTS/Mol_Feturizer/New_Systems/rnas/4QLM

>  <Rbt.Executable>
rbdock ($Id: //depot/dev/client3/rdock/2013.1/src/exe/rbdock.cxx#4 $)

>  <Rbt.Library>
libRbt.so (2013.1, Build901 2013/11/27)

>  <Rbt.Parameter_File>
/export/apps/rDock/src/rDock_2013.1_src/data/scripts/dock_solv.prm

>  <Rbt.Receptor>
prm/blind_docking_100.prm

>  <SCORE>
89.0613

>  <SCORE.INTER>
77.3547

>  <SCORE.INTER.CONST>
1

>  <SCORE.INTER.POLAR>
0

>  <SCORE.INTER.ROT>
2

>  <SCORE.INTER.SOLV>
47.3669

>  <SCORE.INTER.VDW>
30.8475

>  <SCORE.INTER.norm>
1.75806

>  <SCORE.INTRA>
-1.50057

>  <SCORE.INTRA.DIHEDRAL>
0.00701241

>  <SCORE.INTRA.DIHEDRAL.0>
2.32994

>  <SCORE.INTRA.POLAR>
0

>  <SCORE.INTRA.POLAR.0>
0

>  <SCORE.INTRA.REPUL>
0

>  <SCORE.INTRA.REPUL.0>
0

>  <SCORE.INTRA.SOLV>
0.0591623

>  <SCORE.INTRA.SOLV.lig_0>
-117.703

>  <SCORE.INTRA.VDW>
-1.53365

>  <SCORE.INTRA.VDW.0>
-1.59997

>  <SCORE.INTRA.norm>
-0.0341038

>  <SCORE.RESTR>
13.2071

>  <SCORE.RESTR.CAVITY>
13.2071

>  <SCORE.RESTR.norm>
0.300162

>  <SCORE.SYSTEM>
0

>  <SCORE.SYSTEM.CONST>
0

>  <SCORE.SYSTEM.DIHEDRAL>
0

>  <SCORE.SYSTEM.SOLV>
0

>  <SCORE.SYSTEM.norm>
0

>  <SCORE.heavy>
44

>  <SCORE.norm>
2.02412

>  <RMSD>
27.963

$$$$
ligand
 OpenBabel11021811513D
libRbt.so/2013.1/901 2013/11/27
 44 50  0  0  0  0  0  0  0  0999 V2000
   13.4474   22.8451   -4.4831 P   0  0  2  0  0  0  0  0  0  0  0  0
   16.3803   23.4487    0.0157 P   0  0  1  0  0  0  0  0  0  0  0  0
   13.3316   21.5725   -5.3183 O   0  5  0  0  0  0  0  0  0  0  0  0
   17.0416   24.7974   -0.1308 O   0  5  0  0  0  0  0  0  0  0  0  0
   13.1726   23.9917   -5.4260 O   0  0  0  0  0  0  0  0  0  0  0  0
   16.5617   23.0034    1.4847 O   0  0  0  0  0  0  0  0  0  0  0  0
   15.4692   21.5254   -3.7009 C   0  0  0  0  0  0  0  0  0  0  0  0
   14.0835   22.4357   -0.5903 C   0  0  0  0  0  0  0  0  0  0  0  0
   14.9034   22.8254   -3.9153 O   0  0  0  0  0  0  0  0  0  0  0  0
   14.8516   23.6714   -0.5487 O   0  0  0  0  0  0  0  0  0  0  0  0
   16.9015   21.6531   -3.1933 C   0  0  1  0  0  0  0  0  0  0  0  0
   12.6212   22.8407   -1.0136 C   0  0  1  0  0  0  0  0  0  0  0  0
   17.6833   21.7900   -4.2191 O   0  0  0  0  0  0  0  0  0  0  0  0
   12.2921   23.7775   -0.2209 O   0  0  0  0  0  0  0  0  0  0  0  0
   17.1180   22.8666   -2.3186 C   0  0  1  0  0  0  0  0  0  0  0  0
   12.6188   23.5447   -2.3852 C   0  0  1  0  0  0  0  0  0  0  0  0
   17.0885   22.4287   -1.0319 O   0  0  0  0  0  0  0  0  0  0  0  0
   12.2328   22.7127   -3.3602 O   0  0  0  0  0  0  0  0  0  0  0  0
   18.5635   23.3418   -2.6992 C   0  0  1  0  0  0  0  0  0  0  0  0
   11.6612   24.7526   -2.2694 C   0  0  1  0  0  0  0  0  0  0  0  0
   19.5350   22.9055   -1.6604 O   0  0  0  0  0  0  0  0  0  0  0  0
   10.3471   24.4445   -2.9200 O   0  0  0  0  0  0  0  0  0  0  0  0
   18.8389   22.8095   -3.8466 C   0  0  2  0  0  0  0  0  0  0  0  0
   11.4877   24.9188   -1.0032 C   0  0  2  0  0  0  0  0  0  0  0  0
   17.1618   27.0391   -6.6959 N   0  0  0  0  0  0  0  0  0  0  0  0
   16.4802   26.4484   -5.6743 C   0  0  0  0  0  0  0  0  0  0  0  0
   16.9982   25.3684   -5.0058 N   0  0  0  0  0  0  0  0  0  0  0  0
   18.2199   24.8804   -5.3792 C   0  0  0  0  0  0  0  0  0  0  0  0
   18.8989   25.4462   -6.3868 C   0  0  0  0  0  0  0  0  0  0  0  0
   18.3696   26.5492   -7.0546 C   0  0  0  0  0  0  0  0  0  0  0  0
   18.9793   27.2330   -8.1250 N   0  0  0  0  0  0  0  0  0  0  0  0
   20.0593   24.7724   -6.5335 N   0  0  0  0  0  0  0  0  0  0  0  0
   20.0846   23.7746   -5.6046 C   0  0  0  0  0  0  0  0  0  0  0  0
   18.9601   23.8500   -4.8808 N   0  0  0  0  0  0  0  0  0  0  0  0
   12.5800   28.0563    3.0072 N   0  0  0  0  0  0  0  0  0  0  0  0
   12.0952   26.7886    3.0735 C   0  0  0  0  0  0  0  0  0  0  0  0
   11.8535   26.0974    1.9198 N   0  0  0  0  0  0  0  0  0  0  0  0
   12.1018   26.6720    0.7120 C   0  0  0  0  0  0  0  0  0  0  0  0
   12.5872   27.9278    0.6386 C   0  0  0  0  0  0  0  0  0  0  0  0
   12.8268   28.6261    1.8186 C   0  0  0  0  0  0  0  0  0  0  0  0
   13.3204   29.9702    1.9754 N   0  0  0  0  0  0  0  0  0  0  0  0
   12.7303   28.2307   -0.6739 N   0  0  0  0  0  0  0  0  0  0  0  0
   12.3349   27.1510   -1.4072 C   0  0  0  0  0  0  0  0  0  0  0  0
   11.9510   26.1915   -0.5411 N   0  0  0  0  0  0  0  0  0  0  0  0
  1  3  1  6  0  0  0
  1  5  2  0  0  0  0
  1  9  1  0  0  0  0
  1 18  1  0  0  0  0
  2  4  1  6  0  0  0
  2  6  2  0  0  0  0
  2 10  1  0  0  0  0
  2 17  1  0  0  0  0
  7  9  1  0  0  0  0
  8 10  1  0  0  0  0
 11  7  1  6  0  0  0
 11 13  1  0  0  0  0
 11 15  1  0  0  0  0
 12  8  1  1  0  0  0
 12 14  1  0  0  0  0
 12 16  1  0  0  0  0
 13 23  1  0  0  0  0
 14 24  1  0  0  0  0
 15 17  1  1  0  0  0
 15 19  1  0  0  0  0
 16 18  1  6  0  0  0
 16 20  1  0  0  0  0
 19 21  1  1  0  0  0
 19 23  1  0  0  0  0
 20 22  1  6  0  0  0
 20 24  1  0  0  0  0
 23 34  1  6  0  0  0
 24 44  1  1  0  0  0
 25 26  2  0  0  0  0
 25 30  1  0  0  0  0
 26 27  1  0  0  0  0
 27 28  2  0  0  0  0
 28 29  1  0  0  0  0
 28 34  1  0  0  0  0
 29 30  2  0  0  0  0
 29 32  1  0  0  0  0
 30 31  1  0  0  0  0
 32 33  2  0  0  0  0
 33 34  1  0  0  0  0
 35 36  2  0  0  0  0
 35 40  1  0  0  0  0
 36 37  1  0  0  0  0
 37 38  2  0  0  0  0
 38 39  1  0  0  0  0
 38 44  1  0  0  0  0
 39 40  2  0  0  0  0
 39 42  1  0  0  0  0
 40 41  1  0  0  0  0
 42 43  2  0  0  0  0
 43 44  1  0  0  0  0
M  CHG  2   3  -1   4  -1
M  END
>  <CHROM.1>
65.70468425,-50.22922142,15.12836497,24.50676975,-2.38273801,0.78867375,-0.32386646
-2.22000017

>  <Name>
ligand

>  <RI>
0

>  <Rbt.Current_Directory>
/home/itssahil/PROJECTS/Mol_Feturizer/New_Systems/rnas/4QLM

>  <Rbt.Executable>
rbdock ($Id: //depot/dev/client3/rdock/2013.1/src/exe/rbdock.cxx#4 $)

>  <Rbt.Library>
libRbt.so (2013.1, Build901 2013/11/27)

>  <Rbt.Parameter_File>
/export/apps/rDock/src/rDock_2013.1_src/data/scripts/dock_solv.prm

>  <Rbt.Receptor>
prm/blind_docking_100.prm

>  <SCORE>
103.534

>  <SCORE.INTER>
91.8803

>  <SCORE.INTER.CONST>
1

>  <SCORE.INTER.POLAR>
0

>  <SCORE.INTER.ROT>
2

>  <SCORE.INTER.SOLV>
48.9129

>  <SCORE.INTER.VDW>
40.0159

>  <SCORE.INTER.norm>
2.08819

>  <SCORE.INTRA>
0.946858

>  <SCORE.INTRA.DIHEDRAL>
0.0358929

>  <SCORE.INTRA.DIHEDRAL.0>
2.32994

>  <SCORE.INTRA.POLAR>
0

>  <SCORE.INTRA.POLAR.0>
0

>  <SCORE.INTRA.REPUL>
0

>  <SCORE.INTRA.REPUL.0>
0

>  <SCORE.INTRA.SOLV>
0.0696837

>  <SCORE.INTRA.SOLV.lig_0>
-117.703

>  <SCORE.INTRA.VDW>
0.894069

>  <SCORE.INTRA.VDW.0>
-1.59997

>  <SCORE.INTRA.norm>
0.0215195

>  <SCORE.RESTR>
10.7067

>  <SCORE.RESTR.CAVITY>
10.7067

>  <SCORE.RESTR.norm>
0.243334

>  <SCORE.SYSTEM>
0

>  <SCORE.SYSTEM.CONST>
0

>  <SCORE.SYSTEM.DIHEDRAL>
0

>  <SCORE.SYSTEM.SOLV>
0

>  <SCORE.SYSTEM.norm>
0

>  <SCORE.heavy>
44

>  <SCORE.norm>
2.35304

>  <RMSD>
27.971

$$$$
ligand
 OpenBabel11021811513D
libRbt.so/2013.1/901 2013/11/27
 44 50  0  0  0  0  0  0  0  0999 V2000
   13.3485   23.1516   -4.2962 P   0  0  2  0  0  0  0  0  0  0  0  0
   16.4147   23.7289    0.1164 P   0  0  1  0  0  0  0  0  0  0  0  0
   13.1051   21.8521   -5.0596 O   0  5  0  0  0  0  0  0  0  0  0  0
   17.1880   25.0045   -0.1132 O   0  5  0  0  0  0  0  0  0  0  0  0
   13.1555   24.2670   -5.2952 O   0  0  0  0  0  0  0  0  0  0  0  0
   16.5867   23.3468    1.6041 O   0  0  0  0  0  0  0  0  0  0  0  0
   15.2632   21.7015   -3.4762 C   0  0  0  0  0  0  0  0  0  0  0  0
   14.0264   22.8921   -0.3976 C   0  0  0  0  0  0  0  0  0  0  0  0
   14.8086   23.0334   -3.7514 O   0  0  0  0  0  0  0  0  0  0  0  0
   14.9000   24.0557   -0.4349 O   0  0  0  0  0  0  0  0  0  0  0  0
   16.7113   21.7289   -2.9989 C   0  0  1  0  0  0  0  0  0  0  0  0
   12.5966   23.4017   -0.8188 C   0  0  1  0  0  0  0  0  0  0  0  0
   17.4809   21.7424   -4.0430 O   0  0  0  0  0  0  0  0  0  0  0  0
   12.3668   24.4040   -0.0728 O   0  0  0  0  0  0  0  0  0  0  0  0
   17.0508   22.9626   -2.1946 C   0  0  1  0  0  0  0  0  0  0  0  0
   12.6274   24.0304   -2.2263 C   0  0  1  0  0  0  0  0  0  0  0  0
   17.0096   22.5970   -0.8858 O   0  0  0  0  0  0  0  0  0  0  0  0
   12.1504   23.1857   -3.1487 O   0  0  0  0  0  0  0  0  0  0  0  0
   18.5240   23.2880   -2.6232 C   0  0  1  0  0  0  0  0  0  0  0  0
   11.7814   25.3224   -2.1607 C   0  0  1  0  0  0  0  0  0  0  0  0
   19.4749   22.8227   -1.5778 O   0  0  0  0  0  0  0  0  0  0  0  0
   10.4323   25.0978   -2.7727 O   0  0  0  0  0  0  0  0  0  0  0  0
   18.7284   22.6741   -3.7443 C   0  0  2  0  0  0  0  0  0  0  0  0
   11.6491   25.5693   -0.9027 C   0  0  2  0  0  0  0  0  0  0  0  0
   17.5487   27.0715   -6.5890 N   0  0  0  0  0  0  0  0  0  0  0  0
   16.8954   26.6501   -5.4697 C   0  0  0  0  0  0  0  0  0  0  0  0
   17.2771   25.5085   -4.8120 N   0  0  0  0  0  0  0  0  0  0  0  0
   18.3313   24.7846   -5.2964 C   0  0  0  0  0  0  0  0  0  0  0  0
   18.9791   25.1824   -6.4003 C   0  0  0  0  0  0  0  0  0  0  0  0
   18.5909   26.3488   -7.0572 C   0  0  0  0  0  0  0  0  0  0  0  0
   19.1858   26.8740   -8.2213 N   0  0  0  0  0  0  0  0  0  0  0  0
   19.9658   24.2939   -6.6438 N   0  0  0  0  0  0  0  0  0  0  0  0
   19.9139   23.3346   -5.6762 C   0  0  0  0  0  0  0  0  0  0  0  0
   18.9186   23.6443   -4.8350 N   0  0  0  0  0  0  0  0  0  0  0  0
   15.2073   29.2684   -1.7837 N   0  0  0  0  0  0  0  0  0  0  0  0
   15.0251   28.1270   -2.4981 C   0  0  0  0  0  0  0  0  0  0  0  0
   14.0446   27.2496   -2.1296 N   0  0  0  0  0  0  0  0  0  0  0  0
   13.2515   27.5189   -1.0577 C   0  0  0  0  0  0  0  0  0  0  0  0
   13.4235   28.6517   -0.3468 C   0  0  0  0  0  0  0  0  0  0  0  0
   14.4272   29.5380   -0.7268 C   0  0  0  0  0  0  0  0  0  0  0  0
   14.7976   30.7850   -0.1080 N   0  0  0  0  0  0  0  0  0  0  0  0
   12.5053   28.6483    0.6491 N   0  0  0  0  0  0  0  0  0  0  0  0
   11.7638   27.5087    0.5428 C   0  0  0  0  0  0  0  0  0  0  0  0
   12.2310   26.8187   -0.5173 N   0  0  0  0  0  0  0  0  0  0  0  0
  1  3  1  6  0  0  0
  1  5  2  0  0  0  0
  1  9  1  0  0  0  0
  1 18  1  0  0  0  0
  2  4  1  6  0  0  0
  2  6  2  0  0  0  0
  2 10  1  0  0  0  0
  2 17  1  0  0  0  0
  7  9  1  0  0  0  0
  8 10  1  0  0  0  0
 11  7  1  6  0  0  0
 11 13  1  0  0  0  0
 11 15  1  0  0  0  0
 12  8  1  1  0  0  0
 12 14  1  0  0  0  0
 12 16  1  0  0  0  0
 13 23  1  0  0  0  0
 14 24  1  0  0  0  0
 15 17  1  1  0  0  0
 15 19  1  0  0  0  0
 16 18  1  6  0  0  0
 16 20  1  0  0  0  0
 19 21  1  1  0  0  0
 19 23  1  0  0  0  0
 20 22  1  1  0  0  0
 20 24  1  0  0  0  0
 23 34  1  6  0  0  0
 24 44  1  6  0  0  0
 25 26  2  0  0  0  0
 25 30  1  0  0  0  0
 26 27  1  0  0  0  0
 27 28  2  0  0  0  0
 28 29  1  0  0  0  0
 28 34  1  0  0  0  0
 29 30  2  0  0  0  0
 29 32  1  0  0  0  0
 30 31  1  0  0  0  0
 32 33  2  0  0  0  0
 33 34  1  0  0  0  0
 35 36  2  0  0  0  0
 35 40  1  0  0  0  0
 36 37  1  0  0  0  0
 37 38  2  0  0  0  0
 38 39  1  0  0  0  0
 38 44  1  0  0  0  0
 39 40  2  0  0  0  0
 39 42  1  0  0  0  0
 40 41  1  0  0  0  0
 42 43  2  0  0  0  0
 43 44  1  0  0  0  0
M  CHG  2   3  -1   4  -1
M  END
>  <CHROM.1>
73.98664632,93.31258703,15.38354458,24.81577636,-2.66267998,2.87991427,0.70266128
-0.09060146

>  <Name>
ligand

>  <RI>
0

>  <Rbt.Current_Directory>
/home/itssahil/PROJECTS/Mol_Feturizer/New_Systems/rnas/4QLM

>  <Rbt.Executable>
rbdock ($Id: //depot/dev/client3/rdock/2013.1/src/exe/rbdock.cxx#4 $)

>  <Rbt.Library>
libRbt.so (2013.1, Build901 2013/11/27)

>  <Rbt.Parameter_File>
/export/apps/rDock/src/rDock_2013.1_src/data/scripts/dock_solv.prm

>  <Rbt.Receptor>
prm/blind_docking_100.prm

>  <SCORE>
84.1763

>  <SCORE.INTER>
71.7598

>  <SCORE.INTER.CONST>
1

>  <SCORE.INTER.POLAR>
0

>  <SCORE.INTER.ROT>
2

>  <SCORE.INTER.SOLV>
46.5419

>  <SCORE.INTER.VDW>
27.3925

>  <SCORE.INTER.norm>
1.6309

>  <SCORE.INTRA>
-1.18071

>  <SCORE.INTRA.DIHEDRAL>
0.00428986

>  <SCORE.INTRA.DIHEDRAL.0>
2.32994

>  <SCORE.INTRA.POLAR>
0

>  <SCORE.INTRA.POLAR.0>
0

>  <SCORE.INTRA.REPUL>
0

>  <SCORE.INTRA.REPUL.0>
0

>  <SCORE.INTRA.SOLV>
0.0177885

>  <SCORE.INTRA.SOLV.lig_0>
-117.703

>  <SCORE.INTRA.VDW>
-1.19175

>  <SCORE.INTRA.VDW.0>
-1.59997

>  <SCORE.INTRA.norm>
-0.0268344

>  <SCORE.RESTR>
13.5972

>  <SCORE.RESTR.CAVITY>
13.5972

>  <SCORE.RESTR.norm>
0.309028

>  <SCORE.SYSTEM>
0

>  <SCORE.SYSTEM.CONST>
0

>  <SCORE.SYSTEM.DIHEDRAL>
0

>  <SCORE.SYSTEM.SOLV>
0

>  <SCORE.SYSTEM.norm>
0

>  <SCORE.heavy>
44

>  <SCORE.norm>
1.9131

>  <RMSD>
27.981

$$$$
ligand
 OpenBabel11021811513D
libRbt.so/2013.1/901 2013/11/27
 44 50  0  0  0  0  0  0  0  0999 V2000
   13.3603   23.1539   -4.3105 P   0  0  2  0  0  0  0  0  0  0  0  0
   16.4176   23.7153    0.1103 P   0  0  1  0  0  0  0  0  0  0  0  0
   13.1286   21.8598   -5.0865 O   0  5  0  0  0  0  0  0  0  0  0  0
   17.1801   24.9997   -0.1064 O   0  5  0  0  0  0  0  0  0  0  0  0
   13.1586   24.2772   -5.2990 O   0  0  0  0  0  0  0  0  0  0  0  0
   16.5916   23.3205    1.5945 O   0  0  0  0  0  0  0  0  0  0  0  0
   15.2867   21.7126   -3.5025 C   0  0  0  0  0  0  0  0  0  0  0  0
   14.0370   22.8630   -0.4139 C   0  0  0  0  0  0  0  0  0  0  0  0
   14.8209   23.0430   -3.7654 O   0  0  0  0  0  0  0  0  0  0  0  0
   14.9007   24.0344   -0.4393 O   0  0  0  0  0  0  0  0  0  0  0  0
   16.7341   21.7477   -3.0237 C   0  0  1  0  0  0  0  0  0  0  0  0
   12.6032   23.3644   -0.8316 C   0  0  1  0  0  0  0  0  0  0  0  0
   17.5043   21.7778   -4.0668 O   0  0  0  0  0  0  0  0  0  0  0  0
   12.3642   24.3575   -0.0763 O   0  0  0  0  0  0  0  0  0  0  0  0
   17.0622   22.9766   -2.2072 C   0  0  1  0  0  0  0  0  0  0  0  0
   12.6299   24.0067   -2.2329 C   0  0  1  0  0  0  0  0  0  0  0  0
   17.0231   22.5982   -0.9020 O   0  0  0  0  0  0  0  0  0  0  0  0
   12.1609   23.1668   -3.1638 O   0  0  0  0  0  0  0  0  0  0  0  0
   18.5330   23.3187   -2.6313 C   0  0  1  0  0  0  0  0  0  0  0  0
   11.7728   25.2907   -2.1558 C   0  0  1  0  0  0  0  0  0  0  0  0
   19.4869   22.8516   -1.5896 O   0  0  0  0  0  0  0  0  0  0  0  0
   10.4262   25.0604   -2.7713 O   0  0  0  0  0  0  0  0  0  0  0  0
   18.7436   22.7173   -3.7581 C   0  0  2  0  0  0  0  0  0  0  0  0
   11.6373   25.5245   -0.8956 C   0  0  2  0  0  0  0  0  0  0  0  0
   17.5008   27.1055   -6.5900 N   0  0  0  0  0  0  0  0  0  0  0  0
   16.8416   26.6608   -5.4833 C   0  0  0  0  0  0  0  0  0  0  0  0
   17.2407   25.5240   -4.8278 N   0  0  0  0  0  0  0  0  0  0  0  0
   18.3189   24.8287   -5.3016 C   0  0  0  0  0  0  0  0  0  0  0  0
   18.9729   25.2496   -6.3931 C   0  0  0  0  0  0  0  0  0  0  0  0
   18.5666   26.4111   -7.0477 C   0  0  0  0  0  0  0  0  0  0  0  0
   19.1656   26.9586   -8.1994 N   0  0  0  0  0  0  0  0  0  0  0  0
   19.9839   24.3866   -6.6281 N   0  0  0  0  0  0  0  0  0  0  0  0
   19.9409   23.4195   -5.6679 C   0  0  0  0  0  0  0  0  0  0  0  0
   18.9264   23.6995   -4.8393 N   0  0  0  0  0  0  0  0  0  0  0  0
   15.3452   29.1213   -1.5546 N   0  0  0  0  0  0  0  0  0  0  0  0
   15.2058   27.9594   -2.2453 C   0  0  0  0  0  0  0  0  0  0  0  0
   14.1753   27.1144   -1.9433 N   0  0  0  0  0  0  0  0  0  0  0  0
   13.2907   27.4362   -0.9612 C   0  0  0  0  0  0  0  0  0  0  0  0
   13.4202   28.5896   -0.2748 C   0  0  0  0  0  0  0  0  0  0  0  0
   14.4750   29.4426   -0.5862 C   0  0  0  0  0  0  0  0  0  0  0  0
   14.8132   30.7030    0.0237 N   0  0  0  0  0  0  0  0  0  0  0  0
   12.4120   28.6385    0.6287 N   0  0  0  0  0  0  0  0  0  0  0  0
   11.6584   27.5104    0.4897 C   0  0  0  0  0  0  0  0  0  0  0  0
   12.2081   26.7751   -0.4978 N   0  0  0  0  0  0  0  0  0  0  0  0
  1  3  1  6  0  0  0
  1  5  2  0  0  0  0
  1  9  1  0  0  0  0
  1 18  1  0  0  0  0
  2  4  1  6  0  0  0
  2  6  2  0  0  0  0
  2 10  1  0  0  0  0
  2 17  1  0  0  0  0
  7  9  1  0  0  0  0
  8 10  1  0  0  0  0
 11  7  1  6  0  0  0
 11 13  1  0  0  0  0
 11 15  1  0  0  0  0
 12  8  1  1  0  0  0
 12 14  1  0  0  0  0
 12 16  1  0  0  0  0
 13 23  1  0  0  0  0
 14 24  1  0  0  0  0
 15 17  1  1  0  0  0
 15 19  1  0  0  0  0
 16 18  1  6  0  0  0
 16 20  1  0  0  0  0
 19 21  1  1  0  0  0
 19 23  1  0  0  0  0
 20 22  1  1  0  0  0
 20 24  1  0  0  0  0
 23 34  1  6  0  0  0
 24 44  1  6  0  0  0
 25 26  2  0  0  0  0
 25 30  1  0  0  0  0
 26 27  1  0  0  0  0
 27 28  2  0  0  0  0
 28 29  1  0  0  0  0
 28 34  1  0  0  0  0
 29 30  2  0  0  0  0
 29 32  1  0  0  0  0
 30 31  1  0  0  0  0
 32 33  2  0  0  0  0
 33 34  1  0  0  0  0
 35 36  2  0  0  0  0
 35 40  1  0  0  0  0
 36 37  1  0  0  0  0
 37 38  2  0  0  0  0
 38 39  1  0  0  0  0
 38 44  1  0  0  0  0
 39 40  2  0  0  0  0
 39 42  1  0  0  0  0
 40 41  1  0  0  0  0
 42 43  2  0  0  0  0
 43 44  1  0  0  0  0
M  CHG  2   3  -1   4  -1
M  END
>  <CHROM.1>
72.80414517,87.13271714,15.39168470,24.80720187,-2.64715820,2.85847780,0.69463664
-0.02701063

>  <Name>
ligand

>  <RI>
0

>  <Rbt.Current_Directory>
/home/itssahil/PROJECTS/Mol_Feturizer/New_Systems/rnas/4QLM

>  <Rbt.Executable>
rbdock ($Id: //depot/dev/client3/rdock/2013.1/src/exe/rbdock.cxx#4 $)

>  <Rbt.Library>
libRbt.so (2013.1, Build901 2013/11/27)

>  <Rbt.Parameter_File>
/export/apps/rDock/src/rDock_2013.1_src/data/scripts/dock_solv.prm

>  <Rbt.Receptor>
prm/blind_docking_100.prm

>  <SCORE>
84.0738

>  <SCORE.INTER>
71.6931

>  <SCORE.INTER.CONST>
1

>  <SCORE.INTER.POLAR>
0

>  <SCORE.INTER.ROT>
2

>  <SCORE.INTER.SOLV>
46.6276

>  <SCORE.INTER.VDW>
27.3195

>  <SCORE.INTER.norm>
1.62939

>  <SCORE.INTRA>
-1.40901

>  <SCORE.INTRA.DIHEDRAL>
0.00886473

>  <SCORE.INTRA.DIHEDRAL.0>
2.32994

>  <SCORE.INTRA.POLAR>
0

>  <SCORE.INTRA.POLAR.0>
0

>  <SCORE.INTRA.REPUL>
0

>  <SCORE.INTRA.REPUL.0>
0

>  <SCORE.INTRA.SOLV>
0.0136864

>  <SCORE.INTRA.SOLV.lig_0>
-117.703

>  <SCORE.INTRA.VDW>
-1.42028

>  <SCORE.INTRA.VDW.0>
-1.59997

>  <SCORE.INTRA.norm>
-0.0320229

>  <SCORE.RESTR>
13.7898

>  <SCORE.RESTR.CAVITY>
13.7898

>  <SCORE.RESTR.norm>
0.313403

>  <SCORE.SYSTEM>
0

>  <SCORE.SYSTEM.CONST>
0

>  <SCORE.SYSTEM.DIHEDRAL>
0

>  <SCORE.SYSTEM.SOLV>
0

>  <SCORE.SYSTEM.norm>
0

>  <SCORE.heavy>
44

>  <SCORE.norm>
1.91077

>  <RMSD>
27.994

$$$$
ligand
 OpenBabel11021811513D
libRbt.so/2013.1/901 2013/11/27
 44 50  0  0  0  0  0  0  0  0999 V2000
   19.4917   36.4321  -27.7177 P   0  0  2  0  0  0  0  0  0  0  0  0
   19.0581   37.3260  -22.4056 P   0  0  1  0  0  0  0  0  0  0  0  0
   20.7149   35.8725  -28.4396 O   0  5  0  0  0  0  0  0  0  0  0  0
   18.3717   38.6654  -22.2927 O   0  5  0  0  0  0  0  0  0  0  0  0
   18.7441   37.2571  -28.7375 O   0  0  0  0  0  0  0  0  0  0  0  0
   19.0298   36.6738  -21.0045 O   0  0  0  0  0  0  0  0  0  0  0  0
   21.3241   36.8106  -26.0030 C   0  0  0  0  0  0  0  0  0  0  0  0
   18.8830   35.2805  -23.9720 C   0  0  0  0  0  0  0  0  0  0  0  0
   20.0696   37.2650  -26.5282 O   0  0  0  0  0  0  0  0  0  0  0  0
   18.2804   36.5625  -23.6372 O   0  0  0  0  0  0  0  0  0  0  0  0
   21.7922   37.7365  -24.8854 C   0  0  1  0  0  0  0  0  0  0  0  0
   17.9486   34.6253  -25.0579 C   0  0  1  0  0  0  0  0  0  0  0  0
   22.4160   38.7378  -25.4246 O   0  0  0  0  0  0  0  0  0  0  0  0
   16.7783   34.6781  -24.5663 O   0  0  0  0  0  0  0  0  0  0  0  0
   20.6548   38.3187  -24.0781 C   0  0  1  0  0  0  0  0  0  0  0  0
   17.8315   35.5279  -26.3023 C   0  0  1  0  0  0  0  0  0  0  0  0
   20.5715   37.5836  -22.9375 O   0  0  0  0  0  0  0  0  0  0  0  0
   18.6111   35.0896  -27.2983 O   0  0  0  0  0  0  0  0  0  0  0  0
   21.1407   39.7743  -23.7536 C   0  0  1  0  0  0  0  0  0  0  0  0
   16.3426   35.5307  -26.7177 C   0  0  1  0  0  0  0  0  0  0  0  0
   21.6493   39.8439  -22.3572 O   0  0  0  0  0  0  0  0  0  0  0  0
   16.1248   34.6304  -27.8955 O   0  0  0  0  0  0  0  0  0  0  0  0
   22.0767   40.0511  -24.6039 C   0  0  2  0  0  0  0  0  0  0  0  0
   15.7116   35.0643  -25.6952 C   0  0  2  0  0  0  0  0  0  0  0  0
   20.6927   42.1303  -29.3560 N   0  0  0  0  0  0  0  0  0  0  0  0
   21.0185   40.8277  -29.1231 C   0  0  0  0  0  0  0  0  0  0  0  0
   21.3580   40.3943  -27.8667 N   0  0  0  0  0  0  0  0  0  0  0  0
   21.3698   41.2924  -26.8355 C   0  0  0  0  0  0  0  0  0  0  0  0
   21.0587   42.5783  -27.0504 C   0  0  0  0  0  0  0  0  0  0  0  0
   20.7056   43.0085  -28.3283 C   0  0  0  0  0  0  0  0  0  0  0  0
   20.3586   44.3264  -28.6859 N   0  0  0  0  0  0  0  0  0  0  0  0
   21.1466   43.2280  -25.8705 N   0  0  0  0  0  0  0  0  0  0  0  0
   21.5248   42.3244  -24.9219 C   0  0  0  0  0  0  0  0  0  0  0  0
   21.6460   41.1276  -25.5110 N   0  0  0  0  0  0  0  0  0  0  0  0
   14.8127   39.8557  -23.8636 N   0  0  0  0  0  0  0  0  0  0  0  0
   15.9942   39.3689  -24.3256 C   0  0  0  0  0  0  0  0  0  0  0  0
   16.0654   38.0779  -24.7678 N   0  0  0  0  0  0  0  0  0  0  0  0
   14.9595   37.2859  -24.7511 C   0  0  0  0  0  0  0  0  0  0  0  0
   13.7827   37.7636  -24.2982 C   0  0  0  0  0  0  0  0  0  0  0  0
   13.7200   39.0785  -23.8461 C   0  0  0  0  0  0  0  0  0  0  0  0
   12.5852   39.7838  -23.3078 N   0  0  0  0  0  0  0  0  0  0  0  0
   12.8746   36.7633  -24.3969 N   0  0  0  0  0  0  0  0  0  0  0  0
   13.4992   35.6690  -24.9186 C   0  0  0  0  0  0  0  0  0  0  0  0
   14.7871   36.0032  -25.1369 N   0  0  0  0  0  0  0  0  0  0  0  0
  1  3  1  6  0  0  0
  1  5  2  0  0  0  0
  1  9  1  0  0  0  0
  1 18  1  0  0  0  0
  2  4  1  1  0  0  0
  2  6  2  0  0  0  0
  2 10  1  0  0  0  0
  2 17  1  0  0  0  0
  7  9  1  0  0  0  0
  8 10  1  0  0  0  0
 11  7  1  6  0  0  0
 11 13  1  0  0  0  0
 11 15  1  0  0  0  0
 12  8  1  1  0  0  0
 12 14  1  0  0  0  0
 12 16  1  0  0  0  0
 13 23  1  0  0  0  0
 14 24  1  0  0  0  0
 15 17  1  1  0  0  0
 15 19  1  0  0  0  0
 16 18  1  6  0  0  0
 16 20  1  0  0  0  0
 19 21  1  1  0  0  0
 19 23  1  0  0  0  0
 20 22  1  6  0  0  0
 20 24  1  0  0  0  0
 23 34  1  6  0  0  0
 24 44  1  1  0  0  0
 25 26  2  0  0  0  0
 25 30  1  0  0  0  0
 26 27  1  0  0  0  0
 27 28  2  0  0  0  0
 28 29  1  0  0  0  0
 28 34  1  0  0  0  0
 29 30  2  0  0  0  0
 29 32  1  0  0  0  0
 30 31  1  0  0  0  0
 32 33  2  0  0  0  0
 33 34  1  0  0  0  0
 35 36  2  0  0  0  0
 35 40  1  0  0  0  0
 36 37  1  0  0  0  0
 37 38  2  0  0  0  0
 38 39  1  0  0  0  0
 38 44  1  0  0  0  0
 39 40  2  0  0  0  0
 39 42  1  0  0  0  0
 40 41  1  0  0  0  0
 42 43  2  0  0  0  0
 43 44  1  0  0  0  0
M  CHG  2   3  -1   4  -1
M  END
>  <CHROM.1>
5.74496922,68.65713982,18.66151304,38.16077981,-25.40108806,-0.42639820,-0.59702249
-2.64877517

>  <Name>
ligand

>  <RI>
0

>  <Rbt.Current_Directory>
/home/itssahil/PROJECTS/Mol_Feturizer/New_Systems/rnas/4QLM

>  <Rbt.Executable>
rbdock ($Id: //depot/dev/client3/rdock/2013.1/src/exe/rbdock.cxx#4 $)

>  <Rbt.Library>
libRbt.so (2013.1, Build901 2013/11/27)

>  <Rbt.Parameter_File>
/export/apps/rDock/src/rDock_2013.1_src/data/scripts/dock_solv.prm

>  <Rbt.Receptor>
prm/blind_docking_100.prm

>  <SCORE>
76.465

>  <SCORE.INTER>
64.4798

>  <SCORE.INTER.CONST>
1

>  <SCORE.INTER.POLAR>
0

>  <SCORE.INTER.ROT>
2

>  <SCORE.INTER.SOLV>
55.7013

>  <SCORE.INTER.VDW>
19.4861

>  <SCORE.INTER.norm>
1.46545

>  <SCORE.INTRA>
-1.09961

>  <SCORE.INTRA.DIHEDRAL>
0.114335

>  <SCORE.INTRA.DIHEDRAL.0>
2.32994

>  <SCORE.INTRA.POLAR>
0

>  <SCORE.INTRA.POLAR.0>
0

>  <SCORE.INTRA.REPUL>
0

>  <SCORE.INTRA.REPUL.0>
0

>  <SCORE.INTRA.SOLV>
0.641967

>  <SCORE.INTRA.SOLV.lig_0>
-117.703

>  <SCORE.INTRA.VDW>
-1.47776

>  <SCORE.INTRA.VDW.0>
-1.59997

>  <SCORE.INTRA.norm>
-0.0249911

>  <SCORE.RESTR>
13.0848

>  <SCORE.RESTR.CAVITY>
13.0848

>  <SCORE.RESTR.norm>
0.297382

>  <SCORE.SYSTEM>
0

>  <SCORE.SYSTEM.CONST>
0

>  <SCORE.SYSTEM.DIHEDRAL>
0

>  <SCORE.SYSTEM.SOLV>
0

>  <SCORE.SYSTEM.norm>
0

>  <SCORE.heavy>
44

>  <SCORE.norm>
1.73784

>  <RMSD>
28.037

$$$$
ligand
 OpenBabel11021811513D
libRbt.so/2013.1/901 2013/11/27
 44 50  0  0  0  0  0  0  0  0999 V2000
   13.2609   23.0701   -4.3507 P   0  0  2  0  0  0  0  0  0  0  0  0
   16.3722   23.5959    0.0366 P   0  0  1  0  0  0  0  0  0  0  0  0
   13.1516   21.8294   -5.2334 O   0  5  0  0  0  0  0  0  0  0  0  0
   16.9790   24.9728   -0.0813 O   0  5  0  0  0  0  0  0  0  0  0  0
   12.9039   24.2436   -5.2310 O   0  0  0  0  0  0  0  0  0  0  0  0
   16.6355   23.0977    1.4759 O   0  0  0  0  0  0  0  0  0  0  0  0
   15.3608   21.7944   -3.7149 C   0  0  0  0  0  0  0  0  0  0  0  0
   14.0869   22.5252   -0.5105 C   0  0  0  0  0  0  0  0  0  0  0  0
   14.7409   23.0805   -3.8487 O   0  0  0  0  0  0  0  0  0  0  0  0
   14.8127   23.7855   -0.4502 O   0  0  0  0  0  0  0  0  0  0  0  0
   16.8093   21.9536   -3.2657 C   0  0  1  0  0  0  0  0  0  0  0  0
   12.5937   22.8934   -0.8516 C   0  0  1  0  0  0  0  0  0  0  0  0
   17.5385   22.1609   -4.3181 O   0  0  0  0  0  0  0  0  0  0  0  0
   12.2686   23.7842   -0.0061 O   0  0  0  0  0  0  0  0  0  0  0  0
   17.0230   23.1373   -2.3505 C   0  0  1  0  0  0  0  0  0  0  0  0
   12.5046   23.6524   -2.1906 C   0  0  1  0  0  0  0  0  0  0  0  0
   17.0672   22.6463   -1.0835 O   0  0  0  0  0  0  0  0  0  0  0  0
   12.1039   22.8474   -3.1822 O   0  0  0  0  0  0  0  0  0  0  0  0
   18.4324   23.6804   -2.7737 C   0  0  1  0  0  0  0  0  0  0  0  0
   11.5119   24.8187   -1.9816 C   0  0  1  0  0  0  0  0  0  0  0  0
   19.4646   23.2377   -1.7979 O   0  0  0  0  0  0  0  0  0  0  0  0
   10.1810   24.4896   -2.5864 O   0  0  0  0  0  0  0  0  0  0  0  0
   18.6738   23.2058   -3.9536 C   0  0  2  0  0  0  0  0  0  0  0  0
   11.3904   24.9264   -0.7031 C   0  0  2  0  0  0  0  0  0  0  0  0
   20.3225   25.5990   -8.4675 N   0  0  0  0  0  0  0  0  0  0  0  0
   20.7047   24.3636   -8.0378 C   0  0  0  0  0  0  0  0  0  0  0  0
   20.2230   23.8389   -6.8656 N   0  0  0  0  0  0  0  0  0  0  0  0
   19.3458   24.5764   -6.1194 C   0  0  0  0  0  0  0  0  0  0  0  0
   18.9661   25.7960   -6.5254 C   0  0  0  0  0  0  0  0  0  0  0  0
   19.4531   26.3179   -7.7226 C   0  0  0  0  0  0  0  0  0  0  0  0
   19.1340   27.5808   -8.2594 N   0  0  0  0  0  0  0  0  0  0  0  0
   18.1033   26.2867   -5.6105 N   0  0  0  0  0  0  0  0  0  0  0  0
   17.9604   25.3534   -4.6267 C   0  0  0  0  0  0  0  0  0  0  0  0
   18.7116   24.2917   -4.9470 N   0  0  0  0  0  0  0  0  0  0  0  0
   15.2952   28.2907    0.0409 N   0  0  0  0  0  0  0  0  0  0  0  0
   15.3780   27.0604   -0.5298 C   0  0  0  0  0  0  0  0  0  0  0  0
   14.2533   26.2929   -0.6450 N   0  0  0  0  0  0  0  0  0  0  0  0
   13.0567   26.7593   -0.1964 C   0  0  0  0  0  0  0  0  0  0  0  0
   12.9662   27.9810    0.3669 C   0  0  0  0  0  0  0  0  0  0  0  0
   14.1174   28.7545    0.4837 C   0  0  0  0  0  0  0  0  0  0  0  0
   14.2561   30.0662    1.0626 N   0  0  0  0  0  0  0  0  0  0  0  0
   11.6710   28.1715    0.7152 N   0  0  0  0  0  0  0  0  0  0  0  0
   10.9645   27.0612    0.3575 C   0  0  0  0  0  0  0  0  0  0  0  0
   11.8297   26.1953   -0.2080 N   0  0  0  0  0  0  0  0  0  0  0  0
  1  3  1  6  0  0  0
  1  5  2  0  0  0  0
  1  9  1  0  0  0  0
  1 18  1  0  0  0  0
  2  4  1  6  0  0  0
  2  6  2  0  0  0  0
  2 10  1  0  0  0  0
  2 17  1  0  0  0  0
  7  9  1  0  0  0  0
  8 10  1  0  0  0  0
 11  7  1  6  0  0  0
 11 13  1  0  0  0  0
 11 15  1  0  0  0  0
 12  8  1  1  0  0  0
 12 14  1  0  0  0  0
 12 16  1  0  0  0  0
 13 23  1  0  0  0  0
 14 24  1  0  0  0  0
 15 17  1  1  0  0  0
 15 19  1  0  0  0  0
 16 18  1  6  0  0  0
 16 20  1  0  0  0  0
 19 21  1  1  0  0  0
 19 23  1  0  0  0  0
 20 22  1  6  0  0  0
 20 24  1  0  0  0  0
 23 34  1  6  0  0  0
 24 44  1  1  0  0  0
 25 26  2  0  0  0  0
 25 30  1  0  0  0  0
 26 27  1  0  0  0  0
 27 28  2  0  0  0  0
 28 29  1  0  0  0  0
 28 34  1  0  0  0  0
 29 30  2  0  0  0  0
 29 32  1  0  0  0  0
 30 31  1  0  0  0  0
 32 33  2  0  0  0  0
 33 34  1  0  0  0  0
 35 36  2  0  0  0  0
 35 40  1  0  0  0  0
 36 37  1  0  0  0  0
 37 38  2  0  0  0  0
 38 39  1  0  0  0  0
 38 44  1  0  0  0  0
 39 40  2  0  0  0  0
 39 42  1  0  0  0  0
 40 41  1  0  0  0  0
 42 43  2  0  0  0  0
 43 44  1  0  0  0  0
M  CHG  2   3  -1   4  -1
M  END
>  <CHROM.1>
-91.12424248,55.39529214,15.43479971,24.61052419,-2.63859335,2.55853511,0.50803778
0.74241049

>  <Name>
ligand

>  <RI>
0

>  <Rbt.Current_Directory>
/home/itssahil/PROJECTS/Mol_Feturizer/New_Systems/rnas/4QLM

>  <Rbt.Executable>
rbdock ($Id: //depot/dev/client3/rdock/2013.1/src/exe/rbdock.cxx#4 $)

>  <Rbt.Library>
libRbt.so (2013.1, Build901 2013/11/27)

>  <Rbt.Parameter_File>
/export/apps/rDock/src/rDock_2013.1_src/data/scripts/dock_solv.prm

>  <Rbt.Receptor>
prm/blind_docking_100.prm

>  <SCORE>
74.2512

>  <SCORE.INTER>
58.5599

>  <SCORE.INTER.CONST>
1

>  <SCORE.INTER.POLAR>
0

>  <SCORE.INTER.ROT>
2

>  <SCORE.INTER.SOLV>
48.0033

>  <SCORE.INTER.VDW>
18.1055

>  <SCORE.INTER.norm>
1.33091

>  <SCORE.INTRA>
2.80677

>  <SCORE.INTRA.DIHEDRAL>
0.171977

>  <SCORE.INTRA.DIHEDRAL.0>
2.32994

>  <SCORE.INTRA.POLAR>
0

>  <SCORE.INTRA.POLAR.0>
0

>  <SCORE.INTRA.REPUL>
0

>  <SCORE.INTRA.REPUL.0>
0

>  <SCORE.INTRA.SOLV>
1.1802

>  <SCORE.INTRA.SOLV.lig_0>
-117.703

>  <SCORE.INTRA.VDW>
2.13069

>  <SCORE.INTRA.VDW.0>
-1.59997

>  <SCORE.INTRA.norm>
0.0637903

>  <SCORE.RESTR>
12.8846

>  <SCORE.RESTR.CAVITY>
12.8846

>  <SCORE.RESTR.norm>
0.292831

>  <SCORE.SYSTEM>
0

>  <SCORE.SYSTEM.CONST>
0

>  <SCORE.SYSTEM.DIHEDRAL>
0

>  <SCORE.SYSTEM.SOLV>
0

>  <SCORE.SYSTEM.norm>
0

>  <SCORE.heavy>
44

>  <SCORE.norm>
1.68753

>  <RMSD>
28.056

$$$$
ligand
 OpenBabel11021811513D
libRbt.so/2013.1/901 2013/11/27
 44 50  0  0  0  0  0  0  0  0999 V2000
   19.4656   37.4711  -22.8758 P   0  0  2  0  0  0  0  0  0  0  0  0
   18.0844   37.8460  -28.0870 P   0  0  1  0  0  0  0  0  0  0  0  0
   19.0372   36.3712  -21.9077 O   0  5  0  0  0  0  0  0  0  0  0  0
   17.7607   39.3050  -28.2982 O   0  5  0  0  0  0  0  0  0  0  0  0
   19.7516   38.6874  -22.0282 O   0  0  0  0  0  0  0  0  0  0  0  0
   18.1985   37.1922  -29.4830 O   0  0  0  0  0  0  0  0  0  0  0  0
   17.4664   36.4717  -24.0781 C   0  0  0  0  0  0  0  0  0  0  0  0
   19.8130   36.5124  -26.7081 C   0  0  0  0  0  0  0  0  0  0  0  0
   18.2561   37.6467  -23.8499 O   0  0  0  0  0  0  0  0  0  0  0  0
   19.4124   37.8507  -27.1169 O   0  0  0  0  0  0  0  0  0  0  0  0
   16.2991   36.7950  -25.0045 C   0  0  1  0  0  0  0  0  0  0  0  0
   21.1619   36.6808  -25.9120 C   0  0  1  0  0  0  0  0  0  0  0  0
   15.3302   37.2684  -24.2839 O   0  0  0  0  0  0  0  0  0  0  0  0
   21.9108   37.3746  -26.6681 O   0  0  0  0  0  0  0  0  0  0  0  0
   16.6297   37.8514  -26.0337 C   0  0  1  0  0  0  0  0  0  0  0  0
   20.9706   37.6026  -24.6910 C   0  0  1  0  0  0  0  0  0  0  0  0
   16.8935   37.1944  -27.1943 O   0  0  0  0  0  0  0  0  0  0  0  0
   20.8648   36.8969  -23.5585 O   0  0  0  0  0  0  0  0  0  0  0  0
   15.2982   38.6703  -26.1618 C   0  0  1  0  0  0  0  0  0  0  0  0
   22.1907   38.5505  -24.6472 C   0  0  1  0  0  0  0  0  0  0  0  0
   14.5635   38.2623  -27.3895 O   0  0  0  0  0  0  0  0  0  0  0  0
   23.1654   38.1030  -23.6008 O   0  0  0  0  0  0  0  0  0  0  0  0
   14.6039   38.4181  -25.0988 C   0  0  2  0  0  0  0  0  0  0  0  0
   22.7318   38.4496  -25.8126 C   0  0  2  0  0  0  0  0  0  0  0  0
   12.0233   42.7019  -23.1465 N   0  0  0  0  0  0  0  0  0  0  0  0
   11.5028   41.7868  -24.0119 C   0  0  0  0  0  0  0  0  0  0  0  0
   12.2472   40.7222  -24.4523 N   0  0  0  0  0  0  0  0  0  0  0  0
   13.5347   40.5854  -24.0121 C   0  0  0  0  0  0  0  0  0  0  0  0
   14.0628   41.4812  -23.1666 C   0  0  0  0  0  0  0  0  0  0  0  0
   13.2965   42.5550  -22.7166 C   0  0  0  0  0  0  0  0  0  0  0  0
   13.7304   43.5613  -21.8312 N   0  0  0  0  0  0  0  0  0  0  0  0
   15.3301   41.1008  -22.8992 N   0  0  0  0  0  0  0  0  0  0  0  0
   15.5809   39.9579  -23.5993 C   0  0  0  0  0  0  0  0  0  0  0  0
   14.4704   39.6290  -24.2721 N   0  0  0  0  0  0  0  0  0  0  0  0
   20.1274   42.6685  -27.4058 N   0  0  0  0  0  0  0  0  0  0  0  0
   19.6372   41.6406  -26.6645 C   0  0  0  0  0  0  0  0  0  0  0  0
   20.4550   40.5970  -26.3338 N   0  0  0  0  0  0  0  0  0  0  0  0
   21.7536   40.5891  -26.7390 C   0  0  0  0  0  0  0  0  0  0  0  0
   22.2481   41.6079  -27.4710 C   0  0  0  0  0  0  0  0  0  0  0  0
   21.4071   42.6649  -27.8067 C   0  0  0  0  0  0  0  0  0  0  0  0
   21.7137   43.8355  -28.5881 N   0  0  0  0  0  0  0  0  0  0  0  0
   23.5488   41.3288  -27.7268 N   0  0  0  0  0  0  0  0  0  0  0  0
   23.8525   40.1344  -27.1427 C   0  0  0  0  0  0  0  0  0  0  0  0
   22.7368   39.6867  -26.5320 N   0  0  0  0  0  0  0  0  0  0  0  0
  1  3  1  1  0  0  0
  1  5  2  0  0  0  0
  1  9  1  0  0  0  0
  1 18  1  0  0  0  0
  2  4  1  6  0  0  0
  2  6  2  0  0  0  0
  2 10  1  0  0  0  0
  2 17  1  0  0  0  0
  7  9  1  0  0  0  0
  8 10  1  0  0  0  0
 11  7  1  1  0  0  0
 11 13  1  0  0  0  0
 11 15  1  0  0  0  0
 12  8  1  6  0  0  0
 12 14  1  0  0  0  0
 12 16  1  0  0  0  0
 13 23  1  0  0  0  0
 14 24  1  0  0  0  0
 15 17  1  6  0  0  0
 15 19  1  0  0  0  0
 16 18  1  1  0  0  0
 16 20  1  0  0  0  0
 19 21  1  6  0  0  0
 19 23  1  0  0  0  0
 20 22  1  1  0  0  0
 20 24  1  0  0  0  0
 23 34  1  1  0  0  0
 24 44  1  6  0  0  0
 25 26  2  0  0  0  0
 25 30  1  0  0  0  0
 26 27  1  0  0  0  0
 27 28  2  0  0  0  0
 28 29  1  0  0  0  0
 28 34  1  0  0  0  0
 29 30  2  0  0  0  0
 29 32  1  0  0  0  0
 30 31  1  0  0  0  0
 32 33  2  0  0  0  0
 33 34  1  0  0  0  0
 35 36  2  0  0  0  0
 35 40  1  0  0  0  0
 36 37  1  0  0  0  0
 37 38  2  0  0  0  0
 38 39  1  0  0  0  0
 38 44  1  0  0  0  0
 39 40  2  0  0  0  0
 39 42  1  0  0  0  0
 40 41  1  0  0  0  0
 42 43  2  0  0  0  0
 43 44  1  0  0  0  0
M  CHG  2   3  -1   4  -1
M  END
>  <CHROM.1>
-138.15823774,72.94166604,18.31054638,39.17664483,-25.39504365,0.00981167
-0.33698827,2.68757509

>  <Name>
ligand

>  <RI>
0

>  <Rbt.Current_Directory>
/home/itssahil/PROJECTS/Mol_Feturizer/New_Systems/rnas/4QLM

>  <Rbt.Executable>
rbdock ($Id: //depot/dev/client3/rdock/2013.1/src/exe/rbdock.cxx#4 $)

>  <Rbt.Library>
libRbt.so (2013.1, Build901 2013/11/27)

>  <Rbt.Parameter_File>
/export/apps/rDock/src/rDock_2013.1_src/data/scripts/dock_solv.prm

>  <Rbt.Receptor>
prm/blind_docking_100.prm

>  <SCORE>
88.129

>  <SCORE.INTER>
77.7511

>  <SCORE.INTER.CONST>
1

>  <SCORE.INTER.POLAR>
0

>  <SCORE.INTER.ROT>
2

>  <SCORE.INTER.SOLV>
43.4755

>  <SCORE.INTER.VDW>
32.4089

>  <SCORE.INTER.norm>
1.76707

>  <SCORE.INTRA>
-0.773283

>  <SCORE.INTRA.DIHEDRAL>
-0.00274721

>  <SCORE.INTRA.DIHEDRAL.0>
2.32994

>  <SCORE.INTRA.POLAR>
0

>  <SCORE.INTRA.POLAR.0>
0

>  <SCORE.INTRA.REPUL>
0

>  <SCORE.INTRA.REPUL.0>
0

>  <SCORE.INTRA.SOLV>
0.426628

>  <SCORE.INTRA.SOLV.lig_0>
-117.703

>  <SCORE.INTRA.VDW>
-0.985223

>  <SCORE.INTRA.VDW.0>
-1.59997

>  <SCORE.INTRA.norm>
-0.0175746

>  <SCORE.RESTR>
11.1512

>  <SCORE.RESTR.CAVITY>
11.1512

>  <SCORE.RESTR.norm>
0.253436

>  <SCORE.SYSTEM>
0

>  <SCORE.SYSTEM.CONST>
0

>  <SCORE.SYSTEM.DIHEDRAL>
0

>  <SCORE.SYSTEM.SOLV>
0

>  <SCORE.SYSTEM.norm>
0

>  <SCORE.heavy>
44

>  <SCORE.norm>
2.00293

>  <RMSD>
28.060

$$$$
ligand
 OpenBabel11021811513D
libRbt.so/2013.1/901 2013/11/27
 44 50  0  0  0  0  0  0  0  0999 V2000
   19.4861   37.4936  -22.8809 P   0  0  2  0  0  0  0  0  0  0  0  0
   18.0912   37.7652  -28.0949 P   0  0  1  0  0  0  0  0  0  0  0  0
   19.0671   36.4085  -21.8922 O   0  5  0  0  0  0  0  0  0  0  0  0
   17.7574   39.2180  -28.3316 O   0  5  0  0  0  0  0  0  0  0  0  0
   19.7658   38.7268  -22.0560 O   0  0  0  0  0  0  0  0  0  0  0  0
   18.2067   37.0872  -29.4790 O   0  0  0  0  0  0  0  0  0  0  0  0
   17.4910   36.4594  -24.0604 C   0  0  0  0  0  0  0  0  0  0  0  0
   19.8317   36.4682  -26.6960 C   0  0  0  0  0  0  0  0  0  0  0  0
   18.2734   37.6435  -23.8552 O   0  0  0  0  0  0  0  0  0  0  0  0
   19.4213   37.7962  -27.1280 O   0  0  0  0  0  0  0  0  0  0  0  0
   16.3196   36.7583  -24.9899 C   0  0  1  0  0  0  0  0  0  0  0  0
   21.1810   36.6599  -25.9061 C   0  0  1  0  0  0  0  0  0  0  0  0
   15.3491   37.2381  -24.2757 O   0  0  0  0  0  0  0  0  0  0  0  0
   21.9237   37.3449  -26.6764 O   0  0  0  0  0  0  0  0  0  0  0  0
   16.6410   37.7981  -26.0386 C   0  0  1  0  0  0  0  0  0  0  0  0
   20.9862   37.6022  -24.7016 C   0  0  1  0  0  0  0  0  0  0  0  0
   16.9066   37.1221  -27.1879 O   0  0  0  0  0  0  0  0  0  0  0  0
   20.8877   36.9164  -23.5563 O   0  0  0  0  0  0  0  0  0  0  0  0
   15.3037   38.6057  -26.1785 C   0  0  1  0  0  0  0  0  0  0  0  0
   22.2002   38.5588  -24.6776 C   0  0  1  0  0  0  0  0  0  0  0  0
   14.5691   38.1708  -27.3969 O   0  0  0  0  0  0  0  0  0  0  0  0
   23.1801   38.1367  -23.6255 O   0  0  0  0  0  0  0  0  0  0  0  0
   14.6134   38.3682  -25.1095 C   0  0  2  0  0  0  0  0  0  0  0  0
   22.7394   38.4405  -25.8422 C   0  0  2  0  0  0  0  0  0  0  0  0
   12.0008   42.6568  -23.2112 N   0  0  0  0  0  0  0  0  0  0  0  0
   11.4826   41.7192  -24.0535 C   0  0  0  0  0  0  0  0  0  0  0  0
   12.2354   40.6554  -24.4816 N   0  0  0  0  0  0  0  0  0  0  0  0
   13.5291   40.5426  -24.0527 C   0  0  0  0  0  0  0  0  0  0  0  0
   14.0549   41.4607  -23.2299 C   0  0  0  0  0  0  0  0  0  0  0  0
   13.2801   42.5335  -22.7921 C   0  0  0  0  0  0  0  0  0  0  0  0
   13.7109   43.5616  -21.9305 N   0  0  0  0  0  0  0  0  0  0  0  0
   15.3295   41.1008  -22.9689 N   0  0  0  0  0  0  0  0  0  0  0  0
   15.5870   39.9480  -23.6499 C   0  0  0  0  0  0  0  0  0  0  0  0
   14.4737   39.5928  -24.3045 N   0  0  0  0  0  0  0  0  0  0  0  0
   20.0414   42.4707  -27.7392 N   0  0  0  0  0  0  0  0  0  0  0  0
   19.5495   41.4268  -27.0218 C   0  0  0  0  0  0  0  0  0  0  0  0
   20.3950   40.4393  -26.6008 N   0  0  0  0  0  0  0  0  0  0  0  0
   21.7221   40.5030  -26.8929 C   0  0  0  0  0  0  0  0  0  0  0  0
   22.2180   41.5381  -27.6005 C   0  0  0  0  0  0  0  0  0  0  0  0
   21.3491   42.5375  -28.0287 C   0  0  0  0  0  0  0  0  0  0  0  0
   21.6535   43.7122  -28.8049 N   0  0  0  0  0  0  0  0  0  0  0  0
   23.5501   41.3335  -27.7380 N   0  0  0  0  0  0  0  0  0  0  0  0
   23.8711   40.1687  -27.1056 C   0  0  0  0  0  0  0  0  0  0  0  0
   22.7346   39.6644  -26.5838 N   0  0  0  0  0  0  0  0  0  0  0  0
  1  3  1  1  0  0  0
  1  5  2  0  0  0  0
  1  9  1  0  0  0  0
  1 18  1  0  0  0  0
  2  4  1  6  0  0  0
  2  6  2  0  0  0  0
  2 10  1  0  0  0  0
  2 17  1  0  0  0  0
  7  9  1  0  0  0  0
  8 10  1  0  0  0  0
 11  7  1  1  0  0  0
 11 13  1  0  0  0  0
 11 15  1  0  0  0  0
 12  8  1  6  0  0  0
 12 14  1  0  0  0  0
 12 16  1  0  0  0  0
 13 23  1  0  0  0  0
 14 24  1  0  0  0  0
 15 17  1  6  0  0  0
 15 19  1  0  0  0  0
 16 18  1  1  0  0  0
 16 20  1  0  0  0  0
 19 21  1  6  0  0  0
 19 23  1  0  0  0  0
 20 22  1  1  0  0  0
 20 24  1  0  0  0  0
 23 34  1  1  0  0  0
 24 44  1  6  0  0  0
 25 26  2  0  0  0  0
 25 30  1  0  0  0  0
 26 27  1  0  0  0  0
 27 28  2  0  0  0  0
 28 29  1  0  0  0  0
 28 34  1  0  0  0  0
 29 30  2  0  0  0  0
 29 32  1  0  0  0  0
 30 31  1  0  0  0  0
 32 33  2  0  0  0  0
 33 34  1  0  0  0  0
 35 36  2  0  0  0  0
 35 40  1  0  0  0  0
 36 37  1  0  0  0  0
 37 38  2  0  0  0  0
 38 39  1  0  0  0  0
 38 44  1  0  0  0  0
 39 40  2  0  0  0  0
 39 42  1  0  0  0  0
 40 41  1  0  0  0  0
 42 43  2  0  0  0  0
 43 44  1  0  0  0  0
M  CHG  2   3  -1   4  -1
M  END
>  <CHROM.1>
-137.58092559,67.03415231,18.30890237,39.13397929,-25.44457130,-0.02010126
-0.33971182,2.60491840

>  <Name>
ligand

>  <RI>
0

>  <Rbt.Current_Directory>
/home/itssahil/PROJECTS/Mol_Feturizer/New_Systems/rnas/4QLM

>  <Rbt.Executable>
rbdock ($Id: //depot/dev/client3/rdock/2013.1/src/exe/rbdock.cxx#4 $)

>  <Rbt.Library>
libRbt.so (2013.1, Build901 2013/11/27)

>  <Rbt.Parameter_File>
/export/apps/rDock/src/rDock_2013.1_src/data/scripts/dock_solv.prm

>  <Rbt.Receptor>
prm/blind_docking_100.prm

>  <SCORE>
87.1985

>  <SCORE.INTER>
76.4916

>  <SCORE.INTER.CONST>
1

>  <SCORE.INTER.POLAR>
0

>  <SCORE.INTER.ROT>
2

>  <SCORE.INTER.SOLV>
42.8584

>  <SCORE.INTER.VDW>
31.7749

>  <SCORE.INTER.norm>
1.73844

>  <SCORE.INTRA>
-0.833896

>  <SCORE.INTRA.DIHEDRAL>
-0.00357089

>  <SCORE.INTRA.DIHEDRAL.0>
2.32994

>  <SCORE.INTRA.POLAR>
0

>  <SCORE.INTRA.POLAR.0>
0

>  <SCORE.INTRA.REPUL>
0

>  <SCORE.INTRA.REPUL.0>
0

>  <SCORE.INTRA.SOLV>
0.672659

>  <SCORE.INTRA.SOLV.lig_0>
-117.703

>  <SCORE.INTRA.VDW>
-1.16844

>  <SCORE.INTRA.VDW.0>
-1.59997

>  <SCORE.INTRA.norm>
-0.0189522

>  <SCORE.RESTR>
11.5408

>  <SCORE.RESTR.CAVITY>
11.5408

>  <SCORE.RESTR.norm>
0.262292

>  <SCORE.SYSTEM>
0

>  <SCORE.SYSTEM.CONST>
0

>  <SCORE.SYSTEM.DIHEDRAL>
0

>  <SCORE.SYSTEM.SOLV>
0

>  <SCORE.SYSTEM.norm>
0

>  <SCORE.heavy>
44

>  <SCORE.norm>
1.98178

>  <RMSD>
28.064

$$$$
ligand
 OpenBabel11021811513D
libRbt.so/2013.1/901 2013/11/27
 44 50  0  0  0  0  0  0  0  0999 V2000
   19.4751   37.4805  -22.8731 P   0  0  2  0  0  0  0  0  0  0  0  0
   18.1002   37.8208  -28.0885 P   0  0  1  0  0  0  0  0  0  0  0  0
   19.0492   36.3845  -21.8995 O   0  5  0  0  0  0  0  0  0  0  0  0
   17.7716   39.2774  -28.3084 O   0  5  0  0  0  0  0  0  0  0  0  0
   19.7553   38.7027  -22.0321 O   0  0  0  0  0  0  0  0  0  0  0  0
   18.2188   37.1596  -29.4805 O   0  0  0  0  0  0  0  0  0  0  0  0
   17.4813   36.4670  -24.0727 C   0  0  0  0  0  0  0  0  0  0  0  0
   19.8317   36.5014  -26.6994 C   0  0  0  0  0  0  0  0  0  0  0  0
   18.2663   37.6461  -23.8500 O   0  0  0  0  0  0  0  0  0  0  0  0
   19.4268   37.8358  -27.1164 O   0  0  0  0  0  0  0  0  0  0  0  0
   16.3142   36.7808  -25.0027 C   0  0  1  0  0  0  0  0  0  0  0  0
   21.1787   36.6793  -25.9023 C   0  0  1  0  0  0  0  0  0  0  0  0
   15.3425   37.2547  -24.2861 O   0  0  0  0  0  0  0  0  0  0  0  0
   21.9262   37.3715  -26.6613 O   0  0  0  0  0  0  0  0  0  0  0  0
   16.6425   37.8325  -26.0373 C   0  0  1  0  0  0  0  0  0  0  0  0
   20.9822   37.6073  -24.6869 C   0  0  1  0  0  0  0  0  0  0  0  0
   16.9104   37.1700  -27.1938 O   0  0  0  0  0  0  0  0  0  0  0  0
   20.8774   36.9076  -23.5505 O   0  0  0  0  0  0  0  0  0  0  0  0
   15.3081   38.6458  -26.1720 C   0  0  1  0  0  0  0  0  0  0  0  0
   22.1988   38.5598  -24.6466 C   0  0  1  0  0  0  0  0  0  0  0  0
   14.5768   38.2282  -27.3984 O   0  0  0  0  0  0  0  0  0  0  0  0
   23.1736   38.1218  -23.5963 O   0  0  0  0  0  0  0  0  0  0  0  0
   14.6132   38.3971  -25.1086 C   0  0  2  0  0  0  0  0  0  0  0  0
   22.7420   38.4543  -25.8106 C   0  0  2  0  0  0  0  0  0  0  0  0
   12.0099   42.6758  -23.1754 N   0  0  0  0  0  0  0  0  0  0  0  0
   11.4931   41.7521  -24.0337 C   0  0  0  0  0  0  0  0  0  0  0  0
   12.2432   40.6896  -24.4696 N   0  0  0  0  0  0  0  0  0  0  0  0
   13.5329   40.5640  -24.0322 C   0  0  0  0  0  0  0  0  0  0  0  0
   14.0574   41.4685  -23.1937 C   0  0  0  0  0  0  0  0  0  0  0  0
   13.2853   42.5399  -22.7482 C   0  0  0  0  0  0  0  0  0  0  0  0
   13.7151   43.5545  -21.8702 N   0  0  0  0  0  0  0  0  0  0  0  0
   15.3279   41.0980  -22.9276 N   0  0  0  0  0  0  0  0  0  0  0  0
   15.5843   39.9525  -23.6214 C   0  0  0  0  0  0  0  0  0  0  0  0
   14.4741   39.6121  -24.2891 N   0  0  0  0  0  0  0  0  0  0  0  0
   20.1367   42.6758  -27.3955 N   0  0  0  0  0  0  0  0  0  0  0  0
   19.6512   41.6543  -26.6425 C   0  0  0  0  0  0  0  0  0  0  0  0
   20.4684   40.6089  -26.3160 N   0  0  0  0  0  0  0  0  0  0  0  0
   21.7618   40.5929  -26.7371 C   0  0  0  0  0  0  0  0  0  0  0  0
   22.2518   41.6054  -27.4808 C   0  0  0  0  0  0  0  0  0  0  0  0
   21.4114   42.6642  -27.8121 C   0  0  0  0  0  0  0  0  0  0  0  0
   21.7134   43.8291  -28.6039 N   0  0  0  0  0  0  0  0  0  0  0  0
   23.5479   41.3190  -27.7510 N   0  0  0  0  0  0  0  0  0  0  0  0
   23.8535   40.1266  -27.1640 C   0  0  0  0  0  0  0  0  0  0  0  0
   22.7435   39.6874  -26.5371 N   0  0  0  0  0  0  0  0  0  0  0  0
  1  3  1  1  0  0  0
  1  5  2  0  0  0  0
  1  9  1  0  0  0  0
  1 18  1  0  0  0  0
  2  4  1  6  0  0  0
  2  6  2  0  0  0  0
  2 10  1  0  0  0  0
  2 17  1  0  0  0  0
  7  9  1  0  0  0  0
  8 10  1  0  0  0  0
 11  7  1  1  0  0  0
 11 13  1  0  0  0  0
 11 15  1  0  0  0  0
 12  8  1  6  0  0  0
 12 14  1  0  0  0  0
 12 16  1  0  0  0  0
 13 23  1  0  0  0  0
 14 24  1  0  0  0  0
 15 17  1  6  0  0  0
 15 19  1  0  0  0  0
 16 18  1  1  0  0  0
 16 20  1  0  0  0  0
 19 21  1  6  0  0  0
 19 23  1  0  0  0  0
 20 22  1  1  0  0  0
 20 24  1  0  0  0  0
 23 34  1  1  0  0  0
 24 44  1  6  0  0  0
 25 26  2  0  0  0  0
 25 30  1  0  0  0  0
 26 27  1  0  0  0  0
 27 28  2  0  0  0  0
 28 29  1  0  0  0  0
 28 34  1  0  0  0  0
 29 30  2  0  0  0  0
 29 32  1  0  0  0  0
 30 31  1  0  0  0  0
 32 33  2  0  0  0  0
 33 34  1  0  0  0  0
 35 36  2  0  0  0  0
 35 40  1  0  0  0  0
 36 37  1  0  0  0  0
 37 38  2  0  0  0  0
 38 39  1  0  0  0  0
 38 44  1  0  0  0  0
 39 40  2  0  0  0  0
 39 42  1  0  0  0  0
 40 41  1  0  0  0  0
 42 43  2  0  0  0  0
 43 44  1  0  0  0  0
M  CHG  2   3  -1   4  -1
M  END
>  <CHROM.1>
-137.86036356,73.85809185,18.31814965,39.16870588,-25.40036682,0.00979218
-0.33358685,2.69107962

>  <Name>
ligand

>  <RI>
0

>  <Rbt.Current_Directory>
/home/itssahil/PROJECTS/Mol_Feturizer/New_Systems/rnas/4QLM

>  <Rbt.Executable>
rbdock ($Id: //depot/dev/client3/rdock/2013.1/src/exe/rbdock.cxx#4 $)

>  <Rbt.Library>
libRbt.so (2013.1, Build901 2013/11/27)

>  <Rbt.Parameter_File>
/export/apps/rDock/src/rDock_2013.1_src/data/scripts/dock_solv.prm

>  <Rbt.Receptor>
prm/blind_docking_100.prm

>  <SCORE>
88.2882

>  <SCORE.INTER>
77.9298

>  <SCORE.INTER.CONST>
1

>  <SCORE.INTER.POLAR>
0

>  <SCORE.INTER.ROT>
2

>  <SCORE.INTER.SOLV>
43.5395

>  <SCORE.INTER.VDW>
32.5067

>  <SCORE.INTER.norm>
1.77113

>  <SCORE.INTRA>
-0.729043

>  <SCORE.INTRA.DIHEDRAL>
-0.00127571

>  <SCORE.INTRA.DIHEDRAL.0>
2.32994

>  <SCORE.INTRA.POLAR>
0

>  <SCORE.INTRA.POLAR.0>
0

>  <SCORE.INTRA.REPUL>
0

>  <SCORE.INTRA.REPUL.0>
0

>  <SCORE.INTRA.SOLV>
0.395484

>  <SCORE.INTRA.SOLV.lig_0>
-117.703

>  <SCORE.INTRA.VDW>
-0.926147

>  <SCORE.INTRA.VDW.0>
-1.59997

>  <SCORE.INTRA.norm>
-0.0165692

>  <SCORE.RESTR>
11.0875

>  <SCORE.RESTR.CAVITY>
11.0875

>  <SCORE.RESTR.norm>
0.251989

>  <SCORE.SYSTEM>
0

>  <SCORE.SYSTEM.CONST>
0

>  <SCORE.SYSTEM.DIHEDRAL>
0

>  <SCORE.SYSTEM.SOLV>
0

>  <SCORE.SYSTEM.norm>
0

>  <SCORE.heavy>
44

>  <SCORE.norm>
2.00655

>  <RMSD>
28.066

$$$$
ligand
 OpenBabel11021811513D
libRbt.so/2013.1/901 2013/11/27
 44 50  0  0  0  0  0  0  0  0999 V2000
   19.4709   37.4833  -22.8795 P   0  0  2  0  0  0  0  0  0  0  0  0
   18.0789   37.8734  -28.0868 P   0  0  1  0  0  0  0  0  0  0  0  0
   19.0426   36.3819  -21.9132 O   0  5  0  0  0  0  0  0  0  0  0  0
   17.7575   39.3335  -28.2938 O   0  5  0  0  0  0  0  0  0  0  0  0
   19.7610   38.6971  -22.0297 O   0  0  0  0  0  0  0  0  0  0  0  0
   18.1887   37.2228  -29.4845 O   0  0  0  0  0  0  0  0  0  0  0  0
   17.4672   36.4905  -24.0798 C   0  0  0  0  0  0  0  0  0  0  0  0
   19.8081   36.5332  -26.7149 C   0  0  0  0  0  0  0  0  0  0  0  0
   18.2596   37.6635  -23.8505 O   0  0  0  0  0  0  0  0  0  0  0  0
   19.4091   37.8732  -27.1196 O   0  0  0  0  0  0  0  0  0  0  0  0
   16.2985   36.8183  -25.0029 C   0  0  1  0  0  0  0  0  0  0  0  0
   21.1590   36.6972  -25.9213 C   0  0  1  0  0  0  0  0  0  0  0  0
   15.3320   37.2917  -24.2790 O   0  0  0  0  0  0  0  0  0  0  0  0
   21.9075   37.3914  -26.6775 O   0  0  0  0  0  0  0  0  0  0  0  0
   16.6288   37.8765  -26.0302 C   0  0  1  0  0  0  0  0  0  0  0  0
   20.9721   37.6164  -24.6978 C   0  0  1  0  0  0  0  0  0  0  0  0
   16.8887   37.2219  -27.1930 O   0  0  0  0  0  0  0  0  0  0  0  0
   20.8675   36.9081  -23.5667 O   0  0  0  0  0  0  0  0  0  0  0  0
   15.2985   38.6983  -26.1534 C   0  0  1  0  0  0  0  0  0  0  0  0
   22.1941   38.5619  -24.6543 C   0  0  1  0  0  0  0  0  0  0  0  0
   14.5603   38.2946  -27.3804 O   0  0  0  0  0  0  0  0  0  0  0  0
   23.1703   38.1100  -23.6112 O   0  0  0  0  0  0  0  0  0  0  0  0
   14.6060   38.4448  -25.0895 C   0  0  2  0  0  0  0  0  0  0  0  0
   22.7324   38.4628  -25.8212 C   0  0  2  0  0  0  0  0  0  0  0  0
   12.0419   42.7351  -23.1300 N   0  0  0  0  0  0  0  0  0  0  0  0
   11.5188   41.8250  -23.9990 C   0  0  0  0  0  0  0  0  0  0  0  0
   12.2590   40.7581  -24.4409 N   0  0  0  0  0  0  0  0  0  0  0  0
   13.5450   40.6140  -23.9987 C   0  0  0  0  0  0  0  0  0  0  0  0
   14.0757   41.5049  -23.1495 C   0  0  0  0  0  0  0  0  0  0  0  0
   13.3135   42.5810  -22.6980 C   0  0  0  0  0  0  0  0  0  0  0  0
   13.7505   43.5827  -21.8088 N   0  0  0  0  0  0  0  0  0  0  0  0
   15.3407   41.1178  -22.8809 N   0  0  0  0  0  0  0  0  0  0  0  0
   15.5874   39.9757  -23.5837 C   0  0  0  0  0  0  0  0  0  0  0  0
   14.4767   39.6539  -24.2596 N   0  0  0  0  0  0  0  0  0  0  0  0
   20.1378   42.6995  -27.3827 N   0  0  0  0  0  0  0  0  0  0  0  0
   19.6481   41.6725  -26.6399 C   0  0  0  0  0  0  0  0  0  0  0  0
   20.4630   40.6237  -26.3185 N   0  0  0  0  0  0  0  0  0  0  0  0
   21.7581   40.6098  -26.7344 C   0  0  0  0  0  0  0  0  0  0  0  0
   22.2521   41.6277  -27.4679 C   0  0  0  0  0  0  0  0  0  0  0  0
   21.4141   42.6900  -27.7941 C   0  0  0  0  0  0  0  0  0  0  0  0
   21.7205   43.8609  -28.5752 N   0  0  0  0  0  0  0  0  0  0  0  0
   23.5491   41.3422  -27.7351 N   0  0  0  0  0  0  0  0  0  0  0  0
   23.8511   40.1448  -27.1564 C   0  0  0  0  0  0  0  0  0  0  0  0
   22.7381   39.7016  -26.5376 N   0  0  0  0  0  0  0  0  0  0  0  0
  1  3  1  1  0  0  0
  1  5  2  0  0  0  0
  1  9  1  0  0  0  0
  1 18  1  0  0  0  0
  2  4  1  6  0  0  0
  2  6  2  0  0  0  0
  2 10  1  0  0  0  0
  2 17  1  0  0  0  0
  7  9  1  0  0  0  0
  8 10  1  0  0  0  0
 11  7  1  1  0  0  0
 11 13  1  0  0  0  0
 11 15  1  0  0  0  0
 12  8  1  6  0  0  0
 12 14  1  0  0  0  0
 12 16  1  0  0  0  0
 13 23  1  0  0  0  0
 14 24  1  0  0  0  0
 15 17  1  6  0  0  0
 15 19  1  0  0  0  0
 16 18  1  1  0  0  0
 16 20  1  0  0  0  0
 19 21  1  6  0  0  0
 19 23  1  0  0  0  0
 20 22  1  1  0  0  0
 20 24  1  0  0  0  0
 23 34  1  1  0  0  0
 24 44  1  6  0  0  0
 25 26  2  0  0  0  0
 25 30  1  0  0  0  0
 26 27  1  0  0  0  0
 27 28  2  0  0  0  0
 28 29  1  0  0  0  0
 28 34  1  0  0  0  0
 29 30  2  0  0  0  0
 29 32  1  0  0  0  0
 30 31  1  0  0  0  0
 32 33  2  0  0  0  0
 33 34  1  0  0  0  0
 35 36  2  0  0  0  0
 35 40  1  0  0  0  0
 36 37  1  0  0  0  0
 37 38  2  0  0  0  0
 38 39  1  0  0  0  0
 38 44  1  0  0  0  0
 39 40  2  0  0  0  0
 39 42  1  0  0  0  0
 40 41  1  0  0  0  0
 42 43  2  0  0  0  0
 43 44  1  0  0  0  0
M  CHG  2   3  -1   4  -1
M  END
>  <CHROM.1>
-138.44705274,73.34124634,18.31418966,39.19823370,-25.39148345,0.01248252
-0.33928583,2.69428458

>  <Name>
ligand

>  <RI>
0

>  <Rbt.Current_Directory>
/home/itssahil/PROJECTS/Mol_Feturizer/New_Systems/rnas/4QLM

>  <Rbt.Executable>
rbdock ($Id: //depot/dev/client3/rdock/2013.1/src/exe/rbdock.cxx#4 $)

>  <Rbt.Library>
libRbt.so (2013.1, Build901 2013/11/27)

>  <Rbt.Parameter_File>
/export/apps/rDock/src/rDock_2013.1_src/data/scripts/dock_solv.prm

>  <Rbt.Receptor>
prm/blind_docking_100.prm

>  <SCORE>
88.1462

>  <SCORE.INTER>
77.7796

>  <SCORE.INTER.CONST>
1

>  <SCORE.INTER.POLAR>
0

>  <SCORE.INTER.ROT>
2

>  <SCORE.INTER.SOLV>
43.4829

>  <SCORE.INTER.VDW>
32.4254

>  <SCORE.INTER.norm>
1.76772

>  <SCORE.INTRA>
-0.76932

>  <SCORE.INTRA.DIHEDRAL>
-0.00358954

>  <SCORE.INTRA.DIHEDRAL.0>
2.32994

>  <SCORE.INTRA.POLAR>
0

>  <SCORE.INTRA.POLAR.0>
0

>  <SCORE.INTRA.REPUL>
0

>  <SCORE.INTRA.REPUL.0>
0

>  <SCORE.INTRA.SOLV>
0.413187

>  <SCORE.INTRA.SOLV.lig_0>
-117.703

>  <SCORE.INTRA.VDW>
-0.974119

>  <SCORE.INTRA.VDW.0>
-1.59997

>  <SCORE.INTRA.norm>
-0.0174845

>  <SCORE.RESTR>
11.1359

>  <SCORE.RESTR.CAVITY>
11.1359

>  <SCORE.RESTR.norm>
0.253089

>  <SCORE.SYSTEM>
0

>  <SCORE.SYSTEM.CONST>
0

>  <SCORE.SYSTEM.DIHEDRAL>
0

>  <SCORE.SYSTEM.SOLV>
0

>  <SCORE.SYSTEM.norm>
0

>  <SCORE.heavy>
44

>  <SCORE.norm>
2.00332

>  <RMSD>
28.067

$$$$
ligand
 OpenBabel11021811513D
libRbt.so/2013.1/901 2013/11/27
 44 50  0  0  0  0  0  0  0  0999 V2000
   19.4748   37.4873  -22.8742 P   0  0  2  0  0  0  0  0  0  0  0  0
   18.1011   37.8252  -28.0900 P   0  0  1  0  0  0  0  0  0  0  0  0
   19.0491   36.3915  -21.9003 O   0  5  0  0  0  0  0  0  0  0  0  0
   17.7721   39.2816  -28.3106 O   0  5  0  0  0  0  0  0  0  0  0  0
   19.7545   38.7098  -22.0335 O   0  0  0  0  0  0  0  0  0  0  0  0
   18.2203   37.1635  -29.4818 O   0  0  0  0  0  0  0  0  0  0  0  0
   17.4817   36.4726  -24.0739 C   0  0  0  0  0  0  0  0  0  0  0  0
   19.8327   36.5068  -26.7001 C   0  0  0  0  0  0  0  0  0  0  0  0
   18.2663   37.6522  -23.8514 O   0  0  0  0  0  0  0  0  0  0  0  0
   19.4275   37.8410  -27.1177 O   0  0  0  0  0  0  0  0  0  0  0  0
   16.3147   36.7857  -25.0043 C   0  0  1  0  0  0  0  0  0  0  0  0
   21.1795   36.6855  -25.9027 C   0  0  1  0  0  0  0  0  0  0  0  0
   15.3426   37.2596  -24.2881 O   0  0  0  0  0  0  0  0  0  0  0  0
   21.9269   37.3777  -26.6617 O   0  0  0  0  0  0  0  0  0  0  0  0
   16.6429   37.8372  -26.0392 C   0  0  1  0  0  0  0  0  0  0  0  0
   20.9824   37.6139  -24.6876 C   0  0  1  0  0  0  0  0  0  0  0  0
   16.9113   37.1743  -27.1954 O   0  0  0  0  0  0  0  0  0  0  0  0
   20.8775   36.9146  -23.5510 O   0  0  0  0  0  0  0  0  0  0  0  0
   15.3083   38.6500  -26.1745 C   0  0  1  0  0  0  0  0  0  0  0  0
   22.1987   38.5668  -24.6475 C   0  0  1  0  0  0  0  0  0  0  0  0
   14.5774   38.2317  -27.4010 O   0  0  0  0  0  0  0  0  0  0  0  0
   23.1733   38.1296  -23.5967 O   0  0  0  0  0  0  0  0  0  0  0  0
   14.6132   38.4015  -25.1112 C   0  0  2  0  0  0  0  0  0  0  0  0
   22.7422   38.4611  -25.8113 C   0  0  2  0  0  0  0  0  0  0  0  0
   12.0092   42.6819  -23.1827 N   0  0  0  0  0  0  0  0  0  0  0  0
   11.4931   41.7581  -24.0416 C   0  0  0  0  0  0  0  0  0  0  0  0
   12.2434   40.6952  -24.4761 N   0  0  0  0  0  0  0  0  0  0  0  0
   13.5324   40.5691  -24.0369 C   0  0  0  0  0  0  0  0  0  0  0  0
   14.0561   41.4735  -23.1978 C   0  0  0  0  0  0  0  0  0  0  0  0
   13.2839   42.5454  -22.7536 C   0  0  0  0  0  0  0  0  0  0  0  0
   13.7129   43.5600  -21.8753 N   0  0  0  0  0  0  0  0  0  0  0  0
   15.3261   41.1025  -22.9299 N   0  0  0  0  0  0  0  0  0  0  0  0
   15.5829   39.9568  -23.6230 C   0  0  0  0  0  0  0  0  0  0  0  0
   14.4735   39.6167  -24.2921 N   0  0  0  0  0  0  0  0  0  0  0  0
   20.1363   42.6818  -27.3973 N   0  0  0  0  0  0  0  0  0  0  0  0
   19.6509   41.6605  -26.6438 C   0  0  0  0  0  0  0  0  0  0  0  0
   20.4683   40.6153  -26.3170 N   0  0  0  0  0  0  0  0  0  0  0  0
   21.7616   40.5993  -26.7383 C   0  0  0  0  0  0  0  0  0  0  0  0
   22.2514   41.6115  -27.4825 C   0  0  0  0  0  0  0  0  0  0  0  0
   21.4108   42.6701  -27.8140 C   0  0  0  0  0  0  0  0  0  0  0  0
   21.7126   43.8347  -28.6063 N   0  0  0  0  0  0  0  0  0  0  0  0
   23.5475   41.3251  -27.7529 N   0  0  0  0  0  0  0  0  0  0  0  0
   23.8533   40.1330  -27.1654 C   0  0  0  0  0  0  0  0  0  0  0  0
   22.7435   39.6938  -26.5382 N   0  0  0  0  0  0  0  0  0  0  0  0
  1  3  1  1  0  0  0
  1  5  2  0  0  0  0
  1  9  1  0  0  0  0
  1 18  1  0  0  0  0
  2  4  1  6  0  0  0
  2  6  2  0  0  0  0
  2 10  1  0  0  0  0
  2 17  1  0  0  0  0
  7  9  1  0  0  0  0
  8 10  1  0  0  0  0
 11  7  1  1  0  0  0
 11 13  1  0  0  0  0
 11 15  1  0  0  0  0
 12  8  1  6  0  0  0
 12 14  1  0  0  0  0
 12 16  1  0  0  0  0
 13 23  1  0  0  0  0
 14 24  1  0  0  0  0
 15 17  1  6  0  0  0
 15 19  1  0  0  0  0
 16 18  1  1  0  0  0
 16 20  1  0  0  0  0
 19 21  1  6  0  0  0
 19 23  1  0  0  0  0
 20 22  1  1  0  0  0
 20 24  1  0  0  0  0
 23 34  1  1  0  0  0
 24 44  1  6  0  0  0
 25 26  2  0  0  0  0
 25 30  1  0  0  0  0
 26 27  1  0  0  0  0
 27 28  2  0  0  0  0
 28 29  1  0  0  0  0
 28 34  1  0  0  0  0
 29 30  2  0  0  0  0
 29 32  1  0  0  0  0
 30 31  1  0  0  0  0
 32 33  2  0  0  0  0
 33 34  1  0  0  0  0
 35 36  2  0  0  0  0
 35 40  1  0  0  0  0
 36 37  1  0  0  0  0
 37 38  2  0  0  0  0
 38 39  1  0  0  0  0
 38 44  1  0  0  0  0
 39 40  2  0  0  0  0
 39 42  1  0  0  0  0
 40 41  1  0  0  0  0
 42 43  2  0  0  0  0
 43 44  1  0  0  0  0
M  CHG  2   3  -1   4  -1
M  END
>  <CHROM.1>
-137.94207792,73.88607082,18.31808712,39.17433625,-25.40243564,0.00982058
-0.33314422,2.69087269

>  <Name>
ligand

>  <RI>
0

>  <Rbt.Current_Directory>
/home/itssahil/PROJECTS/Mol_Feturizer/New_Systems/rnas/4QLM

>  <Rbt.Executable>
rbdock ($Id: //depot/dev/client3/rdock/2013.1/src/exe/rbdock.cxx#4 $)

>  <Rbt.Library>
libRbt.so (2013.1, Build901 2013/11/27)

>  <Rbt.Parameter_File>
/export/apps/rDock/src/rDock_2013.1_src/data/scripts/dock_solv.prm

>  <Rbt.Receptor>
prm/blind_docking_100.prm

>  <SCORE>
88.0715

>  <SCORE.INTER>
77.6673

>  <SCORE.INTER.CONST>
1

>  <SCORE.INTER.POLAR>
0

>  <SCORE.INTER.ROT>
2

>  <SCORE.INTER.SOLV>
43.5131

>  <SCORE.INTER.VDW>
32.3405

>  <SCORE.INTER.norm>
1.76517

>  <SCORE.INTRA>
-0.729899

>  <SCORE.INTRA.DIHEDRAL>
-0.00155922

>  <SCORE.INTRA.DIHEDRAL.0>
2.32994

>  <SCORE.INTRA.POLAR>
0

>  <SCORE.INTRA.POLAR.0>
0

>  <SCORE.INTRA.REPUL>
0

>  <SCORE.INTRA.REPUL.0>
0

>  <SCORE.INTRA.SOLV>
0.394542

>  <SCORE.INTRA.SOLV.lig_0>
-117.703

>  <SCORE.INTRA.VDW>
-0.926391

>  <SCORE.INTRA.VDW.0>
-1.59997

>  <SCORE.INTRA.norm>
-0.0165886

>  <SCORE.RESTR>
11.1341

>  <SCORE.RESTR.CAVITY>
11.1341

>  <SCORE.RESTR.norm>
0.253048

>  <SCORE.SYSTEM>
0

>  <SCORE.SYSTEM.CONST>
0

>  <SCORE.SYSTEM.DIHEDRAL>
0

>  <SCORE.SYSTEM.SOLV>
0

>  <SCORE.SYSTEM.norm>
0

>  <SCORE.heavy>
44

>  <SCORE.norm>
2.00162

>  <RMSD>
28.068

$$$$
ligand
 OpenBabel11021811513D
libRbt.so/2013.1/901 2013/11/27
 44 50  0  0  0  0  0  0  0  0999 V2000
   19.4864   37.4971  -22.8787 P   0  0  2  0  0  0  0  0  0  0  0  0
   18.0994   37.8048  -28.0928 P   0  0  1  0  0  0  0  0  0  0  0  0
   19.0635   36.4068  -21.8975 O   0  5  0  0  0  0  0  0  0  0  0  0
   17.7694   39.2598  -28.3209 O   0  5  0  0  0  0  0  0  0  0  0  0
   19.7679   38.7245  -22.0458 O   0  0  0  0  0  0  0  0  0  0  0  0
   18.2152   37.1352  -29.4811 O   0  0  0  0  0  0  0  0  0  0  0  0
   17.4906   36.4751  -24.0675 C   0  0  0  0  0  0  0  0  0  0  0  0
   19.8349   36.4949  -26.6998 C   0  0  0  0  0  0  0  0  0  0  0  0
   18.2754   37.6561  -23.8538 O   0  0  0  0  0  0  0  0  0  0  0  0
   19.4282   37.8266  -27.1240 O   0  0  0  0  0  0  0  0  0  0  0  0
   16.3212   36.7825  -24.9967 C   0  0  1  0  0  0  0  0  0  0  0  0
   21.1836   36.6785  -25.9069 C   0  0  1  0  0  0  0  0  0  0  0  0
   15.3507   37.2602  -24.2808 O   0  0  0  0  0  0  0  0  0  0  0  0
   21.9289   37.3665  -26.6718 O   0  0  0  0  0  0  0  0  0  0  0  0
   16.6464   37.8281  -26.0384 C   0  0  1  0  0  0  0  0  0  0  0  0
   20.9893   37.6137  -24.6967 C   0  0  1  0  0  0  0  0  0  0  0  0
   16.9120   37.1587  -27.1915 O   0  0  0  0  0  0  0  0  0  0  0  0
   20.8875   36.9209  -23.5558 O   0  0  0  0  0  0  0  0  0  0  0  0
   15.3112   38.6398  -26.1751 C   0  0  1  0  0  0  0  0  0  0  0  0
   22.2055   38.5672  -24.6650 C   0  0  1  0  0  0  0  0  0  0  0  0
   14.5773   38.2142  -27.3972 O   0  0  0  0  0  0  0  0  0  0  0  0
   23.1829   38.1362  -23.6142 O   0  0  0  0  0  0  0  0  0  0  0  0
   14.6189   38.3972  -25.1085 C   0  0  2  0  0  0  0  0  0  0  0  0
   22.7460   38.4550  -25.8296 C   0  0  2  0  0  0  0  0  0  0  0  0
   12.0180   42.6869  -23.1967 N   0  0  0  0  0  0  0  0  0  0  0  0
   11.4999   41.7578  -24.0485 C   0  0  0  0  0  0  0  0  0  0  0  0
   12.2495   40.6929  -24.4793 N   0  0  0  0  0  0  0  0  0  0  0  0
   13.5399   40.5702  -24.0434 C   0  0  0  0  0  0  0  0  0  0  0  0
   14.0657   41.4799  -23.2112 C   0  0  0  0  0  0  0  0  0  0  0  0
   13.2941   42.5538  -22.7708 C   0  0  0  0  0  0  0  0  0  0  0  0
   13.7252   43.5738  -21.8997 N   0  0  0  0  0  0  0  0  0  0  0  0
   15.3367   41.1113  -22.9451 N   0  0  0  0  0  0  0  0  0  0  0  0
   15.5921   39.9617  -23.6324 C   0  0  0  0  0  0  0  0  0  0  0  0
   14.4809   39.6170  -24.2961 N   0  0  0  0  0  0  0  0  0  0  0  0
   20.0956   42.5913  -27.5578 N   0  0  0  0  0  0  0  0  0  0  0  0
   19.6060   41.5604  -26.8203 C   0  0  0  0  0  0  0  0  0  0  0  0
   20.4371   40.5407  -26.4506 N   0  0  0  0  0  0  0  0  0  0  0  0
   21.7481   40.5595  -26.8133 C   0  0  0  0  0  0  0  0  0  0  0  0
   22.2419   41.5815  -27.5412 C   0  0  0  0  0  0  0  0  0  0  0  0
   21.3875   42.6140  -27.9168 C   0  0  0  0  0  0  0  0  0  0  0  0
   21.6915   43.7827  -28.7022 N   0  0  0  0  0  0  0  0  0  0  0  0
   23.5565   41.3310  -27.7513 N   0  0  0  0  0  0  0  0  0  0  0  0
   23.8692   40.1510  -27.1431 C   0  0  0  0  0  0  0  0  0  0  0  0
   22.7451   39.6836  -26.5635 N   0  0  0  0  0  0  0  0  0  0  0  0
  1  3  1  1  0  0  0
  1  5  2  0  0  0  0
  1  9  1  0  0  0  0
  1 18  1  0  0  0  0
  2  4  1  6  0  0  0
  2  6  2  0  0  0  0
  2 10  1  0  0  0  0
  2 17  1  0  0  0  0
  7  9  1  0  0  0  0
  8 10  1  0  0  0  0
 11  7  1  1  0  0  0
 11 13  1  0  0  0  0
 11 15  1  0  0  0  0
 12  8  1  6  0  0  0
 12 14  1  0  0  0  0
 12 16  1  0  0  0  0
 13 23  1  0  0  0  0
 14 24  1  0  0  0  0
 15 17  1  6  0  0  0
 15 19  1  0  0  0  0
 16 18  1  1  0  0  0
 16 20  1  0  0  0  0
 19 21  1  6  0  0  0
 19 23  1  0  0  0  0
 20 22  1  1  0  0  0
 20 24  1  0  0  0  0
 23 34  1  1  0  0  0
 24 44  1  6  0  0  0
 25 26  2  0  0  0  0
 25 30  1  0  0  0  0
 26 27  1  0  0  0  0
 27 28  2  0  0  0  0
 28 29  1  0  0  0  0
 28 34  1  0  0  0  0
 29 30  2  0  0  0  0
 29 32  1  0  0  0  0
 30 31  1  0  0  0  0
 32 33  2  0  0  0  0
 33 34  1  0  0  0  0
 35 36  2  0  0  0  0
 35 40  1  0  0  0  0
 36 37  1  0  0  0  0
 37 38  2  0  0  0  0
 38 39  1  0  0  0  0
 38 44  1  0  0  0  0
 39 40  2  0  0  0  0
 39 42  1  0  0  0  0
 40 41  1  0  0  0  0
 42 43  2  0  0  0  0
 43 44  1  0  0  0  0
M  CHG  2   3  -1   4  -1
M  END
>  <CHROM.1>
-137.89972383,70.72014421,18.31970200,39.16357654,-25.42306945,-0.00306670
-0.33748118,2.65084000

>  <Name>
ligand

>  <RI>
0

>  <Rbt.Current_Directory>
/home/itssahil/PROJECTS/Mol_Feturizer/New_Systems/rnas/4QLM

>  <Rbt.Executable>
rbdock ($Id: //depot/dev/client3/rdock/2013.1/src/exe/rbdock.cxx#4 $)

>  <Rbt.Library>
libRbt.so (2013.1, Build901 2013/11/27)

>  <Rbt.Parameter_File>
/export/apps/rDock/src/rDock_2013.1_src/data/scripts/dock_solv.prm

>  <Rbt.Receptor>
prm/blind_docking_100.prm

>  <SCORE>
87.4762

>  <SCORE.INTER>
76.9481

>  <SCORE.INTER.CONST>
1

>  <SCORE.INTER.POLAR>
0

>  <SCORE.INTER.ROT>
2

>  <SCORE.INTER.SOLV>
43.1784

>  <SCORE.INTER.VDW>
31.9726

>  <SCORE.INTER.norm>
1.74882

>  <SCORE.INTRA>
-0.817225

>  <SCORE.INTRA.DIHEDRAL>
-0.00285459

>  <SCORE.INTRA.DIHEDRAL.0>
2.32994

>  <SCORE.INTRA.POLAR>
0

>  <SCORE.INTRA.POLAR.0>
0

>  <SCORE.INTRA.REPUL>
0

>  <SCORE.INTRA.REPUL.0>
0

>  <SCORE.INTRA.SOLV>
0.49985

>  <SCORE.INTRA.SOLV.lig_0>
-117.703

>  <SCORE.INTRA.VDW>
-1.06572

>  <SCORE.INTRA.VDW.0>
-1.59997

>  <SCORE.INTRA.norm>
-0.0185733

>  <SCORE.RESTR>
11.3454

>  <SCORE.RESTR.CAVITY>
11.3454

>  <SCORE.RESTR.norm>
0.25785

>  <SCORE.SYSTEM>
0

>  <SCORE.SYSTEM.CONST>
0

>  <SCORE.SYSTEM.DIHEDRAL>
0

>  <SCORE.SYSTEM.SOLV>
0

>  <SCORE.SYSTEM.norm>
0

>  <SCORE.heavy>
44

>  <SCORE.norm>
1.9881

>  <RMSD>
28.073

$$$$
ligand
 OpenBabel11021811513D
libRbt.so/2013.1/901 2013/11/27
 44 50  0  0  0  0  0  0  0  0999 V2000
   13.2851   23.0764   -4.3353 P   0  0  2  0  0  0  0  0  0  0  0  0
   16.3808   23.6080    0.0624 P   0  0  1  0  0  0  0  0  0  0  0  0
   13.1716   21.8313   -5.2112 O   0  5  0  0  0  0  0  0  0  0  0  0
   16.9969   24.9803   -0.0609 O   0  5  0  0  0  0  0  0  0  0  0  0
   12.9395   24.2470   -5.2239 O   0  0  0  0  0  0  0  0  0  0  0  0
   16.6347   23.1166    1.5057 O   0  0  0  0  0  0  0  0  0  0  0  0
   15.3740   21.7911   -3.6829 C   0  0  0  0  0  0  0  0  0  0  0  0
   14.0911   22.5488   -0.4884 C   0  0  0  0  0  0  0  0  0  0  0  0
   14.7630   23.0804   -3.8269 O   0  0  0  0  0  0  0  0  0  0  0  0
   14.8247   23.8047   -0.4323 O   0  0  0  0  0  0  0  0  0  0  0  0
   16.8216   21.9437   -3.2283 C   0  0  1  0  0  0  0  0  0  0  0  0
   12.6017   22.9245   -0.8381 C   0  0  1  0  0  0  0  0  0  0  0  0
   17.5567   22.1401   -4.2788 O   0  0  0  0  0  0  0  0  0  0  0  0
   12.2787   23.8223    0.0007 O   0  0  0  0  0  0  0  0  0  0  0  0
   17.0390   23.1313   -2.3192 C   0  0  1  0  0  0  0  0  0  0  0  0
   12.5233   23.6762   -2.1819 C   0  0  1  0  0  0  0  0  0  0  0  0
   17.0745   22.6474   -1.0492 O   0  0  0  0  0  0  0  0  0  0  0  0
   12.1217   22.8680   -3.1705 O   0  0  0  0  0  0  0  0  0  0  0  0
   18.4535   23.6629   -2.7393 C   0  0  1  0  0  0  0  0  0  0  0  0
   11.5372   24.8500   -1.9840 C   0  0  1  0  0  0  0  0  0  0  0  0
   19.4787   23.2193   -1.7566 O   0  0  0  0  0  0  0  0  0  0  0  0
   10.2069   24.5259   -2.5926 O   0  0  0  0  0  0  0  0  0  0  0  0
   18.6970   23.1799   -3.9154 C   0  0  2  0  0  0  0  0  0  0  0  0
   11.4108   24.9660   -0.7066 C   0  0  2  0  0  0  0  0  0  0  0  0
   20.2729   25.4778   -8.5043 N   0  0  0  0  0  0  0  0  0  0  0  0
   20.6131   24.2269   -8.0841 C   0  0  0  0  0  0  0  0  0  0  0  0
   20.1550   23.7293   -6.8908 N   0  0  0  0  0  0  0  0  0  0  0  0
   19.3449   24.5102   -6.1135 C   0  0  0  0  0  0  0  0  0  0  0  0
   19.0075   25.7453   -6.5099 C   0  0  0  0  0  0  0  0  0  0  0  0
   19.4697   26.2397   -7.7284 C   0  0  0  0  0  0  0  0  0  0  0  0
   19.1896   27.5148   -8.2581 N   0  0  0  0  0  0  0  0  0  0  0  0
   18.2070   26.2794   -5.5633 N   0  0  0  0  0  0  0  0  0  0  0  0
   18.0599   25.3570   -4.5699 C   0  0  0  0  0  0  0  0  0  0  0  0
   18.7461   24.2597   -4.9149 N   0  0  0  0  0  0  0  0  0  0  0  0
   15.3397   28.2960    0.0647 N   0  0  0  0  0  0  0  0  0  0  0  0
   15.4180   27.0593   -0.4930 C   0  0  0  0  0  0  0  0  0  0  0  0
   14.2870   26.3027   -0.6179 N   0  0  0  0  0  0  0  0  0  0  0  0
   13.0888   26.7860   -0.1921 C   0  0  0  0  0  0  0  0  0  0  0  0
   13.0029   28.0140    0.3580 C   0  0  0  0  0  0  0  0  0  0  0  0
   14.1604   28.7764    0.4851 C   0  0  0  0  0  0  0  0  0  0  0  0
   14.3043   30.0922    1.0534 N   0  0  0  0  0  0  0  0  0  0  0  0
   11.7047   28.2215    0.6847 N   0  0  0  0  0  0  0  0  0  0  0  0
   10.9919   27.1153    0.3269 C   0  0  0  0  0  0  0  0  0  0  0  0
   11.8561   26.2348   -0.2170 N   0  0  0  0  0  0  0  0  0  0  0  0
  1  3  1  6  0  0  0
  1  5  2  0  0  0  0
  1  9  1  0  0  0  0
  1 18  1  0  0  0  0
  2  4  1  6  0  0  0
  2  6  2  0  0  0  0
  2 10  1  0  0  0  0
  2 17  1  0  0  0  0
  7  9  1  0  0  0  0
  8 10  1  0  0  0  0
 11  7  1  6  0  0  0
 11 13  1  0  0  0  0
 11 15  1  0  0  0  0
 12  8  1  1  0  0  0
 12 14  1  0  0  0  0
 12 16  1  0  0  0  0
 13 23  1  0  0  0  0
 14 24  1  0  0  0  0
 15 17  1  1  0  0  0
 15 19  1  0  0  0  0
 16 18  1  6  0  0  0
 16 20  1  0  0  0  0
 19 21  1  1  0  0  0
 19 23  1  0  0  0  0
 20 22  1  6  0  0  0
 20 24  1  0  0  0  0
 23 34  1  6  0  0  0
 24 44  1  1  0  0  0
 25 26  2  0  0  0  0
 25 30  1  0  0  0  0
 26 27  1  0  0  0  0
 27 28  2  0  0  0  0
 28 29  1  0  0  0  0
 28 34  1  0  0  0  0
 29 30  2  0  0  0  0
 29 32  1  0  0  0  0
 30 31  1  0  0  0  0
 32 33  2  0  0  0  0
 33 34  1  0  0  0  0
 35 36  2  0  0  0  0
 35 40  1  0  0  0  0
 36 37  1  0  0  0  0
 37 38  2  0  0  0  0
 38 39  1  0  0  0  0
 38 44  1  0  0  0  0
 39 40  2  0  0  0  0
 39 42  1  0  0  0  0
 40 41  1  0  0  0  0
 42 43  2  0  0  0  0
 43 44  1  0  0  0  0
M  CHG  2   3  -1   4  -1
M  END
>  <CHROM.1>
-87.62729980,54.69258837,15.45485910,24.60780531,-2.62517159,2.53942983,0.49438722
0.75565905

>  <Name>
ligand

>  <RI>
0

>  <Rbt.Current_Directory>
/home/itssahil/PROJECTS/Mol_Feturizer/New_Systems/rnas/4QLM

>  <Rbt.Executable>
rbdock ($Id: //depot/dev/client3/rdock/2013.1/src/exe/rbdock.cxx#4 $)

>  <Rbt.Library>
libRbt.so (2013.1, Build901 2013/11/27)

>  <Rbt.Parameter_File>
/export/apps/rDock/src/rDock_2013.1_src/data/scripts/dock_solv.prm

>  <Rbt.Receptor>
prm/blind_docking_100.prm

>  <SCORE>
74.1562

>  <SCORE.INTER>
57.9786

>  <SCORE.INTER.CONST>
1

>  <SCORE.INTER.POLAR>
0

>  <SCORE.INTER.ROT>
2

>  <SCORE.INTER.SOLV>
47.8161

>  <SCORE.INTER.VDW>
17.7804

>  <SCORE.INTER.norm>
1.3177

>  <SCORE.INTRA>
3.26521

>  <SCORE.INTRA.DIHEDRAL>
0.169301

>  <SCORE.INTRA.DIHEDRAL.0>
2.32994

>  <SCORE.INTRA.POLAR>
0

>  <SCORE.INTRA.POLAR.0>
0

>  <SCORE.INTRA.REPUL>
0

>  <SCORE.INTRA.REPUL.0>
0

>  <SCORE.INTRA.SOLV>
1.20631

>  <SCORE.INTRA.SOLV.lig_0>
-117.703

>  <SCORE.INTRA.VDW>
2.57741

>  <SCORE.INTRA.VDW.0>
-1.59997

>  <SCORE.INTRA.norm>
0.0742094

>  <SCORE.RESTR>
12.9123

>  <SCORE.RESTR.CAVITY>
12.9123

>  <SCORE.RESTR.norm>
0.293462

>  <SCORE.SYSTEM>
0

>  <SCORE.SYSTEM.CONST>
0

>  <SCORE.SYSTEM.DIHEDRAL>
0

>  <SCORE.SYSTEM.SOLV>
0

>  <SCORE.SYSTEM.norm>
0

>  <SCORE.heavy>
44

>  <SCORE.norm>
1.68537

>  <RMSD>
28.082

$$$$
ligand
 OpenBabel11021811513D
libRbt.so/2013.1/901 2013/11/27
 44 50  0  0  0  0  0  0  0  0999 V2000
   13.3700   23.1845   -4.3298 P   0  0  2  0  0  0  0  0  0  0  0  0
   16.4080   23.6176    0.1187 P   0  0  1  0  0  0  0  0  0  0  0  0
   13.1568   21.9177   -5.1545 O   0  5  0  0  0  0  0  0  0  0  0  0
   17.1549   24.9186   -0.0472 O   0  5  0  0  0  0  0  0  0  0  0  0
   13.1569   24.3415   -5.2761 O   0  0  0  0  0  0  0  0  0  0  0  0
   16.5829   23.1696    1.5876 O   0  0  0  0  0  0  0  0  0  0  0  0
   15.3121   21.7380   -3.5703 C   0  0  0  0  0  0  0  0  0  0  0  0
   14.0397   22.7560   -0.4446 C   0  0  0  0  0  0  0  0  0  0  0  0
   14.8304   23.0715   -3.7846 O   0  0  0  0  0  0  0  0  0  0  0  0
   14.8887   23.9382   -0.4234 O   0  0  0  0  0  0  0  0  0  0  0  0
   16.7577   21.7732   -3.0858 C   0  0  1  0  0  0  0  0  0  0  0  0
   12.6009   23.2548   -0.8479 C   0  0  1  0  0  0  0  0  0  0  0  0
   17.5303   21.8520   -4.1247 O   0  0  0  0  0  0  0  0  0  0  0  0
   12.3474   24.2159   -0.0566 O   0  0  0  0  0  0  0  0  0  0  0  0
   17.0681   22.9745   -2.2229 C   0  0  1  0  0  0  0  0  0  0  0  0
   12.6233   23.9496   -2.2240 C   0  0  1  0  0  0  0  0  0  0  0  0
   17.0302   22.5469   -0.9329 O   0  0  0  0  0  0  0  0  0  0  0  0
   12.1675   23.1395   -3.1872 O   0  0  0  0  0  0  0  0  0  0  0  0
   18.5357   23.3505   -2.6291 C   0  0  1  0  0  0  0  0  0  0  0  0
   11.7499   25.2190   -2.1015 C   0  0  1  0  0  0  0  0  0  0  0  0
   19.4925   22.8566   -1.6026 O   0  0  0  0  0  0  0  0  0  0  0  0
   10.4080   24.9952   -2.7295 O   0  0  0  0  0  0  0  0  0  0  0  0
   18.7568   22.7945   -3.7770 C   0  0  2  0  0  0  0  0  0  0  0  0
   11.6081   25.4036   -0.8339 C   0  0  2  0  0  0  0  0  0  0  0  0
   17.2609   27.0316   -6.7149 N   0  0  0  0  0  0  0  0  0  0  0  0
   16.5397   26.4714   -5.7033 C   0  0  0  0  0  0  0  0  0  0  0  0
   17.0128   25.3865   -5.0100 N   0  0  0  0  0  0  0  0  0  0  0  0
   18.2297   24.8621   -5.3480 C   0  0  0  0  0  0  0  0  0  0  0  0
   18.9473   25.3976   -6.3454 C   0  0  0  0  0  0  0  0  0  0  0  0
   18.4636   26.5058   -7.0385 C   0  0  0  0  0  0  0  0  0  0  0  0
   19.1166   27.1603   -8.1017 N   0  0  0  0  0  0  0  0  0  0  0  0
   20.0926   24.6918   -6.4562 N   0  0  0  0  0  0  0  0  0  0  0  0
   20.0693   23.7051   -5.5154 C   0  0  0  0  0  0  0  0  0  0  0  0
   18.9302   23.8188   -4.8200 N   0  0  0  0  0  0  0  0  0  0  0  0
   15.8289   28.3421   -0.0154 N   0  0  0  0  0  0  0  0  0  0  0  0
   15.8017   27.0733   -0.5009 C   0  0  0  0  0  0  0  0  0  0  0  0
   14.6035   26.4336   -0.6505 N   0  0  0  0  0  0  0  0  0  0  0  0
   13.4442   27.0644   -0.3209 C   0  0  0  0  0  0  0  0  0  0  0  0
   13.4632   28.3251    0.1572 C   0  0  0  0  0  0  0  0  0  0  0  0
   14.6883   28.9677    0.3101 C   0  0  0  0  0  0  0  0  0  0  0  0
   14.9441   30.2924    0.8150 N   0  0  0  0  0  0  0  0  0  0  0  0
   12.1800   28.6868    0.3969 N   0  0  0  0  0  0  0  0  0  0  0  0
   11.3711   27.6424    0.0579 C   0  0  0  0  0  0  0  0  0  0  0  0
   12.1621   26.6454   -0.3876 N   0  0  0  0  0  0  0  0  0  0  0  0
  1  3  1  6  0  0  0
  1  5  2  0  0  0  0
  1  9  1  0  0  0  0
  1 18  1  0  0  0  0
  2  4  1  6  0  0  0
  2  6  2  0  0  0  0
  2 10  1  0  0  0  0
  2 17  1  0  0  0  0
  7  9  1  0  0  0  0
  8 10  1  0  0  0  0
 11  7  1  6  0  0  0
 11 13  1  0  0  0  0
 11 15  1  0  0  0  0
 12  8  1  1  0  0  0
 12 14  1  0  0  0  0
 12 16  1  0  0  0  0
 13 23  1  0  0  0  0
 14 24  1  0  0  0  0
 15 17  1  1  0  0  0
 15 19  1  0  0  0  0
 16 18  1  6  0  0  0
 16 20  1  0  0  0  0
 19 21  1  1  0  0  0
 19 23  1  0  0  0  0
 20 22  1  6  0  0  0
 20 24  1  0  0  0  0
 23 34  1  6  0  0  0
 24 44  1  1  0  0  0
 25 26  2  0  0  0  0
 25 30  1  0  0  0  0
 26 27  1  0  0  0  0
 27 28  2  0  0  0  0
 28 29  1  0  0  0  0
 28 34  1  0  0  0  0
 29 30  2  0  0  0  0
 29 32  1  0  0  0  0
 30 31  1  0  0  0  0
 32 33  2  0  0  0  0
 33 34  1  0  0  0  0
 35 36  2  0  0  0  0
 35 40  1  0  0  0  0
 36 37  1  0  0  0  0
 37 38  2  0  0  0  0
 38 39  1  0  0  0  0
 38 44  1  0  0  0  0
 39 40  2  0  0  0  0
 39 42  1  0  0  0  0
 40 41  1  0  0  0  0
 42 43  2  0  0  0  0
 43 44  1  0  0  0  0
M  CHG  2   3  -1   4  -1
M  END
>  <CHROM.1>
62.45191879,52.64186757,15.40589532,24.72707147,-2.51560225,0.59303367,-0.53536216
-2.59346080

>  <Name>
ligand

>  <RI>
0

>  <Rbt.Current_Directory>
/home/itssahil/PROJECTS/Mol_Feturizer/New_Systems/rnas/4QLM

>  <Rbt.Executable>
rbdock ($Id: //depot/dev/client3/rdock/2013.1/src/exe/rbdock.cxx#4 $)

>  <Rbt.Library>
libRbt.so (2013.1, Build901 2013/11/27)

>  <Rbt.Parameter_File>
/export/apps/rDock/src/rDock_2013.1_src/data/scripts/dock_solv.prm

>  <Rbt.Receptor>
prm/blind_docking_100.prm

>  <SCORE>
82.4386

>  <SCORE.INTER>
70.3358

>  <SCORE.INTER.CONST>
1

>  <SCORE.INTER.POLAR>
0

>  <SCORE.INTER.ROT>
2

>  <SCORE.INTER.SOLV>
47.0343

>  <SCORE.INTER.VDW>
26.2791

>  <SCORE.INTER.norm>
1.59854

>  <SCORE.INTRA>
-0.753261

>  <SCORE.INTRA.DIHEDRAL>
0.0434866

>  <SCORE.INTRA.DIHEDRAL.0>
2.32994

>  <SCORE.INTRA.POLAR>
0

>  <SCORE.INTRA.POLAR.0>
0

>  <SCORE.INTRA.REPUL>
0

>  <SCORE.INTRA.REPUL.0>
0

>  <SCORE.INTRA.SOLV>
1.3149

>  <SCORE.INTRA.SOLV.lig_0>
-117.703

>  <SCORE.INTRA.VDW>
-1.43246

>  <SCORE.INTRA.VDW.0>
-1.59997

>  <SCORE.INTRA.norm>
-0.0171196

>  <SCORE.RESTR>
12.8561

>  <SCORE.RESTR.CAVITY>
12.8561

>  <SCORE.RESTR.norm>
0.292184

>  <SCORE.SYSTEM>
0

>  <SCORE.SYSTEM.CONST>
0

>  <SCORE.SYSTEM.DIHEDRAL>
0

>  <SCORE.SYSTEM.SOLV>
0

>  <SCORE.SYSTEM.norm>
0

>  <SCORE.heavy>
44

>  <SCORE.norm>
1.8736

>  <RMSD>
28.085

$$$$
ligand
 OpenBabel11021811513D
libRbt.so/2013.1/901 2013/11/27
 44 50  0  0  0  0  0  0  0  0999 V2000
   19.1434   36.6413  -27.9517 P   0  0  2  0  0  0  0  0  0  0  0  0
   19.2817   37.5706  -22.6298 P   0  0  1  0  0  0  0  0  0  0  0  0
   20.2762   36.0598  -28.7938 O   0  5  0  0  0  0  0  0  0  0  0  0
   18.6298   38.9207  -22.4550 O   0  5  0  0  0  0  0  0  0  0  0  0
   18.3047   37.4716  -28.8934 O   0  0  0  0  0  0  0  0  0  0  0  0
   19.3912   36.9267  -21.2290 O   0  0  0  0  0  0  0  0  0  0  0  0
   21.1507   37.0022  -26.4411 C   0  0  0  0  0  0  0  0  0  0  0  0
   18.9146   35.5194  -24.1550 C   0  0  0  0  0  0  0  0  0  0  0  0
   19.8544   37.4722  -26.8352 O   0  0  0  0  0  0  0  0  0  0  0  0
   18.3684   36.8119  -23.7679 O   0  0  0  0  0  0  0  0  0  0  0  0
   21.7462   37.9273  -25.3852 C   0  0  1  0  0  0  0  0  0  0  0  0
   17.8624   34.8720  -25.1324 C   0  0  1  0  0  0  0  0  0  0  0  0
   22.3241   38.9162  -25.9938 O   0  0  0  0  0  0  0  0  0  0  0  0
   16.7509   34.9449  -24.5213 O   0  0  0  0  0  0  0  0  0  0  0  0
   20.7081   38.5306  -24.4673 C   0  0  1  0  0  0  0  0  0  0  0  0
   17.6281   35.7694  -26.3640 C   0  0  1  0  0  0  0  0  0  0  0  0
   20.7344   37.8030  -23.3191 O   0  0  0  0  0  0  0  0  0  0  0  0
   18.2928   35.3143  -27.4330 O   0  0  0  0  0  0  0  0  0  0  0  0
   21.2457   39.9806  -24.2057 C   0  0  1  0  0  0  0  0  0  0  0  0
   16.1041   35.7919  -26.6211 C   0  0  1  0  0  0  0  0  0  0  0  0
   21.8988   40.0504  -22.8708 O   0  0  0  0  0  0  0  0  0  0  0  0
   15.7515   34.8885  -27.7633 O   0  0  0  0  0  0  0  0  0  0  0  0
   22.0913   40.2389  -25.1513 C   0  0  2  0  0  0  0  0  0  0  0  0
   15.5773   35.3405  -25.5350 C   0  0  2  0  0  0  0  0  0  0  0  0
   20.5068   42.3838  -29.8107 N   0  0  0  0  0  0  0  0  0  0  0  0
   20.9119   41.0958  -29.6257 C   0  0  0  0  0  0  0  0  0  0  0  0
   21.2977   40.6432  -28.3897 N   0  0  0  0  0  0  0  0  0  0  0  0
   21.2749   41.5071  -27.3298 C   0  0  0  0  0  0  0  0  0  0  0  0
   20.8857   42.7787  -27.4975 C   0  0  0  0  0  0  0  0  0  0  0  0
   20.4863   43.2280  -28.7550 C   0  0  0  0  0  0  0  0  0  0  0  0
   20.0570   44.5339  -29.0637 N   0  0  0  0  0  0  0  0  0  0  0  0
   20.9560   43.3945  -26.2983 N   0  0  0  0  0  0  0  0  0  0  0  0
   21.4025   42.4849  -25.3859 C   0  0  0  0  0  0  0  0  0  0  0  0
   21.5830   41.3166  -26.0158 N   0  0  0  0  0  0  0  0  0  0  0  0
   14.9016   40.1885  -23.7573 N   0  0  0  0  0  0  0  0  0  0  0  0
   16.0140   39.6885  -24.3564 C   0  0  0  0  0  0  0  0  0  0  0  0
   16.0334   38.3836  -24.7617 N   0  0  0  0  0  0  0  0  0  0  0  0
   14.9443   37.5910  -24.5721 C   0  0  0  0  0  0  0  0  0  0  0  0
   13.8353   38.0816  -23.9825 C   0  0  0  0  0  0  0  0  0  0  0  0
   13.8256   39.4107  -23.5692 C   0  0  0  0  0  0  0  0  0  0  0  0
   12.7682   40.1317  -22.9079 N   0  0  0  0  0  0  0  0  0  0  0  0
   12.9281   37.0772  -23.9267 N   0  0  0  0  0  0  0  0  0  0  0  0
   13.4843   35.9672  -24.4909 C   0  0  0  0  0  0  0  0  0  0  0  0
   14.7297   36.2960  -24.8895 N   0  0  0  0  0  0  0  0  0  0  0  0
  1  3  1  6  0  0  0
  1  5  2  0  0  0  0
  1  9  1  0  0  0  0
  1 18  1  0  0  0  0
  2  4  1  1  0  0  0
  2  6  2  0  0  0  0
  2 10  1  0  0  0  0
  2 17  1  0  0  0  0
  7  9  1  0  0  0  0
  8 10  1  0  0  0  0
 11  7  1  6  0  0  0
 11 13  1  0  0  0  0
 11 15  1  0  0  0  0
 12  8  1  1  0  0  0
 12 14  1  0  0  0  0
 12 16  1  0  0  0  0
 13 23  1  0  0  0  0
 14 24  1  0  0  0  0
 15 17  1  1  0  0  0
 15 19  1  0  0  0  0
 16 18  1  6  0  0  0
 16 20  1  0  0  0  0
 19 21  1  1  0  0  0
 19 23  1  0  0  0  0
 20 22  1  6  0  0  0
 20 24  1  0  0  0  0
 23 34  1  6  0  0  0
 24 44  1  1  0  0  0
 25 26  2  0  0  0  0
 25 30  1  0  0  0  0
 26 27  1  0  0  0  0
 27 28  2  0  0  0  0
 28 29  1  0  0  0  0
 28 34  1  0  0  0  0
 29 30  2  0  0  0  0
 29 32  1  0  0  0  0
 30 31  1  0  0  0  0
 32 33  2  0  0  0  0
 33 34  1  0  0  0  0
 35 36  2  0  0  0  0
 35 40  1  0  0  0  0
 36 37  1  0  0  0  0
 37 38  2  0  0  0  0
 38 39  1  0  0  0  0
 38 44  1  0  0  0  0
 39 40  2  0  0  0  0
 39 42  1  0  0  0  0
 40 41  1  0  0  0  0
 42 43  2  0  0  0  0
 43 44  1  0  0  0  0
M  CHG  2   3  -1   4  -1
M  END
>  <CHROM.1>
-1.19700153,71.12549097,18.59944987,38.40253063,-25.58497839,-0.37643114
-0.66580675,-2.66268295

>  <Name>
ligand

>  <RI>
0

>  <Rbt.Current_Directory>
/home/itssahil/PROJECTS/Mol_Feturizer/New_Systems/rnas/4QLM

>  <Rbt.Executable>
rbdock ($Id: //depot/dev/client3/rdock/2013.1/src/exe/rbdock.cxx#4 $)

>  <Rbt.Library>
libRbt.so (2013.1, Build901 2013/11/27)

>  <Rbt.Parameter_File>
/export/apps/rDock/src/rDock_2013.1_src/data/scripts/dock_solv.prm

>  <Rbt.Receptor>
prm/blind_docking_100.prm

>  <SCORE>
78.7925

>  <SCORE.INTER>
66.1418

>  <SCORE.INTER.CONST>
1

>  <SCORE.INTER.POLAR>
0

>  <SCORE.INTER.ROT>
2

>  <SCORE.INTER.SOLV>
54.1662

>  <SCORE.INTER.VDW>
21.1058

>  <SCORE.INTER.norm>
1.50322

>  <SCORE.INTRA>
-0.699946

>  <SCORE.INTRA.DIHEDRAL>
0.0785339

>  <SCORE.INTRA.DIHEDRAL.0>
2.32994

>  <SCORE.INTRA.POLAR>
0

>  <SCORE.INTRA.POLAR.0>
0

>  <SCORE.INTRA.REPUL>
0

>  <SCORE.INTRA.REPUL.0>
0

>  <SCORE.INTRA.SOLV>
0.548053

>  <SCORE.INTRA.SOLV.lig_0>
-117.703

>  <SCORE.INTRA.VDW>
-1.01324

>  <SCORE.INTRA.VDW.0>
-1.59997

>  <SCORE.INTRA.norm>
-0.0159079

>  <SCORE.RESTR>
13.3506

>  <SCORE.RESTR.CAVITY>
13.3506

>  <SCORE.RESTR.norm>
0.303423

>  <SCORE.SYSTEM>
0

>  <SCORE.SYSTEM.CONST>
0

>  <SCORE.SYSTEM.DIHEDRAL>
0

>  <SCORE.SYSTEM.SOLV>
0

>  <SCORE.SYSTEM.norm>
0

>  <SCORE.heavy>
44

>  <SCORE.norm>
1.79074

>  <RMSD>
28.088

$$$$
ligand
 OpenBabel11021811513D
libRbt.so/2013.1/901 2013/11/27
 44 50  0  0  0  0  0  0  0  0999 V2000
   13.3725   23.1888   -4.3324 P   0  0  2  0  0  0  0  0  0  0  0  0
   16.4085   23.6168    0.1179 P   0  0  1  0  0  0  0  0  0  0  0  0
   13.1581   21.9225   -5.1576 O   0  5  0  0  0  0  0  0  0  0  0  0
   17.1572   24.9169   -0.0472 O   0  5  0  0  0  0  0  0  0  0  0  0
   13.1614   24.3464   -5.2785 O   0  0  0  0  0  0  0  0  0  0  0  0
   16.5821   23.1682    1.5868 O   0  0  0  0  0  0  0  0  0  0  0  0
   15.3124   21.7396   -3.5722 C   0  0  0  0  0  0  0  0  0  0  0  0
   14.0395   22.7584   -0.4470 C   0  0  0  0  0  0  0  0  0  0  0  0
   14.8325   23.0738   -3.7864 O   0  0  0  0  0  0  0  0  0  0  0  0
   14.8899   23.9395   -0.4250 O   0  0  0  0  0  0  0  0  0  0  0  0
   16.7577   21.7729   -3.0870 C   0  0  1  0  0  0  0  0  0  0  0  0
   12.6016   23.2591   -0.8509 C   0  0  1  0  0  0  0  0  0  0  0  0
   17.5311   21.8510   -4.1253 O   0  0  0  0  0  0  0  0  0  0  0  0
   12.3488   24.2203   -0.0595 O   0  0  0  0  0  0  0  0  0  0  0  0
   17.0692   22.9736   -2.2235 C   0  0  1  0  0  0  0  0  0  0  0  0
   12.6256   23.9543   -2.2269 C   0  0  1  0  0  0  0  0  0  0  0  0
   17.0300   22.5456   -0.9337 O   0  0  0  0  0  0  0  0  0  0  0  0
   12.1693   23.1450   -3.1906 O   0  0  0  0  0  0  0  0  0  0  0  0
   18.5374   23.3479   -2.6288 C   0  0  1  0  0  0  0  0  0  0  0  0
   11.7538   25.2248   -2.1045 C   0  0  1  0  0  0  0  0  0  0  0  0
   19.4931   22.8524   -1.6019 O   0  0  0  0  0  0  0  0  0  0  0  0
   10.4119   25.0028   -2.7333 O   0  0  0  0  0  0  0  0  0  0  0  0
   18.7585   22.7919   -3.7767 C   0  0  2  0  0  0  0  0  0  0  0  0
   11.6114   25.4092   -0.8369 C   0  0  2  0  0  0  0  0  0  0  0  0
   17.2646   27.0242   -6.7224 N   0  0  0  0  0  0  0  0  0  0  0  0
   16.5405   26.4626   -5.7137 C   0  0  0  0  0  0  0  0  0  0  0  0
   17.0133   25.3791   -5.0180 N   0  0  0  0  0  0  0  0  0  0  0  0
   18.2329   24.8576   -5.3507 C   0  0  0  0  0  0  0  0  0  0  0  0
   18.9534   25.3945   -6.3452 C   0  0  0  0  0  0  0  0  0  0  0  0
   18.4699   26.5013   -7.0408 C   0  0  0  0  0  0  0  0  0  0  0  0
   19.1258   27.1570   -8.1014 N   0  0  0  0  0  0  0  0  0  0  0  0
   20.1010   24.6915   -6.4509 N   0  0  0  0  0  0  0  0  0  0  0  0
   20.0761   23.7051   -5.5099 C   0  0  0  0  0  0  0  0  0  0  0  0
   18.9338   23.8163   -4.8193 N   0  0  0  0  0  0  0  0  0  0  0  0
   15.8379   28.3298    0.0159 N   0  0  0  0  0  0  0  0  0  0  0  0
   15.8095   27.0590   -0.4643 C   0  0  0  0  0  0  0  0  0  0  0  0
   14.6098   26.4248   -0.6245 N   0  0  0  0  0  0  0  0  0  0  0  0
   13.4501   27.0629   -0.3107 C   0  0  0  0  0  0  0  0  0  0  0  0
   13.4703   28.3256    0.1619 C   0  0  0  0  0  0  0  0  0  0  0  0
   14.6969   28.9627    0.3257 C   0  0  0  0  0  0  0  0  0  0  0  0
   14.9538   30.2883    0.8276 N   0  0  0  0  0  0  0  0  0  0  0  0
   12.1863   28.6949    0.3856 N   0  0  0  0  0  0  0  0  0  0  0  0
   11.3760   27.6531    0.0422 C   0  0  0  0  0  0  0  0  0  0  0  0
   12.1667   26.6501   -0.3900 N   0  0  0  0  0  0  0  0  0  0  0  0
  1  3  1  6  0  0  0
  1  5  2  0  0  0  0
  1  9  1  0  0  0  0
  1 18  1  0  0  0  0
  2  4  1  6  0  0  0
  2  6  2  0  0  0  0
  2 10  1  0  0  0  0
  2 17  1  0  0  0  0
  7  9  1  0  0  0  0
  8 10  1  0  0  0  0
 11  7  1  6  0  0  0
 11 13  1  0  0  0  0
 11 15  1  0  0  0  0
 12  8  1  1  0  0  0
 12 14  1  0  0  0  0
 12 16  1  0  0  0  0
 13 23  1  0  0  0  0
 14 24  1  0  0  0  0
 15 17  1  1  0  0  0
 15 19  1  0  0  0  0
 16 18  1  6  0  0  0
 16 20  1  0  0  0  0
 19 21  1  1  0  0  0
 19 23  1  0  0  0  0
 20 22  1  6  0  0  0
 20 24  1  0  0  0  0
 23 34  1  6  0  0  0
 24 44  1  1  0  0  0
 25 26  2  0  0  0  0
 25 30  1  0  0  0  0
 26 27  1  0  0  0  0
 27 28  2  0  0  0  0
 28 29  1  0  0  0  0
 28 34  1  0  0  0  0
 29 30  2  0  0  0  0
 29 32  1  0  0  0  0
 30 31  1  0  0  0  0
 32 33  2  0  0  0  0
 33 34  1  0  0  0  0
 35 36  2  0  0  0  0
 35 40  1  0  0  0  0
 36 37  1  0  0  0  0
 37 38  2  0  0  0  0
 38 39  1  0  0  0  0
 38 44  1  0  0  0  0
 39 40  2  0  0  0  0
 39 42  1  0  0  0  0
 40 41  1  0  0  0  0
 42 43  2  0  0  0  0
 43 44  1  0  0  0  0
M  CHG  2   3  -1   4  -1
M  END
>  <CHROM.1>
62.14926421,51.93785180,15.40920965,24.72685559,-2.51483253,0.60365906,-0.52526814
-2.57514444

>  <Name>
ligand

>  <RI>
0

>  <Rbt.Current_Directory>
/home/itssahil/PROJECTS/Mol_Feturizer/New_Systems/rnas/4QLM

>  <Rbt.Executable>
rbdock ($Id: //depot/dev/client3/rdock/2013.1/src/exe/rbdock.cxx#4 $)

>  <Rbt.Library>
libRbt.so (2013.1, Build901 2013/11/27)

>  <Rbt.Parameter_File>
/export/apps/rDock/src/rDock_2013.1_src/data/scripts/dock_solv.prm

>  <Rbt.Receptor>
prm/blind_docking_100.prm

>  <SCORE>
82.4014

>  <SCORE.INTER>
70.1225

>  <SCORE.INTER.CONST>
1

>  <SCORE.INTER.POLAR>
0

>  <SCORE.INTER.ROT>
2

>  <SCORE.INTER.SOLV>
47.0215

>  <SCORE.INTER.VDW>
26.1411

>  <SCORE.INTER.norm>
1.59369

>  <SCORE.INTRA>
-0.577661

>  <SCORE.INTRA.DIHEDRAL>
0.0447424

>  <SCORE.INTRA.DIHEDRAL.0>
2.32994

>  <SCORE.INTRA.POLAR>
0

>  <SCORE.INTRA.POLAR.0>
0

>  <SCORE.INTRA.REPUL>
0

>  <SCORE.INTRA.REPUL.0>
0

>  <SCORE.INTRA.SOLV>
1.34104

>  <SCORE.INTRA.SOLV.lig_0>
-117.703

>  <SCORE.INTRA.VDW>
-1.27055

>  <SCORE.INTRA.VDW.0>
-1.59997

>  <SCORE.INTRA.norm>
-0.0131287

>  <SCORE.RESTR>
12.8566

>  <SCORE.RESTR.CAVITY>
12.8566

>  <SCORE.RESTR.norm>
0.292197

>  <SCORE.SYSTEM>
0

>  <SCORE.SYSTEM.CONST>
0

>  <SCORE.SYSTEM.DIHEDRAL>
0

>  <SCORE.SYSTEM.SOLV>
0

>  <SCORE.SYSTEM.norm>
0

>  <SCORE.heavy>
44

>  <SCORE.norm>
1.87276

>  <RMSD>
28.089

$$$$
ligand
 OpenBabel11021811513D
libRbt.so/2013.1/901 2013/11/27
 44 50  0  0  0  0  0  0  0  0999 V2000
   19.4157   37.5927  -22.9237 P   0  0  2  0  0  0  0  0  0  0  0  0
   18.1356   37.8146  -28.1694 P   0  0  1  0  0  0  0  0  0  0  0  0
   18.9408   36.5403  -21.9249 O   0  5  0  0  0  0  0  0  0  0  0  0
   17.8554   39.2731  -28.4386 O   0  5  0  0  0  0  0  0  0  0  0  0
   19.7197   38.8309  -22.1151 O   0  0  0  0  0  0  0  0  0  0  0  0
   18.2561   37.1079  -29.5387 O   0  0  0  0  0  0  0  0  0  0  0  0
   17.4112   36.6035  -24.1258 C   0  0  0  0  0  0  0  0  0  0  0  0
   19.8033   36.4866  -26.7122 C   0  0  0  0  0  0  0  0  0  0  0  0
   18.2284   37.7647  -23.9254 O   0  0  0  0  0  0  0  0  0  0  0  0
   19.4463   37.8193  -27.1759 O   0  0  0  0  0  0  0  0  0  0  0  0
   16.2694   36.9238  -25.0845 C   0  0  1  0  0  0  0  0  0  0  0  0
   21.1422   36.6481  -25.8981 C   0  0  1  0  0  0  0  0  0  0  0  0
   15.3012   37.4485  -24.3990 O   0  0  0  0  0  0  0  0  0  0  0  0
   21.9227   37.2939  -26.6647 O   0  0  0  0  0  0  0  0  0  0  0  0
   16.6463   37.9330  -26.1445 C   0  0  1  0  0  0  0  0  0  0  0  0
   20.9548   37.6183  -24.7146 C   0  0  1  0  0  0  0  0  0  0  0  0
   16.9122   37.2277  -27.2759 O   0  0  0  0  0  0  0  0  0  0  0  0
   20.8104   36.9572  -23.5596 O   0  0  0  0  0  0  0  0  0  0  0  0
   15.3398   38.7817  -26.3262 C   0  0  1  0  0  0  0  0  0  0  0  0
   22.1993   38.5345  -24.6824 C   0  0  1  0  0  0  0  0  0  0  0  0
   14.6157   38.3490  -27.5517 O   0  0  0  0  0  0  0  0  0  0  0  0
   23.1432   38.0996  -23.6030 O   0  0  0  0  0  0  0  0  0  0  0  0
   14.6206   38.5868  -25.2677 C   0  0  2  0  0  0  0  0  0  0  0  0
   22.7576   38.3772  -25.8333 C   0  0  2  0  0  0  0  0  0  0  0  0
   13.0794   41.5576  -21.0701 N   0  0  0  0  0  0  0  0  0  0  0  0
   12.8674   40.2195  -21.2173 C   0  0  0  0  0  0  0  0  0  0  0  0
   13.3038   39.5496  -22.3318 N   0  0  0  0  0  0  0  0  0  0  0  0
   13.9604   40.2450  -23.3094 C   0  0  0  0  0  0  0  0  0  0  0  0
   14.1700   41.5627  -23.1822 C   0  0  0  0  0  0  0  0  0  0  0  0
   13.7316   42.2340  -22.0421 C   0  0  0  0  0  0  0  0  0  0  0  0
   13.8883   43.6107  -21.7869 N   0  0  0  0  0  0  0  0  0  0  0  0
   14.8361   41.9834  -24.2784 N   0  0  0  0  0  0  0  0  0  0  0  0
   15.0292   40.9053  -25.0906 C   0  0  0  0  0  0  0  0  0  0  0  0
   14.5057   39.8299  -24.4876 N   0  0  0  0  0  0  0  0  0  0  0  0
   20.2063   42.3480  -28.0342 N   0  0  0  0  0  0  0  0  0  0  0  0
   19.6613   41.3138  -27.3415 C   0  0  0  0  0  0  0  0  0  0  0  0
   20.4740   40.3416  -26.8300 N   0  0  0  0  0  0  0  0  0  0  0  0
   21.8209   40.4108  -27.0079 C   0  0  0  0  0  0  0  0  0  0  0  0
   22.3690   41.4365  -27.6902 C   0  0  0  0  0  0  0  0  0  0  0  0
   21.5336   42.4203  -28.2112 C   0  0  0  0  0  0  0  0  0  0  0  0
   21.8959   43.5827  -28.9811 N   0  0  0  0  0  0  0  0  0  0  0  0
   23.7093   41.2406  -27.7085 N   0  0  0  0  0  0  0  0  0  0  0  0
   23.9824   40.0906  -27.0281 C   0  0  0  0  0  0  0  0  0  0  0  0
   22.8085   39.5868  -26.5964 N   0  0  0  0  0  0  0  0  0  0  0  0
  1  3  1  1  0  0  0
  1  5  2  0  0  0  0
  1  9  1  0  0  0  0
  1 18  1  0  0  0  0
  2  4  1  6  0  0  0
  2  6  2  0  0  0  0
  2 10  1  0  0  0  0
  2 17  1  0  0  0  0
  7  9  1  0  0  0  0
  8 10  1  0  0  0  0
 11  7  1  1  0  0  0
 11 13  1  0  0  0  0
 11 15  1  0  0  0  0
 12  8  1  6  0  0  0
 12 14  1  0  0  0  0
 12 16  1  0  0  0  0
 13 23  1  0  0  0  0
 14 24  1  0  0  0  0
 15 17  1  6  0  0  0
 15 19  1  0  0  0  0
 16 18  1  1  0  0  0
 16 20  1  0  0  0  0
 19 21  1  6  0  0  0
 19 23  1  0  0  0  0
 20 22  1  1  0  0  0
 20 24  1  0  0  0  0
 23 34  1  1  0  0  0
 24 44  1  6  0  0  0
 25 26  2  0  0  0  0
 25 30  1  0  0  0  0
 26 27  1  0  0  0  0
 27 28  2  0  0  0  0
 28 29  1  0  0  0  0
 28 34  1  0  0  0  0
 29 30  2  0  0  0  0
 29 32  1  0  0  0  0
 30 31  1  0  0  0  0
 32 33  2  0  0  0  0
 33 34  1  0  0  0  0
 35 36  2  0  0  0  0
 35 40  1  0  0  0  0
 36 37  1  0  0  0  0
 37 38  2  0  0  0  0
 38 39  1  0  0  0  0
 38 44  1  0  0  0  0
 39 40  2  0  0  0  0
 39 42  1  0  0  0  0
 40 41  1  0  0  0  0
 42 43  2  0  0  0  0
 43 44  1  0  0  0  0
M  CHG  2   3  -1   4  -1
M  END
>  <CHROM.1>
-56.51306612,62.59115934,18.40244538,39.11695346,-25.38798499,-2.91443238
0.39653594,-0.75500485

>  <Name>
ligand

>  <RI>
0

>  <Rbt.Current_Directory>
/home/itssahil/PROJECTS/Mol_Feturizer/New_Systems/rnas/4QLM

>  <Rbt.Executable>
rbdock ($Id: //depot/dev/client3/rdock/2013.1/src/exe/rbdock.cxx#4 $)

>  <Rbt.Library>
libRbt.so (2013.1, Build901 2013/11/27)

>  <Rbt.Parameter_File>
/export/apps/rDock/src/rDock_2013.1_src/data/scripts/dock_solv.prm

>  <Rbt.Receptor>
prm/blind_docking_100.prm

>  <SCORE>
92.8621

>  <SCORE.INTER>
78.4909

>  <SCORE.INTER.CONST>
1

>  <SCORE.INTER.POLAR>
0

>  <SCORE.INTER.ROT>
2

>  <SCORE.INTER.SOLV>
43.3058

>  <SCORE.INTER.VDW>
32.9586

>  <SCORE.INTER.norm>
1.78388

>  <SCORE.INTRA>
3.81841

>  <SCORE.INTRA.DIHEDRAL>
0.0435292

>  <SCORE.INTRA.DIHEDRAL.0>
2.32994

>  <SCORE.INTRA.POLAR>
0

>  <SCORE.INTRA.POLAR.0>
0

>  <SCORE.INTRA.REPUL>
0

>  <SCORE.INTRA.REPUL.0>
0

>  <SCORE.INTRA.SOLV>
0.93086

>  <SCORE.INTRA.SOLV.lig_0>
-117.703

>  <SCORE.INTRA.VDW>
3.33121

>  <SCORE.INTRA.VDW.0>
-1.59997

>  <SCORE.INTRA.norm>
0.086782

>  <SCORE.RESTR>
10.5528

>  <SCORE.RESTR.CAVITY>
10.5528

>  <SCORE.RESTR.norm>
0.239837

>  <SCORE.SYSTEM>
0

>  <SCORE.SYSTEM.CONST>
0

>  <SCORE.SYSTEM.DIHEDRAL>
0

>  <SCORE.SYSTEM.SOLV>
0

>  <SCORE.SYSTEM.norm>
0

>  <SCORE.heavy>
44

>  <SCORE.norm>
2.1105

>  <RMSD>
28.102

$$$$
ligand
 OpenBabel11021811513D
libRbt.so/2013.1/901 2013/11/27
 44 50  0  0  0  0  0  0  0  0999 V2000
   18.0240   37.3442  -27.9299 P   0  0  2  0  0  0  0  0  0  0  0  0
   19.4683   37.6776  -22.7329 P   0  0  1  0  0  0  0  0  0  0  0  0
   18.4991   36.2940  -28.9307 O   0  5  0  0  0  0  0  0  0  0  0  0
   19.7104   39.1476  -22.4914 O   0  5  0  0  0  0  0  0  0  0  0  0
   17.6538   38.5611  -28.7432 O   0  0  0  0  0  0  0  0  0  0  0  0
   19.4157   36.9860  -21.3516 O   0  0  0  0  0  0  0  0  0  0  0  0
   20.0976   36.4354  -26.7830 C   0  0  0  0  0  0  0  0  0  0  0  0
   17.7970   36.2778  -24.1170 C   0  0  0  0  0  0  0  0  0  0  0  0
   19.2374   37.5673  -26.9705 O   0  0  0  0  0  0  0  0  0  0  0  0
   18.1262   37.6273  -23.6821 O   0  0  0  0  0  0  0  0  0  0  0  0
   21.2596   36.8046  -25.8670 C   0  0  1  0  0  0  0  0  0  0  0  0
   16.4275   36.3858  -24.8880 C   0  0  1  0  0  0  0  0  0  0  0  0
   22.1873   37.3503  -26.5909 O   0  0  0  0  0  0  0  0  0  0  0  0
   15.6524   37.0169  -24.1038 O   0  0  0  0  0  0  0  0  0  0  0  0
   20.8856   37.8156  -24.8077 C   0  0  1  0  0  0  0  0  0  0  0  0
   16.5446   37.3454  -26.0890 C   0  0  1  0  0  0  0  0  0  0  0  0
   20.6798   37.1176  -23.6593 O   0  0  0  0  0  0  0  0  0  0  0  0
   16.6720   36.6736  -27.2398 O   0  0  0  0  0  0  0  0  0  0  0  0
   22.1694   38.7076  -24.6803 C   0  0  1  0  0  0  0  0  0  0  0  0
   15.2709   38.2212  -26.0911 C   0  0  1  0  0  0  0  0  0  0  0  0
   22.9470   38.3147  -23.4743 O   0  0  0  0  0  0  0  0  0  0  0  0
   14.3064   37.7421  -27.1330 O   0  0  0  0  0  0  0  0  0  0  0  0
   22.8592   38.5212  -25.7596 C   0  0  2  0  0  0  0  0  0  0  0  0
   14.7562   38.0618  -24.9203 C   0  0  2  0  0  0  0  0  0  0  0  0
   20.7314   42.7253  -28.3324 N   0  0  0  0  0  0  0  0  0  0  0  0
   20.0340   41.7819  -27.6390 C   0  0  0  0  0  0  0  0  0  0  0  0
   20.6743   40.7429  -27.0128 N   0  0  0  0  0  0  0  0  0  0  0  0
   22.0369   40.6582  -27.0930 C   0  0  0  0  0  0  0  0  0  0  0  0
   22.7358   41.5745  -27.7773 C   0  0  0  0  0  0  0  0  0  0  0  0
   22.0782   42.6324  -28.4028 C   0  0  0  0  0  0  0  0  0  0  0  0
   22.6930   43.6568  -29.1494 N   0  0  0  0  0  0  0  0  0  0  0  0
   24.0431   41.2506  -27.6861 N   0  0  0  0  0  0  0  0  0  0  0  0
   24.1419   40.1138  -26.9397 C   0  0  0  0  0  0  0  0  0  0  0  0
   22.9084   39.7567  -26.5586 N   0  0  0  0  0  0  0  0  0  0  0  0
   11.9251   42.1007  -23.2494 N   0  0  0  0  0  0  0  0  0  0  0  0
   11.5012   41.0814  -24.0417 C   0  0  0  0  0  0  0  0  0  0  0  0
   12.3771   40.0952  -24.3988 N   0  0  0  0  0  0  0  0  0  0  0  0
   13.6642   40.1300  -23.9597 C   0  0  0  0  0  0  0  0  0  0  0  0
   14.0906   41.1360  -23.1696 C   0  0  0  0  0  0  0  0  0  0  0  0
   13.1928   42.1384  -22.8139 C   0  0  0  0  0  0  0  0  0  0  0  0
   13.4330   43.3050  -22.0037 N   0  0  0  0  0  0  0  0  0  0  0  0
   15.3980   40.9100  -22.8962 N   0  0  0  0  0  0  0  0  0  0  0  0
   15.7714   39.7556  -23.5189 C   0  0  0  0  0  0  0  0  0  0  0  0
   14.6917   39.2794  -24.1712 N   0  0  0  0  0  0  0  0  0  0  0  0
  1  3  1  6  0  0  0
  1  5  2  0  0  0  0
  1  9  1  0  0  0  0
  1 18  1  0  0  0  0
  2  4  1  1  0  0  0
  2  6  2  0  0  0  0
  2 10  1  0  0  0  0
  2 17  1  0  0  0  0
  7  9  1  0  0  0  0
  8 10  1  0  0  0  0
 11  7  1  6  0  0  0
 11 13  1  0  0  0  0
 11 15  1  0  0  0  0
 12  8  1  1  0  0  0
 12 14  1  0  0  0  0
 12 16  1  0  0  0  0
 13 23  1  0  0  0  0
 14 24  1  0  0  0  0
 15 17  1  1  0  0  0
 15 19  1  0  0  0  0
 16 18  1  6  0  0  0
 16 20  1  0  0  0  0
 19 21  1  1  0  0  0
 19 23  1  0  0  0  0
 20 22  1  6  0  0  0
 20 24  1  0  0  0  0
 23 34  1  6  0  0  0
 24 44  1  1  0  0  0
 25 26  2  0  0  0  0
 25 30  1  0  0  0  0
 26 27  1  0  0  0  0
 27 28  2  0  0  0  0
 28 29  1  0  0  0  0
 28 34  1  0  0  0  0
 29 30  2  0  0  0  0
 29 32  1  0  0  0  0
 30 31  1  0  0  0  0
 32 33  2  0  0  0  0
 33 34  1  0  0  0  0
 35 36  2  0  0  0  0
 35 40  1  0  0  0  0
 36 37  1  0  0  0  0
 37 38  2  0  0  0  0
 38 39  1  0  0  0  0
 38 44  1  0  0  0  0
 39 40  2  0  0  0  0
 39 42  1  0  0  0  0
 40 41  1  0  0  0  0
 42 43  2  0  0  0  0
 43 44  1  0  0  0  0
M  CHG  2   3  -1   4  -1
M  END
>  <CHROM.1>
66.47127627,-140.16142642,18.42356253,39.00918849,-25.43981711,-0.09314718
-0.32361167,2.76644256

>  <Name>
ligand

>  <RI>
0

>  <Rbt.Current_Directory>
/home/itssahil/PROJECTS/Mol_Feturizer/New_Systems/rnas/4QLM

>  <Rbt.Executable>
rbdock ($Id: //depot/dev/client3/rdock/2013.1/src/exe/rbdock.cxx#4 $)

>  <Rbt.Library>
libRbt.so (2013.1, Build901 2013/11/27)

>  <Rbt.Parameter_File>
/export/apps/rDock/src/rDock_2013.1_src/data/scripts/dock_solv.prm

>  <Rbt.Receptor>
prm/blind_docking_100.prm

>  <SCORE>
94.5434

>  <SCORE.INTER>
85.8959

>  <SCORE.INTER.CONST>
1

>  <SCORE.INTER.POLAR>
0

>  <SCORE.INTER.ROT>
2

>  <SCORE.INTER.SOLV>
45.0168

>  <SCORE.INTER.VDW>
37.325

>  <SCORE.INTER.norm>
1.95218

>  <SCORE.INTRA>
-0.939603

>  <SCORE.INTRA.DIHEDRAL>
0.0363047

>  <SCORE.INTRA.DIHEDRAL.0>
2.32994

>  <SCORE.INTRA.POLAR>
0

>  <SCORE.INTRA.POLAR.0>
0

>  <SCORE.INTRA.REPUL>
0

>  <SCORE.INTRA.REPUL.0>
0

>  <SCORE.INTRA.SOLV>
-0.00355012

>  <SCORE.INTRA.SOLV.lig_0>
-117.703

>  <SCORE.INTRA.VDW>
-0.955981

>  <SCORE.INTRA.VDW.0>
-1.59997

>  <SCORE.INTRA.norm>
-0.0213546

>  <SCORE.RESTR>
9.58703

>  <SCORE.RESTR.CAVITY>
9.58703

>  <SCORE.RESTR.norm>
0.217887

>  <SCORE.SYSTEM>
0

>  <SCORE.SYSTEM.CONST>
0

>  <SCORE.SYSTEM.DIHEDRAL>
0

>  <SCORE.SYSTEM.SOLV>
0

>  <SCORE.SYSTEM.norm>
0

>  <SCORE.heavy>
44

>  <SCORE.norm>
2.14871

>  <RMSD>
28.131

$$$$
ligand
 OpenBabel11021811513D
libRbt.so/2013.1/901 2013/11/27
 44 50  0  0  0  0  0  0  0  0999 V2000
   17.9969   37.3451  -27.9228 P   0  0  2  0  0  0  0  0  0  0  0  0
   19.4722   37.6865  -22.7351 P   0  0  1  0  0  0  0  0  0  0  0  0
   18.4617   36.2899  -28.9234 O   0  5  0  0  0  0  0  0  0  0  0  0
   19.7221   39.1561  -22.4991 O   0  5  0  0  0  0  0  0  0  0  0  0
   17.6276   38.5614  -28.7375 O   0  0  0  0  0  0  0  0  0  0  0  0
   19.4244   36.9990  -21.3516 O   0  0  0  0  0  0  0  0  0  0  0  0
   20.0730   36.4302  -26.7851 C   0  0  0  0  0  0  0  0  0  0  0  0
   17.7869   36.2904  -24.1057 C   0  0  0  0  0  0  0  0  0  0  0  0
   19.2168   37.5654  -26.9710 O   0  0  0  0  0  0  0  0  0  0  0  0
   18.1245   37.6396  -23.6765 O   0  0  0  0  0  0  0  0  0  0  0  0
   21.2417   36.7968  -25.8768 C   0  0  1  0  0  0  0  0  0  0  0  0
   16.4135   36.4023  -24.8692 C   0  0  1  0  0  0  0  0  0  0  0  0
   22.1678   37.3363  -26.6074 O   0  0  0  0  0  0  0  0  0  0  0  0
   15.6457   37.0391  -24.0825 O   0  0  0  0  0  0  0  0  0  0  0  0
   20.8783   37.8124  -24.8182 C   0  0  1  0  0  0  0  0  0  0  0  0
   16.5280   37.3580  -26.0736 C   0  0  1  0  0  0  0  0  0  0  0  0
   20.6759   37.1185  -23.6667 O   0  0  0  0  0  0  0  0  0  0  0  0
   16.6460   36.6824  -27.2232 O   0  0  0  0  0  0  0  0  0  0  0  0
   22.1668   38.6991  -24.7005 C   0  0  1  0  0  0  0  0  0  0  0  0
   15.2583   38.2395  -26.0710 C   0  0  1  0  0  0  0  0  0  0  0  0
   22.9494   38.3060  -23.4979 O   0  0  0  0  0  0  0  0  0  0  0  0
   14.2858   37.7618  -27.1060 O   0  0  0  0  0  0  0  0  0  0  0  0
   22.8496   38.5066  -25.7833 C   0  0  2  0  0  0  0  0  0  0  0  0
   14.7496   38.0857  -24.8969 C   0  0  2  0  0  0  0  0  0  0  0  0
   20.7221   42.6132  -28.5092 N   0  0  0  0  0  0  0  0  0  0  0  0
   20.0207   41.6462  -27.8533 C   0  0  0  0  0  0  0  0  0  0  0  0
   20.6611   40.6358  -27.1823 N   0  0  0  0  0  0  0  0  0  0  0  0
   22.0283   40.6041  -27.1786 C   0  0  0  0  0  0  0  0  0  0  0  0
   22.7319   41.5440  -27.8251 C   0  0  0  0  0  0  0  0  0  0  0  0
   22.0733   42.5726  -28.4965 C   0  0  0  0  0  0  0  0  0  0  0  0
   22.6926   43.6171  -29.2111 N   0  0  0  0  0  0  0  0  0  0  0  0
   24.0427   41.2718  -27.6521 N   0  0  0  0  0  0  0  0  0  0  0  0
   24.1395   40.1429  -26.8935 C   0  0  0  0  0  0  0  0  0  0  0  0
   22.8998   39.7396  -26.5860 N   0  0  0  0  0  0  0  0  0  0  0  0
   11.9499   42.1500  -23.2344 N   0  0  0  0  0  0  0  0  0  0  0  0
   11.5179   41.1318  -24.0237 C   0  0  0  0  0  0  0  0  0  0  0  0
   12.3861   40.1382  -24.3789 N   0  0  0  0  0  0  0  0  0  0  0  0
   13.6737   40.1644  -23.9408 C   0  0  0  0  0  0  0  0  0  0  0  0
   14.1082   41.1692  -23.1535 C   0  0  0  0  0  0  0  0  0  0  0  0
   13.2183   42.1792  -22.7998 C   0  0  0  0  0  0  0  0  0  0  0  0
   13.4678   43.3461  -21.9928 N   0  0  0  0  0  0  0  0  0  0  0  0
   15.4141   40.9341  -22.8805 N   0  0  0  0  0  0  0  0  0  0  0  0
   15.7784   39.7753  -23.5004 C   0  0  0  0  0  0  0  0  0  0  0  0
   14.6946   39.3057  -24.1508 N   0  0  0  0  0  0  0  0  0  0  0  0
  1  3  1  6  0  0  0
  1  5  2  0  0  0  0
  1  9  1  0  0  0  0
  1 18  1  0  0  0  0
  2  4  1  1  0  0  0
  2  6  2  0  0  0  0
  2 10  1  0  0  0  0
  2 17  1  0  0  0  0
  7  9  1  0  0  0  0
  8 10  1  0  0  0  0
 11  7  1  6  0  0  0
 11 13  1  0  0  0  0
 11 15  1  0  0  0  0
 12  8  1  1  0  0  0
 12 14  1  0  0  0  0
 12 16  1  0  0  0  0
 13 23  1  0  0  0  0
 14 24  1  0  0  0  0
 15 17  1  1  0  0  0
 15 19  1  0  0  0  0
 16 18  1  6  0  0  0
 16 20  1  0  0  0  0
 19 21  1  1  0  0  0
 19 23  1  0  0  0  0
 20 22  1  6  0  0  0
 20 24  1  0  0  0  0
 23 34  1  6  0  0  0
 24 44  1  1  0  0  0
 25 26  2  0  0  0  0
 25 30  1  0  0  0  0
 26 27  1  0  0  0  0
 27 28  2  0  0  0  0
 28 29  1  0  0  0  0
 28 34  1  0  0  0  0
 29 30  2  0  0  0  0
 29 32  1  0  0  0  0
 30 31  1  0  0  0  0
 32 33  2  0  0  0  0
 33 34  1  0  0  0  0
 35 36  2  0  0  0  0
 35 40  1  0  0  0  0
 36 37  1  0  0  0  0
 37 38  2  0  0  0  0
 38 39  1  0  0  0  0
 38 44  1  0  0  0  0
 39 40  2  0  0  0  0
 39 42  1  0  0  0  0
 40 41  1  0  0  0  0
 42 43  2  0  0  0  0
 43 44  1  0  0  0  0
M  CHG  2   3  -1   4  -1
M  END
>  <CHROM.1>
61.90198392,-140.49550880,18.41849803,39.00909548,-25.45108994,-0.10526164
-0.32888748,2.72133592

>  <Name>
ligand

>  <RI>
0

>  <Rbt.Current_Directory>
/home/itssahil/PROJECTS/Mol_Feturizer/New_Systems/rnas/4QLM

>  <Rbt.Executable>
rbdock ($Id: //depot/dev/client3/rdock/2013.1/src/exe/rbdock.cxx#4 $)

>  <Rbt.Library>
libRbt.so (2013.1, Build901 2013/11/27)

>  <Rbt.Parameter_File>
/export/apps/rDock/src/rDock_2013.1_src/data/scripts/dock_solv.prm

>  <Rbt.Receptor>
prm/blind_docking_100.prm

>  <SCORE>
94.1168

>  <SCORE.INTER>
85.4626

>  <SCORE.INTER.CONST>
1

>  <SCORE.INTER.POLAR>
0

>  <SCORE.INTER.ROT>
2

>  <SCORE.INTER.SOLV>
44.9328

>  <SCORE.INTER.VDW>
37.0641

>  <SCORE.INTER.norm>
1.94233

>  <SCORE.INTRA>
-1.00879

>  <SCORE.INTRA.DIHEDRAL>
0.0602085

>  <SCORE.INTRA.DIHEDRAL.0>
2.32994

>  <SCORE.INTRA.POLAR>
0

>  <SCORE.INTRA.POLAR.0>
0

>  <SCORE.INTRA.REPUL>
0

>  <SCORE.INTRA.REPUL.0>
0

>  <SCORE.INTRA.SOLV>
0.0639608

>  <SCORE.INTRA.SOLV.lig_0>
-117.703

>  <SCORE.INTRA.VDW>
-1.07088

>  <SCORE.INTRA.VDW.0>
-1.59997

>  <SCORE.INTRA.norm>
-0.0229271

>  <SCORE.RESTR>
9.66299

>  <SCORE.RESTR.CAVITY>
9.66299

>  <SCORE.RESTR.norm>
0.219613

>  <SCORE.SYSTEM>
0

>  <SCORE.SYSTEM.CONST>
0

>  <SCORE.SYSTEM.DIHEDRAL>
0

>  <SCORE.SYSTEM.SOLV>
0

>  <SCORE.SYSTEM.norm>
0

>  <SCORE.heavy>
44

>  <SCORE.norm>
2.13902

>  <RMSD>
28.132

$$$$
ligand
 OpenBabel11021811513D
libRbt.so/2013.1/901 2013/11/27
 44 50  0  0  0  0  0  0  0  0999 V2000
   14.0143   22.8488   -3.3902 P   0  0  2  0  0  0  0  0  0  0  0  0
   17.1663   25.7824   -0.1246 P   0  0  1  0  0  0  0  0  0  0  0  0
   13.9238   21.3253   -3.4241 O   0  5  0  0  0  0  0  0  0  0  0  0
   17.7383   26.8647   -1.0075 O   0  5  0  0  0  0  0  0  0  0  0  0
   13.6184   23.3230   -4.7679 O   0  0  0  0  0  0  0  0  0  0  0  0
   17.4593   26.1796    1.3401 O   0  0  0  0  0  0  0  0  0  0  0  0
   16.1519   22.1756   -2.1993 C   0  0  0  0  0  0  0  0  0  0  0  0
   14.9007   24.5596    0.0759 C   0  0  0  0  0  0  0  0  0  0  0  0
   15.4998   23.1579   -3.0155 O   0  0  0  0  0  0  0  0  0  0  0  0
   15.5968   25.6466   -0.5969 O   0  0  0  0  0  0  0  0  0  0  0  0
   17.6017   22.5779   -1.9506 C   0  0  1  0  0  0  0  0  0  0  0  0
   13.3950   24.6542   -0.3774 C   0  0  1  0  0  0  0  0  0  0  0  0
   18.3126   22.1694   -2.9557 O   0  0  0  0  0  0  0  0  0  0  0  0
   13.0591   25.8614   -0.1681 O   0  0  0  0  0  0  0  0  0  0  0  0
   17.7983   24.0737   -1.8604 C   0  0  1  0  0  0  0  0  0  0  0  0
   13.2711   24.5315   -1.9092 C   0  0  1  0  0  0  0  0  0  0  0  0
   17.8699   24.3774   -0.5372 O   0  0  0  0  0  0  0  0  0  0  0  0
   12.8775   23.3041   -2.2703 O   0  0  0  0  0  0  0  0  0  0  0  0
   19.1888   24.3047   -2.5484 C   0  0  1  0  0  0  0  0  0  0  0  0
   12.2533   25.6017   -2.3655 C   0  0  1  0  0  0  0  0  0  0  0  0
   20.2433   24.4980   -1.5169 O   0  0  0  0  0  0  0  0  0  0  0  0
   10.9234   24.9731   -2.6506 O   0  0  0  0  0  0  0  0  0  0  0  0
   19.4268   23.2537   -3.2657 C   0  0  2  0  0  0  0  0  0  0  0  0
   12.1451   26.4056   -1.3640 C   0  0  2  0  0  0  0  0  0  0  0  0
   18.2203   26.2844   -7.5296 N   0  0  0  0  0  0  0  0  0  0  0  0
   17.9032   26.5710   -6.2356 C   0  0  0  0  0  0  0  0  0  0  0  0
   18.2598   25.7285   -5.2136 N   0  0  0  0  0  0  0  0  0  0  0  0
   18.9433   24.5810   -5.5075 C   0  0  0  0  0  0  0  0  0  0  0  0
   19.2559   24.2819   -6.7760 C   0  0  0  0  0  0  0  0  0  0  0  0
   18.8981   25.1482   -7.8076 C   0  0  0  0  0  0  0  0  0  0  0  0
   19.1657   24.9516   -9.1768 N   0  0  0  0  0  0  0  0  0  0  0  0
   19.9250   23.1095   -6.7719 N   0  0  0  0  0  0  0  0  0  0  0  0
   20.0153   22.6834   -5.4798 C   0  0  0  0  0  0  0  0  0  0  0  0
   19.4263   23.5970   -4.6973 N   0  0  0  0  0  0  0  0  0  0  0  0
   15.8442   29.5977   -3.1662 N   0  0  0  0  0  0  0  0  0  0  0  0
   15.9270   28.2479   -3.0339 C   0  0  0  0  0  0  0  0  0  0  0  0
   14.8623   27.5523   -2.5342 N   0  0  0  0  0  0  0  0  0  0  0  0
   13.7240   28.2056   -2.1764 C   0  0  0  0  0  0  0  0  0  0  0  0
   13.6330   29.5443   -2.3092 C   0  0  0  0  0  0  0  0  0  0  0  0
   14.7237   30.2455   -2.8153 C   0  0  0  0  0  0  0  0  0  0  0  0
   14.8535   31.6651   -3.0226 N   0  0  0  0  0  0  0  0  0  0  0  0
   12.4028   29.9115   -1.8770 N   0  0  0  0  0  0  0  0  0  0  0  0
   11.7357   28.7893   -1.4829 C   0  0  0  0  0  0  0  0  0  0  0  0
   12.5600   27.7396   -1.6747 N   0  0  0  0  0  0  0  0  0  0  0  0
  1  3  1  6  0  0  0
  1  5  2  0  0  0  0
  1  9  1  0  0  0  0
  1 18  1  0  0  0  0
  2  4  1  6  0  0  0
  2  6  2  0  0  0  0
  2 10  1  0  0  0  0
  2 17  1  0  0  0  0
  7  9  1  0  0  0  0
  8 10  1  0  0  0  0
 11  7  1  6  0  0  0
 11 13  1  0  0  0  0
 11 15  1  0  0  0  0
 12  8  1  6  0  0  0
 12 14  1  0  0  0  0
 12 16  1  0  0  0  0
 13 23  1  0  0  0  0
 14 24  1  0  0  0  0
 15 17  1  1  0  0  0
 15 19  1  0  0  0  0
 16 18  1  1  0  0  0
 16 20  1  0  0  0  0
 19 21  1  1  0  0  0
 19 23  1  0  0  0  0
 20 22  1  1  0  0  0
 20 24  1  0  0  0  0
 23 34  1  6  0  0  0
 24 44  1  6  0  0  0
 25 26  2  0  0  0  0
 25 30  1  0  0  0  0
 26 27  1  0  0  0  0
 27 28  2  0  0  0  0
 28 29  1  0  0  0  0
 28 34  1  0  0  0  0
 29 30  2  0  0  0  0
 29 32  1  0  0  0  0
 30 31  1  0  0  0  0
 32 33  2  0  0  0  0
 33 34  1  0  0  0  0
 35 36  2  0  0  0  0
 35 40  1  0  0  0  0
 36 37  1  0  0  0  0
 37 38  2  0  0  0  0
 38 39  1  0  0  0  0
 38 44  1  0  0  0  0
 39 40  2  0  0  0  0
 39 42  1  0  0  0  0
 40 41  1  0  0  0  0
 42 43  2  0  0  0  0
 43 44  1  0  0  0  0
M  CHG  2   3  -1   4  -1
M  END
>  <CHROM.1>
99.23672424,65.20794032,15.96867283,25.34144052,-2.86385172,2.82769911,0.66614178
-0.26858610

>  <Name>
ligand

>  <RI>
0

>  <Rbt.Current_Directory>
/home/itssahil/PROJECTS/Mol_Feturizer/New_Systems/rnas/4QLM

>  <Rbt.Executable>
rbdock ($Id: //depot/dev/client3/rdock/2013.1/src/exe/rbdock.cxx#4 $)

>  <Rbt.Library>
libRbt.so (2013.1, Build901 2013/11/27)

>  <Rbt.Parameter_File>
/export/apps/rDock/src/rDock_2013.1_src/data/scripts/dock_solv.prm

>  <Rbt.Receptor>
prm/blind_docking_100.prm

>  <SCORE>
60.7147

>  <SCORE.INTER>
41.7386

>  <SCORE.INTER.CONST>
1

>  <SCORE.INTER.POLAR>
0

>  <SCORE.INTER.ROT>
2

>  <SCORE.INTER.SOLV>
38.4406

>  <SCORE.INTER.VDW>
10.0789

>  <SCORE.INTER.norm>
0.948604

>  <SCORE.INTRA>
-1.43685

>  <SCORE.INTRA.DIHEDRAL>
-0.0151593

>  <SCORE.INTRA.DIHEDRAL.0>
2.32994

>  <SCORE.INTRA.POLAR>
0

>  <SCORE.INTRA.POLAR.0>
0

>  <SCORE.INTRA.REPUL>
0

>  <SCORE.INTRA.REPUL.0>
0

>  <SCORE.INTRA.SOLV>
0.76821

>  <SCORE.INTRA.SOLV.lig_0>
-117.703

>  <SCORE.INTRA.VDW>
-1.81337

>  <SCORE.INTRA.VDW.0>
-1.59997

>  <SCORE.INTRA.norm>
-0.0326556

>  <SCORE.RESTR>
20.413

>  <SCORE.RESTR.CAVITY>
20.413

>  <SCORE.RESTR.norm>
0.463932

>  <SCORE.SYSTEM>
0

>  <SCORE.SYSTEM.CONST>
0

>  <SCORE.SYSTEM.DIHEDRAL>
0

>  <SCORE.SYSTEM.SOLV>
0

>  <SCORE.SYSTEM.norm>
0

>  <SCORE.heavy>
44

>  <SCORE.norm>
1.37988

>  <RMSD>
28.137

$$$$
ligand
 OpenBabel11021811513D
libRbt.so/2013.1/901 2013/11/27
 44 50  0  0  0  0  0  0  0  0999 V2000
   13.7537   24.7559   -5.1258 P   0  0  2  0  0  0  0  0  0  0  0  0
   15.7642   23.7303   -0.2155 P   0  0  1  0  0  0  0  0  0  0  0  0
   13.2343   23.7206   -6.1202 O   0  5  0  0  0  0  0  0  0  0  0  0
   16.9749   24.6238   -0.0980 O   0  5  0  0  0  0  0  0  0  0  0  0
   14.2011   25.9400   -5.9488 O   0  0  0  0  0  0  0  0  0  0  0  0
   15.4534   23.1868    1.1977 O   0  0  0  0  0  0  0  0  0  0  0  0
   14.7859   22.6160   -4.2334 C   0  0  0  0  0  0  0  0  0  0  0  0
   13.4120   23.9257   -1.2631 C   0  0  0  0  0  0  0  0  0  0  0  0
   14.9140   24.0384   -4.3634 O   0  0  0  0  0  0  0  0  0  0  0  0
   14.6309   24.6612   -0.9598 O   0  0  0  0  0  0  0  0  0  0  0  0
   16.0027   22.0425   -3.5151 C   0  0  1  0  0  0  0  0  0  0  0  0
   12.3927   24.9808   -1.8369 C   0  0  1  0  0  0  0  0  0  0  0  0
   16.9361   21.8468   -4.3942 O   0  0  0  0  0  0  0  0  0  0  0  0
   12.3800   25.9270   -0.9892 O   0  0  0  0  0  0  0  0  0  0  0  0
   16.5763   22.9770   -2.4749 C   0  0  1  0  0  0  0  0  0  0  0  0
   12.9582   25.6659   -3.0969 C   0  0  1  0  0  0  0  0  0  0  0  0
   16.1179   22.5459   -1.2698 O   0  0  0  0  0  0  0  0  0  0  0  0
   12.4260   25.1519   -4.2124 O   0  0  0  0  0  0  0  0  0  0  0  0
   18.1236   22.7444   -2.5840 C   0  0  1  0  0  0  0  0  0  0  0  0
   12.6418   27.1735   -2.9698 C   0  0  1  0  0  0  0  0  0  0  0  0
   18.5867   21.8617   -1.4795 O   0  0  0  0  0  0  0  0  0  0  0  0
   11.4736   27.5391   -3.8341 O   0  0  0  0  0  0  0  0  0  0  0  0
   18.3360   22.1967   -3.7375 C   0  0  2  0  0  0  0  0  0  0  0  0
   12.3324   27.3447   -1.7305 C   0  0  2  0  0  0  0  0  0  0  0  0
   18.9376   26.3894   -7.0360 N   0  0  0  0  0  0  0  0  0  0  0  0
   17.7758   26.0156   -6.4297 C   0  0  0  0  0  0  0  0  0  0  0  0
   17.7269   24.9245   -5.5998 N   0  0  0  0  0  0  0  0  0  0  0  0
   18.8684   24.2027   -5.3846 C   0  0  0  0  0  0  0  0  0  0  0  0
   20.0169   24.5538   -5.9796 C   0  0  0  0  0  0  0  0  0  0  0  0
   20.0601   25.6695   -6.8139 C   0  0  0  0  0  0  0  0  0  0  0  0
   21.1983   26.1428   -7.4961 N   0  0  0  0  0  0  0  0  0  0  0  0
   20.9689   23.6800   -5.5894 N   0  0  0  0  0  0  0  0  0  0  0  0
   20.3892   22.7769   -4.7482 C   0  0  0  0  0  0  0  0  0  0  0  0
   19.0989   23.1073   -4.6069 N   0  0  0  0  0  0  0  0  0  0  0  0
   14.6354   28.7927    2.7102 N   0  0  0  0  0  0  0  0  0  0  0  0
   13.7530   27.7726    2.5455 C   0  0  0  0  0  0  0  0  0  0  0  0
   13.2304   27.5258    1.3072 N   0  0  0  0  0  0  0  0  0  0  0  0
   13.5950   28.2926    0.2444 C   0  0  0  0  0  0  0  0  0  0  0  0
   14.4735   29.3037    0.3995 C   0  0  0  0  0  0  0  0  0  0  0  0
   14.9979   29.5505    1.6649 C   0  0  0  0  0  0  0  0  0  0  0  0
   15.9263   30.5783    2.0611 N   0  0  0  0  0  0  0  0  0  0  0  0
   14.6415   29.8839   -0.8130 N   0  0  0  0  0  0  0  0  0  0  0  0
   13.8648   29.2196   -1.7159 C   0  0  0  0  0  0  0  0  0  0  0  0
   13.2241   28.2357   -1.0529 N   0  0  0  0  0  0  0  0  0  0  0  0
  1  3  1  6  0  0  0
  1  5  2  0  0  0  0
  1  9  1  0  0  0  0
  1 18  1  0  0  0  0
  2  4  1  1  0  0  0
  2  6  2  0  0  0  0
  2 10  1  0  0  0  0
  2 17  1  0  0  0  0
  7  9  1  0  0  0  0
  8 10  1  0  0  0  0
 11  7  1  6  0  0  0
 11 13  1  0  0  0  0
 11 15  1  0  0  0  0
 12  8  1  1  0  0  0
 12 14  1  0  0  0  0
 12 16  1  0  0  0  0
 13 23  1  0  0  0  0
 14 24  1  0  0  0  0
 15 17  1  1  0  0  0
 15 19  1  0  0  0  0
 16 18  1  6  0  0  0
 16 20  1  0  0  0  0
 19 21  1  1  0  0  0
 19 23  1  0  0  0  0
 20 22  1  6  0  0  0
 20 24  1  0  0  0  0
 23 34  1  6  0  0  0
 24 44  1  1  0  0  0
 25 26  2  0  0  0  0
 25 30  1  0  0  0  0
 26 27  1  0  0  0  0
 27 28  2  0  0  0  0
 28 29  1  0  0  0  0
 28 34  1  0  0  0  0
 29 30  2  0  0  0  0
 29 32  1  0  0  0  0
 30 31  1  0  0  0  0
 32 33  2  0  0  0  0
 33 34  1  0  0  0  0
 35 36  2  0  0  0  0
 35 40  1  0  0  0  0
 36 37  1  0  0  0  0
 37 38  2  0  0  0  0
 38 39  1  0  0  0  0
 38 44  1  0  0  0  0
 39 40  2  0  0  0  0
 39 42  1  0  0  0  0
 40 41  1  0  0  0  0
 42 43  2  0  0  0  0
 43 44  1  0  0  0  0
M  CHG  2   3  -1   4  -1
M  END
>  <CHROM.1>
41.19071642,-30.48687369,15.61403531,25.27245196,-2.67431535,0.82179177,0.53433475
-1.75432760

>  <Name>
ligand

>  <RI>
0

>  <Rbt.Current_Directory>
/home/itssahil/PROJECTS/Mol_Feturizer/New_Systems/rnas/4QLM

>  <Rbt.Executable>
rbdock ($Id: //depot/dev/client3/rdock/2013.1/src/exe/rbdock.cxx#4 $)

>  <Rbt.Library>
libRbt.so (2013.1, Build901 2013/11/27)

>  <Rbt.Parameter_File>
/export/apps/rDock/src/rDock_2013.1_src/data/scripts/dock_solv.prm

>  <Rbt.Receptor>
prm/blind_docking_100.prm

>  <SCORE>
50.4661

>  <SCORE.INTER>
28.4993

>  <SCORE.INTER.CONST>
1

>  <SCORE.INTER.POLAR>
0

>  <SCORE.INTER.ROT>
2

>  <SCORE.INTER.SOLV>
43.5956

>  <SCORE.INTER.VDW>
-0.4657

>  <SCORE.INTER.norm>
0.647711

>  <SCORE.INTRA>
0.211494

>  <SCORE.INTRA.DIHEDRAL>
0.162733

>  <SCORE.INTRA.DIHEDRAL.0>
2.32994

>  <SCORE.INTRA.POLAR>
0

>  <SCORE.INTRA.POLAR.0>
0

>  <SCORE.INTRA.REPUL>
0

>  <SCORE.INTRA.REPUL.0>
0

>  <SCORE.INTRA.SOLV>
0.443721

>  <SCORE.INTRA.SOLV.lig_0>
-117.703

>  <SCORE.INTRA.VDW>
-0.0917331

>  <SCORE.INTRA.VDW.0>
-1.59997

>  <SCORE.INTRA.norm>
0.00480668

>  <SCORE.RESTR>
21.7553

>  <SCORE.RESTR.CAVITY>
21.7553

>  <SCORE.RESTR.norm>
0.49444

>  <SCORE.SYSTEM>
0

>  <SCORE.SYSTEM.CONST>
0

>  <SCORE.SYSTEM.DIHEDRAL>
0

>  <SCORE.SYSTEM.SOLV>
0

>  <SCORE.SYSTEM.norm>
0

>  <SCORE.heavy>
44

>  <SCORE.norm>
1.14696

>  <RMSD>
28.143

$$$$
ligand
 OpenBabel11021811513D
libRbt.so/2013.1/901 2013/11/27
 44 50  0  0  0  0  0  0  0  0999 V2000
   17.9550   37.4721  -27.9338 P   0  0  2  0  0  0  0  0  0  0  0  0
   19.4818   37.7316  -22.7563 P   0  0  1  0  0  0  0  0  0  0  0  0
   18.4017   36.4269  -28.9529 O   0  5  0  0  0  0  0  0  0  0  0  0
   19.7459   39.1959  -22.5030 O   0  5  0  0  0  0  0  0  0  0  0  0
   17.5880   38.7023  -28.7286 O   0  0  0  0  0  0  0  0  0  0  0  0
   19.4413   37.0259  -21.3817 O   0  0  0  0  0  0  0  0  0  0  0  0
   20.0341   36.5253  -26.8284 C   0  0  0  0  0  0  0  0  0  0  0  0
   17.7722   36.3678  -24.1295 C   0  0  0  0  0  0  0  0  0  0  0  0
   19.1856   37.6698  -26.9908 O   0  0  0  0  0  0  0  0  0  0  0  0
   18.1249   37.7083  -23.6854 O   0  0  0  0  0  0  0  0  0  0  0  0
   21.2143   36.8701  -25.9264 C   0  0  1  0  0  0  0  0  0  0  0  0
   16.3927   36.5011  -24.8783 C   0  0  1  0  0  0  0  0  0  0  0  0
   22.1378   37.4120  -26.6584 O   0  0  0  0  0  0  0  0  0  0  0  0
   15.6376   37.1333  -24.0758 O   0  0  0  0  0  0  0  0  0  0  0  0
   20.8691   37.8743  -24.8508 C   0  0  1  0  0  0  0  0  0  0  0  0
   16.5037   37.4719  -26.0708 C   0  0  1  0  0  0  0  0  0  0  0  0
   20.6720   37.1666  -23.7069 O   0  0  0  0  0  0  0  0  0  0  0  0
   16.6053   36.8110  -27.2304 O   0  0  0  0  0  0  0  0  0  0  0  0
   22.1659   38.7488  -24.7335 C   0  0  1  0  0  0  0  0  0  0  0  0
   15.2413   38.3635  -26.0442 C   0  0  1  0  0  0  0  0  0  0  0  0
   22.9566   38.3333  -23.5437 O   0  0  0  0  0  0  0  0  0  0  0  0
   14.2553   37.9077  -27.0763 O   0  0  0  0  0  0  0  0  0  0  0  0
   22.8370   38.5655  -25.8252 C   0  0  2  0  0  0  0  0  0  0  0  0
   14.7424   38.1980  -24.8675 C   0  0  2  0  0  0  0  0  0  0  0  0
   20.9022   42.2460  -29.2211 N   0  0  0  0  0  0  0  0  0  0  0  0
   20.2388   41.1367  -28.7890 C   0  0  0  0  0  0  0  0  0  0  0  0
   20.8232   40.2547  -27.9161 N   0  0  0  0  0  0  0  0  0  0  0  0
   22.0957   40.4988  -27.4785 C   0  0  0  0  0  0  0  0  0  0  0  0
   22.7635   41.5817  -27.9002 C   0  0  0  0  0  0  0  0  0  0  0  0
   22.1588   42.4780  -28.7798 C   0  0  0  0  0  0  0  0  0  0  0  0
   22.7490   43.6484  -29.2962 N   0  0  0  0  0  0  0  0  0  0  0  0
   23.9784   41.5736  -27.3119 N   0  0  0  0  0  0  0  0  0  0  0  0
   24.0550   40.4633  -26.5242 C   0  0  0  0  0  0  0  0  0  0  0  0
   22.8897   39.8087  -26.6118 N   0  0  0  0  0  0  0  0  0  0  0  0
   12.0069   42.2914  -23.1701 N   0  0  0  0  0  0  0  0  0  0  0  0
   11.5621   41.2929  -23.9773 C   0  0  0  0  0  0  0  0  0  0  0  0
   12.4142   40.2879  -24.3395 N   0  0  0  0  0  0  0  0  0  0  0  0
   13.6984   40.2833  -23.8907 C   0  0  0  0  0  0  0  0  0  0  0  0
   14.1454   41.2684  -23.0857 C   0  0  0  0  0  0  0  0  0  0  0  0
   13.2719   42.2902  -22.7249 C   0  0  0  0  0  0  0  0  0  0  0  0
   13.5368   43.4406  -21.8994 N   0  0  0  0  0  0  0  0  0  0  0  0
   15.4442   41.0046  -22.8056 N   0  0  0  0  0  0  0  0  0  0  0  0
   15.7915   39.8479  -23.4389 C   0  0  0  0  0  0  0  0  0  0  0  0
   14.7045   39.4082  -24.1046 N   0  0  0  0  0  0  0  0  0  0  0  0
  1  3  1  6  0  0  0
  1  5  2  0  0  0  0
  1  9  1  0  0  0  0
  1 18  1  0  0  0  0
  2  4  1  1  0  0  0
  2  6  2  0  0  0  0
  2 10  1  0  0  0  0
  2 17  1  0  0  0  0
  7  9  1  0  0  0  0
  8 10  1  0  0  0  0
 11  7  1  6  0  0  0
 11 13  1  0  0  0  0
 11 15  1  0  0  0  0
 12  8  1  1  0  0  0
 12 14  1  0  0  0  0
 12 16  1  0  0  0  0
 13 23  1  0  0  0  0
 14 24  1  0  0  0  0
 15 17  1  1  0  0  0
 15 19  1  0  0  0  0
 16 18  1  6  0  0  0
 16 20  1  0  0  0  0
 19 21  1  1  0  0  0
 19 23  1  0  0  0  0
 20 22  1  6  0  0  0
 20 24  1  0  0  0  0
 23 34  1  6  0  0  0
 24 44  1  1  0  0  0
 25 26  2  0  0  0  0
 25 30  1  0  0  0  0
 26 27  1  0  0  0  0
 27 28  2  0  0  0  0
 28 29  1  0  0  0  0
 28 34  1  0  0  0  0
 29 30  2  0  0  0  0
 29 32  1  0  0  0  0
 30 31  1  0  0  0  0
 32 33  2  0  0  0  0
 33 34  1  0  0  0  0
 35 36  2  0  0  0  0
 35 40  1  0  0  0  0
 36 37  1  0  0  0  0
 37 38  2  0  0  0  0
 38 39  1  0  0  0  0
 38 44  1  0  0  0  0
 39 40  2  0  0  0  0
 39 42  1  0  0  0  0
 40 41  1  0  0  0  0
 42 43  2  0  0  0  0
 43 44  1  0  0  0  0
M  CHG  2   3  -1   4  -1
M  END
>  <CHROM.1>
39.13862249,-141.68749929,18.42887926,39.06926611,-25.49762316,0.17768211
0.32803366,-0.61048023

>  <Name>
ligand

>  <RI>
0

>  <Rbt.Current_Directory>
/home/itssahil/PROJECTS/Mol_Feturizer/New_Systems/rnas/4QLM

>  <Rbt.Executable>
rbdock ($Id: //depot/dev/client3/rdock/2013.1/src/exe/rbdock.cxx#4 $)

>  <Rbt.Library>
libRbt.so (2013.1, Build901 2013/11/27)

>  <Rbt.Parameter_File>
/export/apps/rDock/src/rDock_2013.1_src/data/scripts/dock_solv.prm

>  <Rbt.Receptor>
prm/blind_docking_100.prm

>  <SCORE>
104.119

>  <SCORE.INTER>
94.7901

>  <SCORE.INTER.CONST>
1

>  <SCORE.INTER.POLAR>
0

>  <SCORE.INTER.ROT>
2

>  <SCORE.INTER.SOLV>
44.6986

>  <SCORE.INTER.VDW>
43.3605

>  <SCORE.INTER.norm>
2.15432

>  <SCORE.INTRA>
-0.991229

>  <SCORE.INTRA.DIHEDRAL>
0.168294

>  <SCORE.INTRA.DIHEDRAL.0>
2.32994

>  <SCORE.INTRA.POLAR>
0

>  <SCORE.INTRA.POLAR.0>
0

>  <SCORE.INTRA.REPUL>
0

>  <SCORE.INTRA.REPUL.0>
0

>  <SCORE.INTRA.SOLV>
0.36374

>  <SCORE.INTRA.SOLV.lig_0>
-117.703

>  <SCORE.INTRA.VDW>
-1.25725

>  <SCORE.INTRA.VDW.0>
-1.59997

>  <SCORE.INTRA.norm>
-0.0225279

>  <SCORE.RESTR>
10.3198

>  <SCORE.RESTR.CAVITY>
10.3198

>  <SCORE.RESTR.norm>
0.234542

>  <SCORE.SYSTEM>
0

>  <SCORE.SYSTEM.CONST>
0

>  <SCORE.SYSTEM.DIHEDRAL>
0

>  <SCORE.SYSTEM.SOLV>
0

>  <SCORE.SYSTEM.norm>
0

>  <SCORE.heavy>
44

>  <SCORE.norm>
2.36633

>  <RMSD>
28.170

$$$$
ligand
 OpenBabel11021811513D
libRbt.so/2013.1/901 2013/11/27
 44 50  0  0  0  0  0  0  0  0999 V2000
   13.7068   24.7433   -5.1085 P   0  0  2  0  0  0  0  0  0  0  0  0
   15.8212   23.8028   -0.2248 P   0  0  1  0  0  0  0  0  0  0  0  0
   13.1595   23.6917   -6.0703 O   0  5  0  0  0  0  0  0  0  0  0  0
   17.0392   24.6910   -0.1522 O   0  5  0  0  0  0  0  0  0  0  0  0
   14.1423   25.9082   -5.9646 O   0  0  0  0  0  0  0  0  0  0  0  0
   15.5392   23.2891    1.2055 O   0  0  0  0  0  0  0  0  0  0  0  0
   14.7468   22.6152   -4.1969 C   0  0  0  0  0  0  0  0  0  0  0  0
   13.4472   23.9916   -1.2234 C   0  0  0  0  0  0  0  0  0  0  0  0
   14.8799   24.0339   -4.3580 O   0  0  0  0  0  0  0  0  0  0  0  0
   14.6767   24.7256   -0.9620 O   0  0  0  0  0  0  0  0  0  0  0  0
   15.9762   22.0487   -3.4947 C   0  0  1  0  0  0  0  0  0  0  0  0
   12.4212   25.0413   -1.7951 C   0  0  1  0  0  0  0  0  0  0  0  0
   16.8885   21.8300   -4.3904 O   0  0  0  0  0  0  0  0  0  0  0  0
   12.4328   26.0042   -0.9664 O   0  0  0  0  0  0  0  0  0  0  0  0
   16.5782   23.0001   -2.4864 C   0  0  1  0  0  0  0  0  0  0  0  0
   12.9622   25.6980   -3.0808 C   0  0  1  0  0  0  0  0  0  0  0  0
   16.1445   22.5957   -1.2630 O   0  0  0  0  0  0  0  0  0  0  0  0
   12.4022   25.1652   -4.1738 O   0  0  0  0  0  0  0  0  0  0  0  0
   18.1213   22.7560   -2.6253 C   0  0  1  0  0  0  0  0  0  0  0  0
   12.6571   27.2097   -2.9767 C   0  0  1  0  0  0  0  0  0  0  0  0
   18.6042   21.8925   -1.5141 O   0  0  0  0  0  0  0  0  0  0  0  0
   11.4719   27.5651   -3.8217 O   0  0  0  0  0  0  0  0  0  0  0  0
   18.3047   22.1843   -3.7721 C   0  0  2  0  0  0  0  0  0  0  0  0
   12.3765   27.4072   -1.7344 C   0  0  2  0  0  0  0  0  0  0  0  0
   18.8885   26.3893   -7.0583 N   0  0  0  0  0  0  0  0  0  0  0  0
   17.7497   26.0570   -6.3875 C   0  0  0  0  0  0  0  0  0  0  0  0
   17.7035   24.9586   -5.5673 N   0  0  0  0  0  0  0  0  0  0  0  0
   18.8238   24.1869   -5.4278 C   0  0  0  0  0  0  0  0  0  0  0  0
   19.9491   24.4968   -6.0866 C   0  0  0  0  0  0  0  0  0  0  0  0
   19.9904   25.6202   -6.9108 C   0  0  0  0  0  0  0  0  0  0  0  0
   21.1054   26.0538   -7.6549 N   0  0  0  0  0  0  0  0  0  0  0  0
   20.8844   23.5789   -5.7628 N   0  0  0  0  0  0  0  0  0  0  0  0
   20.3174   22.6905   -4.8977 C   0  0  0  0  0  0  0  0  0  0  0  0
   19.0530   23.0730   -4.6763 N   0  0  0  0  0  0  0  0  0  0  0  0
   16.7554   28.0865    1.0013 N   0  0  0  0  0  0  0  0  0  0  0  0
   16.2294   26.9042    0.5866 C   0  0  0  0  0  0  0  0  0  0  0  0
   15.0606   26.8970   -0.1212 N   0  0  0  0  0  0  0  0  0  0  0  0
   14.4297   28.0660   -0.4142 C   0  0  0  0  0  0  0  0  0  0  0  0
   14.9482   29.2433   -0.0099 C   0  0  0  0  0  0  0  0  0  0  0  0
   16.1370   29.2412    0.7140 C   0  0  0  0  0  0  0  0  0  0  0  0
   16.8531   30.3671    1.2569 N   0  0  0  0  0  0  0  0  0  0  0  0
   14.1142   30.2213   -0.4374 N   0  0  0  0  0  0  0  0  0  0  0  0
   13.0823   29.6384   -1.1121 C   0  0  0  0  0  0  0  0  0  0  0  0
   13.2882   28.3059   -1.0948 N   0  0  0  0  0  0  0  0  0  0  0  0
  1  3  1  6  0  0  0
  1  5  2  0  0  0  0
  1  9  1  0  0  0  0
  1 18  1  0  0  0  0
  2  4  1  1  0  0  0
  2  6  2  0  0  0  0
  2 10  1  0  0  0  0
  2 17  1  0  0  0  0
  7  9  1  0  0  0  0
  8 10  1  0  0  0  0
 11  7  1  6  0  0  0
 11 13  1  0  0  0  0
 11 15  1  0  0  0  0
 12  8  1  1  0  0  0
 12 14  1  0  0  0  0
 12 16  1  0  0  0  0
 13 23  1  0  0  0  0
 14 24  1  0  0  0  0
 15 17  1  1  0  0  0
 15 19  1  0  0  0  0
 16 18  1  6  0  0  0
 16 20  1  0  0  0  0
 19 21  1  1  0  0  0
 19 23  1  0  0  0  0
 20 22  1  6  0  0  0
 20 24  1  0  0  0  0
 23 34  1  6  0  0  0
 24 44  1  1  0  0  0
 25 26  2  0  0  0  0
 25 30  1  0  0  0  0
 26 27  1  0  0  0  0
 27 28  2  0  0  0  0
 28 29  1  0  0  0  0
 28 34  1  0  0  0  0
 29 30  2  0  0  0  0
 29 32  1  0  0  0  0
 30 31  1  0  0  0  0
 32 33  2  0  0  0  0
 33 34  1  0  0  0  0
 35 36  2  0  0  0  0
 35 40  1  0  0  0  0
 36 37  1  0  0  0  0
 37 38  2  0  0  0  0
 38 39  1  0  0  0  0
 38 44  1  0  0  0  0
 39 40  2  0  0  0  0
 39 42  1  0  0  0  0
 40 41  1  0  0  0  0
 42 43  2  0  0  0  0
 43 44  1  0  0  0  0
M  CHG  2   3  -1   4  -1
M  END
>  <CHROM.1>
44.66852335,28.62813861,15.77742208,25.23845399,-2.82762200,0.85168145,0.35309094
-1.96124641

>  <Name>
ligand

>  <RI>
0

>  <Rbt.Current_Directory>
/home/itssahil/PROJECTS/Mol_Feturizer/New_Systems/rnas/4QLM

>  <Rbt.Executable>
rbdock ($Id: //depot/dev/client3/rdock/2013.1/src/exe/rbdock.cxx#4 $)

>  <Rbt.Library>
libRbt.so (2013.1, Build901 2013/11/27)

>  <Rbt.Parameter_File>
/export/apps/rDock/src/rDock_2013.1_src/data/scripts/dock_solv.prm

>  <Rbt.Receptor>
prm/blind_docking_100.prm

>  <SCORE>
48.6309

>  <SCORE.INTER>
27.9105

>  <SCORE.INTER.CONST>
1

>  <SCORE.INTER.POLAR>
0

>  <SCORE.INTER.ROT>
2

>  <SCORE.INTER.SOLV>
42.9111

>  <SCORE.INTER.VDW>
-0.630025

>  <SCORE.INTER.norm>
0.63433

>  <SCORE.INTRA>
1.4741

>  <SCORE.INTRA.DIHEDRAL>
0.127873

>  <SCORE.INTRA.DIHEDRAL.0>
2.32994

>  <SCORE.INTRA.POLAR>
0

>  <SCORE.INTRA.POLAR.0>
0

>  <SCORE.INTRA.REPUL>
0

>  <SCORE.INTRA.REPUL.0>
0

>  <SCORE.INTRA.SOLV>
2.02589

>  <SCORE.INTRA.SOLV.lig_0>
-117.703

>  <SCORE.INTRA.VDW>
0.397221

>  <SCORE.INTRA.VDW.0>
-1.59997

>  <SCORE.INTRA.norm>
0.0335024

>  <SCORE.RESTR>
19.2463

>  <SCORE.RESTR.CAVITY>
19.2463

>  <SCORE.RESTR.norm>
0.437416

>  <SCORE.SYSTEM>
0

>  <SCORE.SYSTEM.CONST>
0

>  <SCORE.SYSTEM.DIHEDRAL>
0

>  <SCORE.SYSTEM.SOLV>
0

>  <SCORE.SYSTEM.norm>
0

>  <SCORE.heavy>
44

>  <SCORE.norm>
1.10525

>  <RMSD>
28.211

$$$$
ligand
 OpenBabel11021811513D
libRbt.so/2013.1/901 2013/11/27
 44 50  0  0  0  0  0  0  0  0999 V2000
   16.5801   27.5914   -3.1719 P   0  0  2  0  0  0  0  0  0  0  0  0
   13.7723   23.0758   -4.1372 P   0  0  1  0  0  0  0  0  0  0  0  0
   17.2777   28.4585   -4.2169 O   0  5  0  0  0  0  0  0  0  0  0  0
   14.1960   22.1165   -3.0518 O   0  5  0  0  0  0  0  0  0  0  0  0
   17.3218   27.8179   -1.8765 O   0  0  0  0  0  0  0  0  0  0  0  0
   12.5196   22.4784   -4.8174 O   0  0  0  0  0  0  0  0  0  0  0  0
   16.7301   26.0042   -5.1466 C   0  0  0  0  0  0  0  0  0  0  0  0
   13.3312   25.6152   -4.2971 C   0  0  0  0  0  0  0  0  0  0  0  0
   16.6897   26.1314   -3.7189 O   0  0  0  0  0  0  0  0  0  0  0  0
   13.6299   24.5274   -3.3772 O   0  0  0  0  0  0  0  0  0  0  0  0
   16.8848   24.5388   -5.5393 C   0  0  1  0  0  0  0  0  0  0  0  0
   13.0907   26.8916   -3.4057 C   0  0  1  0  0  0  0  0  0  0  0  0
   18.1473   24.2432   -5.5084 O   0  0  0  0  0  0  0  0  0  0  0  0
   12.2393   26.5334   -2.5335 O   0  0  0  0  0  0  0  0  0  0  0  0
   16.1943   23.5902   -4.5865 C   0  0  1  0  0  0  0  0  0  0  0  0
   14.3337   27.2100   -2.5510 C   0  0  1  0  0  0  0  0  0  0  0  0
   15.0160   23.2432   -5.1692 O   0  0  0  0  0  0  0  0  0  0  0  0
   15.0447   28.2139   -3.0786 O   0  0  0  0  0  0  0  0  0  0  0  0
   17.1596   22.3552   -4.5321 C   0  0  1  0  0  0  0  0  0  0  0  0
   13.8268   27.5676   -1.1352 C   0  0  1  0  0  0  0  0  0  0  0  0
   16.6336   21.2575   -5.3875 O   0  0  0  0  0  0  0  0  0  0  0  0
   13.8507   29.0516   -0.9288 O   0  0  0  0  0  0  0  0  0  0  0  0
   18.3112   22.7655   -4.9578 C   0  0  2  0  0  0  0  0  0  0  0  0
   12.6092   27.1467   -1.1022 C   0  0  2  0  0  0  0  0  0  0  0  0
   23.0068   23.9344   -2.6326 N   0  0  0  0  0  0  0  0  0  0  0  0
   22.5987   24.3648   -3.8596 C   0  0  0  0  0  0  0  0  0  0  0  0
   21.3742   24.0096   -4.3657 N   0  0  0  0  0  0  0  0  0  0  0  0
   20.5556   23.2069   -3.6203 C   0  0  0  0  0  0  0  0  0  0  0  0
   20.9461   22.7698   -2.4149 C   0  0  0  0  0  0  0  0  0  0  0  0
   22.1880   23.1432   -1.9040 C   0  0  0  0  0  0  0  0  0  0  0  0
   22.7148   22.7542   -0.6565 N   0  0  0  0  0  0  0  0  0  0  0  0
   19.9520   22.0100   -1.9083 N   0  0  0  0  0  0  0  0  0  0  0  0
   18.9417   21.9775   -2.8234 C   0  0  0  0  0  0  0  0  0  0  0  0
   19.3042   22.7285   -3.8716 N   0  0  0  0  0  0  0  0  0  0  0  0
   11.8215   22.1207    0.0110 N   0  0  0  0  0  0  0  0  0  0  0  0
   11.9710   22.6675   -1.2239 C   0  0  0  0  0  0  0  0  0  0  0  0
   12.1645   24.0147   -1.3464 N   0  0  0  0  0  0  0  0  0  0  0  0
   12.2129   24.8034   -0.2392 C   0  0  0  0  0  0  0  0  0  0  0  0
   12.0699   24.2671    0.9897 C   0  0  0  0  0  0  0  0  0  0  0  0
   11.8692   22.8946    1.1051 C   0  0  0  0  0  0  0  0  0  0  0  0
   11.6750   22.1189    2.3033 N   0  0  0  0  0  0  0  0  0  0  0  0
   12.1583   25.2789    1.8860 N   0  0  0  0  0  0  0  0  0  0  0  0
   12.3623   26.4403    1.2008 C   0  0  0  0  0  0  0  0  0  0  0  0
   12.3974   26.1352   -0.1122 N   0  0  0  0  0  0  0  0  0  0  0  0
  1  3  1  6  0  0  0
  1  5  2  0  0  0  0
  1  9  1  0  0  0  0
  1 18  1  0  0  0  0
  2  4  1  1  0  0  0
  2  6  2  0  0  0  0
  2 10  1  0  0  0  0
  2 17  1  0  0  0  0
  7  9  1  0  0  0  0
  8 10  1  0  0  0  0
 11  7  1  1  0  0  0
 11 13  1  0  0  0  0
 11 15  1  0  0  0  0
 12  8  1  6  0  0  0
 12 14  1  0  0  0  0
 12 16  1  0  0  0  0
 13 23  1  0  0  0  0
 14 24  1  0  0  0  0
 15 17  1  6  0  0  0
 15 19  1  0  0  0  0
 16 18  1  6  0  0  0
 16 20  1  0  0  0  0
 19 21  1  6  0  0  0
 19 23  1  0  0  0  0
 20 22  1  6  0  0  0
 20 24  1  0  0  0  0
 23 34  1  1  0  0  0
 24 44  1  1  0  0  0
 25 26  2  0  0  0  0
 25 30  1  0  0  0  0
 26 27  1  0  0  0  0
 27 28  2  0  0  0  0
 28 29  1  0  0  0  0
 28 34  1  0  0  0  0
 29 30  2  0  0  0  0
 29 32  1  0  0  0  0
 30 31  1  0  0  0  0
 32 33  2  0  0  0  0
 33 34  1  0  0  0  0
 35 36  2  0  0  0  0
 35 40  1  0  0  0  0
 36 37  1  0  0  0  0
 37 38  2  0  0  0  0
 38 39  1  0  0  0  0
 38 44  1  0  0  0  0
 39 40  2  0  0  0  0
 39 42  1  0  0  0  0
 40 41  1  0  0  0  0
 42 43  2  0  0  0  0
 43 44  1  0  0  0  0
M  CHG  2   3  -1   4  -1
M  END
>  <CHROM.1>
-46.51795795,14.11538234,15.78140971,24.63653826,-2.66572178,-0.16673176
0.33541620,-0.04691899

>  <Name>
ligand

>  <RI>
0

>  <Rbt.Current_Directory>
/home/itssahil/PROJECTS/Mol_Feturizer/New_Systems/rnas/4QLM

>  <Rbt.Executable>
rbdock ($Id: //depot/dev/client3/rdock/2013.1/src/exe/rbdock.cxx#4 $)

>  <Rbt.Library>
libRbt.so (2013.1, Build901 2013/11/27)

>  <Rbt.Parameter_File>
/export/apps/rDock/src/rDock_2013.1_src/data/scripts/dock_solv.prm

>  <Rbt.Receptor>
prm/blind_docking_100.prm

>  <SCORE>
32.9851

>  <SCORE.INTER>
7.39607

>  <SCORE.INTER.CONST>
1

>  <SCORE.INTER.POLAR>
0

>  <SCORE.INTER.ROT>
2

>  <SCORE.INTER.SOLV>
42.2841

>  <SCORE.INTER.VDW>
-14.0973

>  <SCORE.INTER.norm>
0.168093

>  <SCORE.INTRA>
3.84176

>  <SCORE.INTRA.DIHEDRAL>
-0.0117631

>  <SCORE.INTRA.DIHEDRAL.0>
2.32994

>  <SCORE.INTRA.POLAR>
0

>  <SCORE.INTRA.POLAR.0>
0

>  <SCORE.INTRA.REPUL>
0

>  <SCORE.INTRA.REPUL.0>
0

>  <SCORE.INTRA.SOLV>
1.45284

>  <SCORE.INTRA.SOLV.lig_0>
-117.703

>  <SCORE.INTRA.VDW>
3.12122

>  <SCORE.INTRA.VDW.0>
-1.59997

>  <SCORE.INTRA.norm>
0.0873127

>  <SCORE.RESTR>
21.7473

>  <SCORE.RESTR.CAVITY>
21.7473

>  <SCORE.RESTR.norm>
0.494257

>  <SCORE.SYSTEM>
0

>  <SCORE.SYSTEM.CONST>
0

>  <SCORE.SYSTEM.DIHEDRAL>
0

>  <SCORE.SYSTEM.SOLV>
0

>  <SCORE.SYSTEM.norm>
0

>  <SCORE.heavy>
44

>  <SCORE.norm>
0.749662

>  <RMSD>
28.253

$$$$
ligand
 OpenBabel11021811513D
libRbt.so/2013.1/901 2013/11/27
 44 50  0  0  0  0  0  0  0  0999 V2000
   18.7539   36.7692  -27.8462 P   0  0  2  0  0  0  0  0  0  0  0  0
   19.3968   37.6417  -22.5518 P   0  0  1  0  0  0  0  0  0  0  0  0
   19.6273   35.8764  -28.7241 O   0  5  0  0  0  0  0  0  0  0  0  0
   19.1784   39.1245  -22.3741 O   0  5  0  0  0  0  0  0  0  0  0  0
   18.1546   37.8049  -28.7669 O   0  0  0  0  0  0  0  0  0  0  0  0
   19.3751   37.0006  -21.1456 O   0  0  0  0  0  0  0  0  0  0  0  0
   20.8442   36.5310  -26.4266 C   0  0  0  0  0  0  0  0  0  0  0  0
   18.3760   35.7820  -24.0241 C   0  0  0  0  0  0  0  0  0  0  0  0
   19.7267   37.3595  -26.7749 O   0  0  0  0  0  0  0  0  0  0  0  0
   18.2512   37.1797  -23.6376 O   0  0  0  0  0  0  0  0  0  0  0  0
   21.7317   37.2451  -25.4127 C   0  0  1  0  0  0  0  0  0  0  0  0
   17.1375   35.4680  -24.9455 C   0  0  1  0  0  0  0  0  0  0  0  0
   22.5466   38.0175  -26.0620 O   0  0  0  0  0  0  0  0  0  0  0  0
   16.1249   35.8672  -24.2903 O   0  0  0  0  0  0  0  0  0  0  0  0
   20.9585   38.1312  -24.4634 C   0  0  1  0  0  0  0  0  0  0  0  0
   17.1221   36.3888  -26.1820 C   0  0  1  0  0  0  0  0  0  0  0  0
   20.8215   37.4335  -23.3046 O   0  0  0  0  0  0  0  0  0  0  0  0
   17.5754   35.7533  -27.2694 O   0  0  0  0  0  0  0  0  0  0  0  0
   21.9092   39.3603  -24.2499 C   0  0  1  0  0  0  0  0  0  0  0  0
   15.6619   36.8571  -26.3762 C   0  0  1  0  0  0  0  0  0  0  0  0
   22.6130   39.2412  -22.9445 O   0  0  0  0  0  0  0  0  0  0  0  0
   15.0089   36.0919  -27.4868 O   0  0  0  0  0  0  0  0  0  0  0  0
   22.7501   39.3541  -25.2340 C   0  0  2  0  0  0  0  0  0  0  0  0
   15.0749   36.5856  -25.2614 C   0  0  2  0  0  0  0  0  0  0  0  0
   20.0215   43.5866  -27.0948 N   0  0  0  0  0  0  0  0  0  0  0  0
   19.6160   42.7582  -26.0915 C   0  0  0  0  0  0  0  0  0  0  0  0
   20.3901   41.7005  -25.6872 N   0  0  0  0  0  0  0  0  0  0  0  0
   21.5877   41.4787  -26.3091 C   0  0  0  0  0  0  0  0  0  0  0  0
   21.9967   42.2805  -27.3022 C   0  0  0  0  0  0  0  0  0  0  0  0
   21.2083   43.3587  -27.7006 C   0  0  0  0  0  0  0  0  0  0  0  0
   21.5221   44.2724  -28.7261 N   0  0  0  0  0  0  0  0  0  0  0  0
   23.1999   41.8366  -27.7235 N   0  0  0  0  0  0  0  0  0  0  0  0
   23.5263   40.7415  -26.9795 C   0  0  0  0  0  0  0  0  0  0  0  0
   22.5424   40.5296  -26.0956 N   0  0  0  0  0  0  0  0  0  0  0  0
   15.1469   41.7659  -24.7321 N   0  0  0  0  0  0  0  0  0  0  0  0
   15.8965   41.0244  -25.5892 C   0  0  0  0  0  0  0  0  0  0  0  0
   15.7628   39.6645  -25.5994 N   0  0  0  0  0  0  0  0  0  0  0  0
   14.8810   39.0564  -24.7610 C   0  0  0  0  0  0  0  0  0  0  0  0
   14.1305   39.7861  -23.9110 C   0  0  0  0  0  0  0  0  0  0  0  0
   14.2759   41.1703  -23.9044 C   0  0  0  0  0  0  0  0  0  0  0  0
   13.5985   42.1347  -23.0760 N   0  0  0  0  0  0  0  0  0  0  0  0
   13.3582   38.9226  -23.2090 N   0  0  0  0  0  0  0  0  0  0  0  0
   13.6344   37.6574  -23.6367 C   0  0  0  0  0  0  0  0  0  0  0  0
   14.5749   37.7511  -24.5983 N   0  0  0  0  0  0  0  0  0  0  0  0
  1  3  1  6  0  0  0
  1  5  2  0  0  0  0
  1  9  1  0  0  0  0
  1 18  1  0  0  0  0
  2  4  1  1  0  0  0
  2  6  2  0  0  0  0
  2 10  1  0  0  0  0
  2 17  1  0  0  0  0
  7  9  1  0  0  0  0
  8 10  1  0  0  0  0
 11  7  1  6  0  0  0
 11 13  1  0  0  0  0
 11 15  1  0  0  0  0
 12  8  1  1  0  0  0
 12 14  1  0  0  0  0
 12 16  1  0  0  0  0
 13 23  1  0  0  0  0
 14 24  1  0  0  0  0
 15 17  1  1  0  0  0
 15 19  1  0  0  0  0
 16 18  1  6  0  0  0
 16 20  1  0  0  0  0
 19 21  1  1  0  0  0
 19 23  1  0  0  0  0
 20 22  1  6  0  0  0
 20 24  1  0  0  0  0
 23 34  1  6  0  0  0
 24 44  1  1  0  0  0
 25 26  2  0  0  0  0
 25 30  1  0  0  0  0
 26 27  1  0  0  0  0
 27 28  2  0  0  0  0
 28 29  1  0  0  0  0
 28 34  1  0  0  0  0
 29 30  2  0  0  0  0
 29 32  1  0  0  0  0
 30 31  1  0  0  0  0
 32 33  2  0  0  0  0
 33 34  1  0  0  0  0
 35 36  2  0  0  0  0
 35 40  1  0  0  0  0
 36 37  1  0  0  0  0
 37 38  2  0  0  0  0
 38 39  1  0  0  0  0
 38 44  1  0  0  0  0
 39 40  2  0  0  0  0
 39 42  1  0  0  0  0
 40 41  1  0  0  0  0
 42 43  2  0  0  0  0
 43 44  1  0  0  0  0
M  CHG  2   3  -1   4  -1
M  END
>  <CHROM.1>
104.35094591,102.32893230,18.67951104,38.76376651,-25.39721242,-2.71588458
0.22041682,-0.10814470

>  <Name>
ligand

>  <RI>
0

>  <Rbt.Current_Directory>
/home/itssahil/PROJECTS/Mol_Feturizer/New_Systems/rnas/4QLM

>  <Rbt.Executable>
rbdock ($Id: //depot/dev/client3/rdock/2013.1/src/exe/rbdock.cxx#4 $)

>  <Rbt.Library>
libRbt.so (2013.1, Build901 2013/11/27)

>  <Rbt.Parameter_File>
/export/apps/rDock/src/rDock_2013.1_src/data/scripts/dock_solv.prm

>  <Rbt.Receptor>
prm/blind_docking_100.prm

>  <SCORE>
96.7538

>  <SCORE.INTER>
86.3653

>  <SCORE.INTER.CONST>
1

>  <SCORE.INTER.POLAR>
0

>  <SCORE.INTER.ROT>
2

>  <SCORE.INTER.SOLV>
50.2024

>  <SCORE.INTER.VDW>
35.9094

>  <SCORE.INTER.norm>
1.96285

>  <SCORE.INTRA>
-0.231217

>  <SCORE.INTRA.DIHEDRAL>
0.00884992

>  <SCORE.INTRA.DIHEDRAL.0>
2.32994

>  <SCORE.INTRA.POLAR>
0

>  <SCORE.INTRA.POLAR.0>
0

>  <SCORE.INTRA.REPUL>
0

>  <SCORE.INTRA.REPUL.0>
0

>  <SCORE.INTRA.SOLV>
0.0325263

>  <SCORE.INTRA.SOLV.lig_0>
-117.703

>  <SCORE.INTRA.VDW>
-0.251905

>  <SCORE.INTRA.VDW.0>
-1.59997

>  <SCORE.INTRA.norm>
-0.00525493

>  <SCORE.RESTR>
10.6198

>  <SCORE.RESTR.CAVITY>
10.6198

>  <SCORE.RESTR.norm>
0.241359

>  <SCORE.SYSTEM>
0

>  <SCORE.SYSTEM.CONST>
0

>  <SCORE.SYSTEM.DIHEDRAL>
0

>  <SCORE.SYSTEM.SOLV>
0

>  <SCORE.SYSTEM.norm>
0

>  <SCORE.heavy>
44

>  <SCORE.norm>
2.19895

>  <RMSD>
28.267

$$$$
ligand
 OpenBabel11021811513D
libRbt.so/2013.1/901 2013/11/27
 44 50  0  0  0  0  0  0  0  0999 V2000
   14.2422   23.4671   -4.9993 P   0  0  2  0  0  0  0  0  0  0  0  0
   17.0540   27.7835   -3.3659 P   0  0  1  0  0  0  0  0  0  0  0  0
   12.8910   23.4889   -5.7094 O   0  5  0  0  0  0  0  0  0  0  0  0
   17.5629   27.4177   -1.9929 O   0  5  0  0  0  0  0  0  0  0  0  0
   14.3204   22.1378   -4.2878 O   0  0  0  0  0  0  0  0  0  0  0  0
   17.8159   29.0502   -3.8176 O   0  0  0  0  0  0  0  0  0  0  0  0
   13.4187   25.8100   -4.4757 C   0  0  0  0  0  0  0  0  0  0  0  0
   16.6807   26.5369   -5.5963 C   0  0  0  0  0  0  0  0  0  0  0  0
   14.2148   24.7000   -4.0391 O   0  0  0  0  0  0  0  0  0  0  0  0
   17.2283   26.4101   -4.2537 O   0  0  0  0  0  0  0  0  0  0  0  0
   13.4429   26.9180   -3.4282 C   0  0  1  0  0  0  0  0  0  0  0  0
   17.0496   25.2036   -6.3497 C   0  0  1  0  0  0  0  0  0  0  0  0
   12.5341   26.6553   -2.5408 O   0  0  0  0  0  0  0  0  0  0  0  0
   18.2994   25.0568   -6.1750 O   0  0  0  0  0  0  0  0  0  0  0  0
   14.7574   27.0100   -2.6880 C   0  0  1  0  0  0  0  0  0  0  0  0
   16.4623   23.9779   -5.6218 C   0  0  1  0  0  0  0  0  0  0  0  0
   15.4522   28.0317   -3.2550 O   0  0  0  0  0  0  0  0  0  0  0  0
   15.3547   23.5343   -6.2287 O   0  0  0  0  0  0  0  0  0  0  0  0
   14.3314   27.3862   -1.2261 C   0  0  1  0  0  0  0  0  0  0  0  0
   17.5636   22.8934   -5.6061 C   0  0  1  0  0  0  0  0  0  0  0  0
   14.5450   28.8394   -0.9896 O   0  0  0  0  0  0  0  0  0  0  0  0
   17.2896   21.8522   -6.6482 O   0  0  0  0  0  0  0  0  0  0  0  0
   13.0799   27.0755   -1.1128 C   0  0  2  0  0  0  0  0  0  0  0  0
   18.6513   23.5203   -5.8977 C   0  0  2  0  0  0  0  0  0  0  0  0
   11.2981   24.8255    3.4241 N   0  0  0  0  0  0  0  0  0  0  0  0
   11.0578   26.1060    3.0244 C   0  0  0  0  0  0  0  0  0  0  0  0
   11.5594   26.5868    1.8418 N   0  0  0  0  0  0  0  0  0  0  0  0
   12.3154   25.7606    1.0569 C   0  0  0  0  0  0  0  0  0  0  0  0
   12.5664   24.5010    1.4401 C   0  0  0  0  0  0  0  0  0  0  0  0
   12.0450   24.0174    2.6388 C   0  0  0  0  0  0  0  0  0  0  0  0
   12.2334   22.7195    3.1534 N   0  0  0  0  0  0  0  0  0  0  0  0
   13.3227   23.9207    0.4843 N   0  0  0  0  0  0  0  0  0  0  0  0
   13.5425   24.8445   -0.4943 C   0  0  0  0  0  0  0  0  0  0  0  0
   12.9083   25.9735   -0.1519 N   0  0  0  0  0  0  0  0  0  0  0  0
   20.1096   21.5645   -1.2968 N   0  0  0  0  0  0  0  0  0  0  0  0
   18.9594   21.2954   -1.9683 C   0  0  0  0  0  0  0  0  0  0  0  0
   18.7222   21.9011   -3.1700 N   0  0  0  0  0  0  0  0  0  0  0  0
   19.6339   22.7639   -3.6943 C   0  0  0  0  0  0  0  0  0  0  0  0
   20.7795   23.0322   -3.0357 C   0  0  0  0  0  0  0  0  0  0  0  0
   21.0113   22.4140   -1.8104 C   0  0  0  0  0  0  0  0  0  0  0  0
   22.1448   22.5660   -0.9345 N   0  0  0  0  0  0  0  0  0  0  0  0
   21.4811   23.9149   -3.7864 N   0  0  0  0  0  0  0  0  0  0  0  0
   20.7621   24.1835   -4.9137 C   0  0  0  0  0  0  0  0  0  0  0  0
   19.6231   23.4647   -4.8486 N   0  0  0  0  0  0  0  0  0  0  0  0
  1  3  1  6  0  0  0
  1  5  2  0  0  0  0
  1  9  1  0  0  0  0
  1 18  1  0  0  0  0
  2  4  1  1  0  0  0
  2  6  2  0  0  0  0
  2 10  1  0  0  0  0
  2 17  1  0  0  0  0
  7  9  1  0  0  0  0
  8 10  1  0  0  0  0
 11  7  1  6  0  0  0
 11 13  1  0  0  0  0
 11 15  1  0  0  0  0
 12  8  1  1  0  0  0
 12 14  1  0  0  0  0
 12 16  1  0  0  0  0
 13 23  1  0  0  0  0
 14 24  1  0  0  0  0
 15 17  1  6  0  0  0
 15 19  1  0  0  0  0
 16 18  1  6  0  0  0
 16 20  1  0  0  0  0
 19 21  1  6  0  0  0
 19 23  1  0  0  0  0
 20 22  1  6  0  0  0
 20 24  1  0  0  0  0
 23 34  1  1  0  0  0
 24 44  1  1  0  0  0
 25 26  2  0  0  0  0
 25 30  1  0  0  0  0
 26 27  1  0  0  0  0
 27 28  2  0  0  0  0
 28 29  1  0  0  0  0
 28 34  1  0  0  0  0
 29 30  2  0  0  0  0
 29 32  1  0  0  0  0
 30 31  1  0  0  0  0
 32 33  2  0  0  0  0
 33 34  1  0  0  0  0
 35 36  2  0  0  0  0
 35 40  1  0  0  0  0
 36 37  1  0  0  0  0
 37 38  2  0  0  0  0
 38 39  1  0  0  0  0
 38 44  1  0  0  0  0
 39 40  2  0  0  0  0
 39 42  1  0  0  0  0
 40 41  1  0  0  0  0
 42 43  2  0  0  0  0
 43 44  1  0  0  0  0
M  CHG  2   3  -1   4  -1
M  END
>  <CHROM.1>
-123.79539600,128.03120890,15.88364427,24.89055164,-2.75751366,0.47667848
0.54477168,-1.15859089

>  <Name>
ligand

>  <RI>
0

>  <Rbt.Current_Directory>
/home/itssahil/PROJECTS/Mol_Feturizer/New_Systems/rnas/4QLM

>  <Rbt.Executable>
rbdock ($Id: //depot/dev/client3/rdock/2013.1/src/exe/rbdock.cxx#4 $)

>  <Rbt.Library>
libRbt.so (2013.1, Build901 2013/11/27)

>  <Rbt.Parameter_File>
/export/apps/rDock/src/rDock_2013.1_src/data/scripts/dock_solv.prm

>  <Rbt.Receptor>
prm/blind_docking_100.prm

>  <SCORE>
101.167

>  <SCORE.INTER>
85.6481

>  <SCORE.INTER.CONST>
1

>  <SCORE.INTER.POLAR>
0

>  <SCORE.INTER.ROT>
2

>  <SCORE.INTER.SOLV>
51.5927

>  <SCORE.INTER.VDW>
34.9678

>  <SCORE.INTER.norm>
1.94655

>  <SCORE.INTRA>
1.1529

>  <SCORE.INTRA.DIHEDRAL>
0.0540791

>  <SCORE.INTRA.DIHEDRAL.0>
2.32994

>  <SCORE.INTRA.POLAR>
0

>  <SCORE.INTRA.POLAR.0>
0

>  <SCORE.INTRA.REPUL>
0

>  <SCORE.INTRA.REPUL.0>
0

>  <SCORE.INTRA.SOLV>
0.046199

>  <SCORE.INTRA.SOLV.lig_0>
-117.703

>  <SCORE.INTRA.VDW>
1.10277

>  <SCORE.INTRA.VDW.0>
-1.59997

>  <SCORE.INTRA.norm>
0.0262024

>  <SCORE.RESTR>
14.366

>  <SCORE.RESTR.CAVITY>
14.366

>  <SCORE.RESTR.norm>
0.3265

>  <SCORE.SYSTEM>
0

>  <SCORE.SYSTEM.CONST>
0

>  <SCORE.SYSTEM.DIHEDRAL>
0

>  <SCORE.SYSTEM.SOLV>
0

>  <SCORE.SYSTEM.norm>
0

>  <SCORE.heavy>
44

>  <SCORE.norm>
2.29925

>  <RMSD>
28.295

$$$$
ligand
 OpenBabel11021811513D
libRbt.so/2013.1/901 2013/11/27
 44 50  0  0  0  0  0  0  0  0999 V2000
   19.7590   35.8817  -27.7366 P   0  0  2  0  0  0  0  0  0  0  0  0
   19.3500   37.5680  -22.6185 P   0  0  1  0  0  0  0  0  0  0  0  0
   20.9559   35.1637  -28.3550 O   0  5  0  0  0  0  0  0  0  0  0  0
   18.7300   38.9409  -22.7112 O   0  5  0  0  0  0  0  0  0  0  0  0
   19.0568   36.5825  -28.8747 O   0  0  0  0  0  0  0  0  0  0  0  0
   19.2843   37.1314  -21.1373 O   0  0  0  0  0  0  0  0  0  0  0  0
   21.6014   36.4199  -26.0762 C   0  0  0  0  0  0  0  0  0  0  0  0
   19.0803   35.3250  -23.8693 C   0  0  0  0  0  0  0  0  0  0  0  0
   20.3727   36.8519  -26.6761 O   0  0  0  0  0  0  0  0  0  0  0  0
   18.5403   36.6698  -23.7331 O   0  0  0  0  0  0  0  0  0  0  0  0
   22.1103   37.4767  -25.1016 C   0  0  1  0  0  0  0  0  0  0  0  0
   18.1189   34.5627  -24.8573 C   0  0  1  0  0  0  0  0  0  0  0  0
   22.7847   38.3564  -25.7752 O   0  0  0  0  0  0  0  0  0  0  0  0
   16.9508   34.7437  -24.3917 O   0  0  0  0  0  0  0  0  0  0  0  0
   20.9999   38.2255  -24.4011 C   0  0  1  0  0  0  0  0  0  0  0  0
   18.0510   35.2768  -26.2220 C   0  0  1  0  0  0  0  0  0  0  0  0
   20.8762   37.6713  -23.1659 O   0  0  0  0  0  0  0  0  0  0  0  0
   18.8118   34.6596  -27.1342 O   0  0  0  0  0  0  0  0  0  0  0  0
   21.5557   39.6880  -24.2887 C   0  0  1  0  0  0  0  0  0  0  0  0
   16.5657   35.2901  -26.6496 C   0  0  1  0  0  0  0  0  0  0  0  0
   22.0618   39.9379  -22.9122 O   0  0  0  0  0  0  0  0  0  0  0  0
   16.3083   34.2377  -27.6848 O   0  0  0  0  0  0  0  0  0  0  0  0
   22.5074   39.7911  -25.1601 C   0  0  2  0  0  0  0  0  0  0  0  0
   15.9086   35.0103  -25.5768 C   0  0  2  0  0  0  0  0  0  0  0  0
   19.5037   43.6441  -27.3858 N   0  0  0  0  0  0  0  0  0  0  0  0
   19.3164   43.1058  -26.1480 C   0  0  0  0  0  0  0  0  0  0  0  0
   20.1436   42.1222  -25.6686 N   0  0  0  0  0  0  0  0  0  0  0  0
   21.1707   41.6776  -26.4544 C   0  0  0  0  0  0  0  0  0  0  0  0
   21.3633   42.1922  -27.6769 C   0  0  0  0  0  0  0  0  0  0  0  0
   20.5239   43.1981  -28.1526 C   0  0  0  0  0  0  0  0  0  0  0  0
   20.6182   43.8203  -29.4132 N   0  0  0  0  0  0  0  0  0  0  0  0
   22.4366   41.5792  -28.2195 N   0  0  0  0  0  0  0  0  0  0  0  0
   22.9015   40.6706  -27.3153 C   0  0  0  0  0  0  0  0  0  0  0  0
   22.1336   40.7417  -26.2202 N   0  0  0  0  0  0  0  0  0  0  0  0
   15.1956   40.0846  -24.6477 N   0  0  0  0  0  0  0  0  0  0  0  0
   16.3459   39.4844  -25.0514 C   0  0  0  0  0  0  0  0  0  0  0  0
   16.3692   38.1320  -25.2452 N   0  0  0  0  0  0  0  0  0  0  0  0
   15.2468   37.3910  -25.0410 C   0  0  0  0  0  0  0  0  0  0  0  0
   14.1006   37.9804  -24.6448 C   0  0  0  0  0  0  0  0  0  0  0  0
   14.0867   39.3579  -24.4459 C   0  0  0  0  0  0  0  0  0  0  0  0
   12.9912   40.1855  -24.0102 N   0  0  0  0  0  0  0  0  0  0  0  0
   13.1663   37.0073  -24.5217 N   0  0  0  0  0  0  0  0  0  0  0  0
   13.7439   35.8163  -24.8501 C   0  0  0  0  0  0  0  0  0  0  0  0
   15.0294   36.0647  -25.1726 N   0  0  0  0  0  0  0  0  0  0  0  0
  1  3  1  6  0  0  0
  1  5  2  0  0  0  0
  1  9  1  0  0  0  0
  1 18  1  0  0  0  0
  2  4  1  6  0  0  0
  2  6  2  0  0  0  0
  2 10  1  0  0  0  0
  2 17  1  0  0  0  0
  7  9  1  0  0  0  0
  8 10  1  0  0  0  0
 11  7  1  6  0  0  0
 11 13  1  0  0  0  0
 11 15  1  0  0  0  0
 12  8  1  1  0  0  0
 12 14  1  0  0  0  0
 12 16  1  0  0  0  0
 13 23  1  0  0  0  0
 14 24  1  0  0  0  0
 15 17  1  1  0  0  0
 15 19  1  0  0  0  0
 16 18  1  6  0  0  0
 16 20  1  0  0  0  0
 19 21  1  1  0  0  0
 19 23  1  0  0  0  0
 20 22  1  6  0  0  0
 20 24  1  0  0  0  0
 23 34  1  6  0  0  0
 24 44  1  1  0  0  0
 25 26  2  0  0  0  0
 25 30  1  0  0  0  0
 26 27  1  0  0  0  0
 27 28  2  0  0  0  0
 28 29  1  0  0  0  0
 28 34  1  0  0  0  0
 29 30  2  0  0  0  0
 29 32  1  0  0  0  0
 30 31  1  0  0  0  0
 32 33  2  0  0  0  0
 33 34  1  0  0  0  0
 35 36  2  0  0  0  0
 35 40  1  0  0  0  0
 36 37  1  0  0  0  0
 37 38  2  0  0  0  0
 38 39  1  0  0  0  0
 38 44  1  0  0  0  0
 39 40  2  0  0  0  0
 39 42  1  0  0  0  0
 40 41  1  0  0  0  0
 42 43  2  0  0  0  0
 43 44  1  0  0  0  0
M  CHG  2   3  -1   4  -1
M  END
>  <CHROM.1>
132.02589834,72.37588117,18.87779641,38.13260025,-25.53386130,-2.42603221
0.24625982,-0.03911252

>  <Name>
ligand

>  <RI>
0

>  <Rbt.Current_Directory>
/home/itssahil/PROJECTS/Mol_Feturizer/New_Systems/rnas/4QLM

>  <Rbt.Executable>
rbdock ($Id: //depot/dev/client3/rdock/2013.1/src/exe/rbdock.cxx#4 $)

>  <Rbt.Library>
libRbt.so (2013.1, Build901 2013/11/27)

>  <Rbt.Parameter_File>
/export/apps/rDock/src/rDock_2013.1_src/data/scripts/dock_solv.prm

>  <Rbt.Receptor>
prm/blind_docking_100.prm

>  <SCORE>
75.1458

>  <SCORE.INTER>
64.6042

>  <SCORE.INTER.CONST>
1

>  <SCORE.INTER.POLAR>
0

>  <SCORE.INTER.ROT>
2

>  <SCORE.INTER.SOLV>
51.1712

>  <SCORE.INTER.VDW>
21.0791

>  <SCORE.INTER.norm>
1.46828

>  <SCORE.INTRA>
-0.89455

>  <SCORE.INTRA.DIHEDRAL>
0.145307

>  <SCORE.INTRA.DIHEDRAL.0>
2.32994

>  <SCORE.INTRA.POLAR>
0

>  <SCORE.INTRA.POLAR.0>
0

>  <SCORE.INTRA.REPUL>
0

>  <SCORE.INTRA.REPUL.0>
0

>  <SCORE.INTRA.SOLV>
0.453185

>  <SCORE.INTRA.SOLV.lig_0>
-117.703

>  <SCORE.INTRA.VDW>
-1.1938

>  <SCORE.INTRA.VDW.0>
-1.59997

>  <SCORE.INTRA.norm>
-0.0203307

>  <SCORE.RESTR>
11.4362

>  <SCORE.RESTR.CAVITY>
11.4362

>  <SCORE.RESTR.norm>
0.259913

>  <SCORE.SYSTEM>
0

>  <SCORE.SYSTEM.CONST>
0

>  <SCORE.SYSTEM.DIHEDRAL>
0

>  <SCORE.SYSTEM.SOLV>
0

>  <SCORE.SYSTEM.norm>
0

>  <SCORE.heavy>
44

>  <SCORE.norm>
1.70786

>  <RMSD>
28.298

$$$$
ligand
 OpenBabel11021811513D
libRbt.so/2013.1/901 2013/11/27
 44 50  0  0  0  0  0  0  0  0999 V2000
   20.1130   35.7267  -27.5457 P   0  0  2  0  0  0  0  0  0  0  0  0
   19.3075   37.5707  -22.5300 P   0  0  1  0  0  0  0  0  0  0  0  0
   21.3901   35.0762  -28.0714 O   0  5  0  0  0  0  0  0  0  0  0  0
   18.5964   38.8895  -22.7115 O   0  5  0  0  0  0  0  0  0  0  0  0
   19.4249   36.3301  -28.7465 O   0  0  0  0  0  0  0  0  0  0  0  0
   19.1932   37.1868  -21.0372 O   0  0  0  0  0  0  0  0  0  0  0  0
   21.8194   36.4620  -25.8169 C   0  0  0  0  0  0  0  0  0  0  0  0
   19.2676   35.2681  -23.6984 C   0  0  0  0  0  0  0  0  0  0  0  0
   20.5971   36.7791  -26.4965 O   0  0  0  0  0  0  0  0  0  0  0  0
   18.6258   36.5735  -23.6463 O   0  0  0  0  0  0  0  0  0  0  0  0
   22.1975   37.5897  -24.8625 C   0  0  1  0  0  0  0  0  0  0  0  0
   18.4183   34.4000  -24.7017 C   0  0  1  0  0  0  0  0  0  0  0  0
   22.8425   38.4907  -25.5368 O   0  0  0  0  0  0  0  0  0  0  0  0
   17.2167   34.5117  -24.3044 O   0  0  0  0  0  0  0  0  0  0  0  0
   21.0000   38.2804  -24.2516 C   0  0  1  0  0  0  0  0  0  0  0  0
   18.3733   35.0550  -26.0967 C   0  0  1  0  0  0  0  0  0  0  0  0
   20.8497   37.7657  -23.0023 O   0  0  0  0  0  0  0  0  0  0  0  0
   19.2248   34.4616  -26.9421 O   0  0  0  0  0  0  0  0  0  0  0  0
   21.4424   39.7831  -24.1720 C   0  0  1  0  0  0  0  0  0  0  0  0
   16.9162   34.9422  -26.6000 C   0  0  1  0  0  0  0  0  0  0  0  0
   21.8540   40.1217  -22.7830 O   0  0  0  0  0  0  0  0  0  0  0  0
   16.7914   33.8353  -27.6022 O   0  0  0  0  0  0  0  0  0  0  0  0
   22.4300   39.9232  -24.9970 C   0  0  2  0  0  0  0  0  0  0  0  0
   16.2238   34.6555  -25.5515 C   0  0  2  0  0  0  0  0  0  0  0  0
   19.5021   43.7349  -27.3887 N   0  0  0  0  0  0  0  0  0  0  0  0
   19.3549   43.3096  -26.1023 C   0  0  0  0  0  0  0  0  0  0  0  0
   20.1579   42.3262  -25.5831 N   0  0  0  0  0  0  0  0  0  0  0  0
   21.1193   41.7658  -26.3781 C   0  0  0  0  0  0  0  0  0  0  0  0
   21.2713   42.1685  -27.6474 C   0  0  0  0  0  0  0  0  0  0  0  0
   20.4574   43.1751  -28.1643 C   0  0  0  0  0  0  0  0  0  0  0  0
   20.5146   43.6868  -29.4757 N   0  0  0  0  0  0  0  0  0  0  0  0
   22.2834   41.4579  -28.1885 N   0  0  0  0  0  0  0  0  0  0  0  0
   22.7512   40.6026  -27.2352 C   0  0  0  0  0  0  0  0  0  0  0  0
   22.0469   40.8028  -26.1136 N   0  0  0  0  0  0  0  0  0  0  0  0
   15.1993   39.5645  -24.1473 N   0  0  0  0  0  0  0  0  0  0  0  0
   16.4257   39.0097  -24.3328 C   0  0  0  0  0  0  0  0  0  0  0  0
   16.5240   37.6962  -24.6965 N   0  0  0  0  0  0  0  0  0  0  0  0
   15.4015   36.9494  -24.8775 C   0  0  0  0  0  0  0  0  0  0  0  0
   14.1811   37.4946  -24.6997 C   0  0  0  0  0  0  0  0  0  0  0  0
   14.0902   38.8321  -24.3254 C   0  0  0  0  0  0  0  0  0  0  0  0
   12.9042   39.6071  -24.0649 N   0  0  0  0  0  0  0  0  0  0  0  0
   13.2656   36.5264  -24.9436 N   0  0  0  0  0  0  0  0  0  0  0  0
   13.9307   35.3838  -25.2780 C   0  0  0  0  0  0  0  0  0  0  0  0
   15.2506   35.6565  -25.2372 N   0  0  0  0  0  0  0  0  0  0  0  0
  1  3  1  6  0  0  0
  1  5  2  0  0  0  0
  1  9  1  0  0  0  0
  1 18  1  0  0  0  0
  2  4  1  6  0  0  0
  2  6  2  0  0  0  0
  2 10  1  0  0  0  0
  2 17  1  0  0  0  0
  7  9  1  0  0  0  0
  8 10  1  0  0  0  0
 11  7  1  6  0  0  0
 11 13  1  0  0  0  0
 11 15  1  0  0  0  0
 12  8  1  1  0  0  0
 12 14  1  0  0  0  0
 12 16  1  0  0  0  0
 13 23  1  0  0  0  0
 14 24  1  0  0  0  0
 15 17  1  1  0  0  0
 15 19  1  0  0  0  0
 16 18  1  6  0  0  0
 16 20  1  0  0  0  0
 19 21  1  1  0  0  0
 19 23  1  0  0  0  0
 20 22  1  6  0  0  0
 20 24  1  0  0  0  0
 23 34  1  6  0  0  0
 24 44  1  1  0  0  0
 25 26  2  0  0  0  0
 25 30  1  0  0  0  0
 26 27  1  0  0  0  0
 27 28  2  0  0  0  0
 28 29  1  0  0  0  0
 28 34  1  0  0  0  0
 29 30  2  0  0  0  0
 29 32  1  0  0  0  0
 30 31  1  0  0  0  0
 32 33  2  0  0  0  0
 33 34  1  0  0  0  0
 35 36  2  0  0  0  0
 35 40  1  0  0  0  0
 36 37  1  0  0  0  0
 37 38  2  0  0  0  0
 38 39  1  0  0  0  0
 38 44  1  0  0  0  0
 39 40  2  0  0  0  0
 39 42  1  0  0  0  0
 40 41  1  0  0  0  0
 42 43  2  0  0  0  0
 43 44  1  0  0  0  0
M  CHG  2   3  -1   4  -1
M  END
>  <CHROM.1>
141.59123358,56.68194519,18.97647880,37.99724976,-25.42097060,-2.36364495
0.28873186,-0.00019438

>  <Name>
ligand

>  <RI>
0

>  <Rbt.Current_Directory>
/home/itssahil/PROJECTS/Mol_Feturizer/New_Systems/rnas/4QLM

>  <Rbt.Executable>
rbdock ($Id: //depot/dev/client3/rdock/2013.1/src/exe/rbdock.cxx#4 $)

>  <Rbt.Library>
libRbt.so (2013.1, Build901 2013/11/27)

>  <Rbt.Parameter_File>
/export/apps/rDock/src/rDock_2013.1_src/data/scripts/dock_solv.prm

>  <Rbt.Receptor>
prm/blind_docking_100.prm

>  <SCORE>
69.3715

>  <SCORE.INTER>
58.0635

>  <SCORE.INTER.CONST>
1

>  <SCORE.INTER.POLAR>
0

>  <SCORE.INTER.ROT>
2

>  <SCORE.INTER.SOLV>
51.1823

>  <SCORE.INTER.VDW>
16.7149

>  <SCORE.INTER.norm>
1.31962

>  <SCORE.INTRA>
-0.348533

>  <SCORE.INTRA.DIHEDRAL>
0.166283

>  <SCORE.INTRA.DIHEDRAL.0>
2.32994

>  <SCORE.INTRA.POLAR>
0

>  <SCORE.INTRA.POLAR.0>
0

>  <SCORE.INTRA.REPUL>
0

>  <SCORE.INTRA.REPUL.0>
0

>  <SCORE.INTRA.SOLV>
1.13617

>  <SCORE.INTRA.SOLV.lig_0>
-117.703

>  <SCORE.INTRA.VDW>
-0.999759

>  <SCORE.INTRA.VDW.0>
-1.59997

>  <SCORE.INTRA.norm>
-0.00792121

>  <SCORE.RESTR>
11.6566

>  <SCORE.RESTR.CAVITY>
11.6566

>  <SCORE.RESTR.norm>
0.264922

>  <SCORE.SYSTEM>
0

>  <SCORE.SYSTEM.CONST>
0

>  <SCORE.SYSTEM.DIHEDRAL>
0

>  <SCORE.SYSTEM.SOLV>
0

>  <SCORE.SYSTEM.norm>
0

>  <SCORE.heavy>
44

>  <SCORE.norm>
1.57662

>  <RMSD>
28.301

$$$$
ligand
 OpenBabel11021811513D
libRbt.so/2013.1/901 2013/11/27
 44 50  0  0  0  0  0  0  0  0999 V2000
   20.3562   35.6902  -27.5924 P   0  0  2  0  0  0  0  0  0  0  0  0
   19.2752   37.4995  -22.6161 P   0  0  1  0  0  0  0  0  0  0  0  0
   21.6755   35.0830  -28.0627 O   0  5  0  0  0  0  0  0  0  0  0  0
   18.5293   38.7944  -22.8280 O   0  5  0  0  0  0  0  0  0  0  0  0
   19.7008   36.2722  -28.8217 O   0  0  0  0  0  0  0  0  0  0  0  0
   19.1096   37.1100  -21.1296 O   0  0  0  0  0  0  0  0  0  0  0  0
   21.9614   36.4791  -25.7919 C   0  0  0  0  0  0  0  0  0  0  0  0
   19.3618   35.1986  -23.7851 C   0  0  0  0  0  0  0  0  0  0  0  0
   20.7597   36.7566  -26.5234 O   0  0  0  0  0  0  0  0  0  0  0  0
   18.6755   36.4819  -23.7606 O   0  0  0  0  0  0  0  0  0  0  0  0
   22.2607   37.6174  -24.8221 C   0  0  1  0  0  0  0  0  0  0  0  0
   18.5856   34.3043  -24.8239 C   0  0  1  0  0  0  0  0  0  0  0  0
   22.9039   38.5401  -25.4680 O   0  0  0  0  0  0  0  0  0  0  0  0
   17.3650   34.3756  -24.4788 O   0  0  0  0  0  0  0  0  0  0  0  0
   21.0158   38.2672  -24.2633 C   0  0  1  0  0  0  0  0  0  0  0  0
   18.5790   34.9593  -26.2196 C   0  0  1  0  0  0  0  0  0  0  0  0
   20.8290   37.7461  -23.0216 O   0  0  0  0  0  0  0  0  0  0  0  0
   19.4852   34.3956  -27.0276 O   0  0  0  0  0  0  0  0  0  0  0  0
   21.4044   39.7836  -24.1648 C   0  0  1  0  0  0  0  0  0  0  0  0
   17.1494   34.7992  -26.7851 C   0  0  1  0  0  0  0  0  0  0  0  0
   21.7445   40.1337  -22.7593 O   0  0  0  0  0  0  0  0  0  0  0  0
   17.1045   33.6901  -27.7917 O   0  0  0  0  0  0  0  0  0  0  0  0
   22.4214   39.9575  -24.9466 C   0  0  2  0  0  0  0  0  0  0  0  0
   16.4224   34.4882  -25.7673 C   0  0  2  0  0  0  0  0  0  0  0  0
   19.5651   43.7761  -27.4125 N   0  0  0  0  0  0  0  0  0  0  0  0
   19.4046   43.3731  -26.1206 C   0  0  0  0  0  0  0  0  0  0  0  0
   20.1896   42.3857  -25.5820 N   0  0  0  0  0  0  0  0  0  0  0  0
   21.1464   41.7984  -26.3630 C   0  0  0  0  0  0  0  0  0  0  0  0
   21.3113   42.1791  -27.6375 C   0  0  0  0  0  0  0  0  0  0  0  0
   20.5157   43.1899  -28.1742 C   0  0  0  0  0  0  0  0  0  0  0  0
   20.5877   43.6804  -29.4930 N   0  0  0  0  0  0  0  0  0  0  0  0
   22.3152   41.4447  -28.1620 N   0  0  0  0  0  0  0  0  0  0  0  0
   22.7648   40.5973  -27.1930 C   0  0  0  0  0  0  0  0  0  0  0  0
   22.0577   40.8255  -26.0786 N   0  0  0  0  0  0  0  0  0  0  0  0
   15.1762   39.3400  -24.3433 N   0  0  0  0  0  0  0  0  0  0  0  0
   16.4268   38.8225  -24.4638 C   0  0  0  0  0  0  0  0  0  0  0  0
   16.5842   37.5193  -24.8435 N   0  0  0  0  0  0  0  0  0  0  0  0
   15.4962   36.7456  -25.1048 C   0  0  0  0  0  0  0  0  0  0  0  0
   14.2523   37.2537  -24.9917 C   0  0  0  0  0  0  0  0  0  0  0  0
   14.1011   38.5809  -24.6006 C   0  0  0  0  0  0  0  0  0  0  0  0
   12.8800   39.3180  -24.3989 N   0  0  0  0  0  0  0  0  0  0  0  0
   13.3810   36.2656  -25.3072 N   0  0  0  0  0  0  0  0  0  0  0  0
   14.0972   35.1481  -25.6204 C   0  0  0  0  0  0  0  0  0  0  0  0
   15.4040   35.4561  -25.4952 N   0  0  0  0  0  0  0  0  0  0  0  0
  1  3  1  6  0  0  0
  1  5  2  0  0  0  0
  1  9  1  0  0  0  0
  1 18  1  0  0  0  0
  2  4  1  6  0  0  0
  2  6  2  0  0  0  0
  2 10  1  0  0  0  0
  2 17  1  0  0  0  0
  7  9  1  0  0  0  0
  8 10  1  0  0  0  0
 11  7  1  6  0  0  0
 11 13  1  0  0  0  0
 11 15  1  0  0  0  0
 12  8  1  1  0  0  0
 12 14  1  0  0  0  0
 12 16  1  0  0  0  0
 13 23  1  0  0  0  0
 14 24  1  0  0  0  0
 15 17  1  1  0  0  0
 15 19  1  0  0  0  0
 16 18  1  6  0  0  0
 16 20  1  0  0  0  0
 19 21  1  1  0  0  0
 19 23  1  0  0  0  0
 20 22  1  6  0  0  0
 20 24  1  0  0  0  0
 23 34  1  6  0  0  0
 24 44  1  1  0  0  0
 25 26  2  0  0  0  0
 25 30  1  0  0  0  0
 26 27  1  0  0  0  0
 27 28  2  0  0  0  0
 28 29  1  0  0  0  0
 28 34  1  0  0  0  0
 29 30  2  0  0  0  0
 29 32  1  0  0  0  0
 30 31  1  0  0  0  0
 32 33  2  0  0  0  0
 33 34  1  0  0  0  0
 35 36  2  0  0  0  0
 35 40  1  0  0  0  0
 36 37  1  0  0  0  0
 37 38  2  0  0  0  0
 38 39  1  0  0  0  0
 38 44  1  0  0  0  0
 39 40  2  0  0  0  0
 39 42  1  0  0  0  0
 40 41  1  0  0  0  0
 42 43  2  0  0  0  0
 43 44  1  0  0  0  0
M  CHG  2   3  -1   4  -1
M  END
>  <CHROM.1>
145.22514050,55.25019113,19.06072119,37.92459866,-25.51008874,-2.32689121
0.25854890,0.00547603

>  <Name>
ligand

>  <RI>
0

>  <Rbt.Current_Directory>
/home/itssahil/PROJECTS/Mol_Feturizer/New_Systems/rnas/4QLM

>  <Rbt.Executable>
rbdock ($Id: //depot/dev/client3/rdock/2013.1/src/exe/rbdock.cxx#4 $)

>  <Rbt.Library>
libRbt.so (2013.1, Build901 2013/11/27)

>  <Rbt.Parameter_File>
/export/apps/rDock/src/rDock_2013.1_src/data/scripts/dock_solv.prm

>  <Rbt.Receptor>
prm/blind_docking_100.prm

>  <SCORE>
69.5191

>  <SCORE.INTER>
57.4848

>  <SCORE.INTER.CONST>
1

>  <SCORE.INTER.POLAR>
0

>  <SCORE.INTER.ROT>
2

>  <SCORE.INTER.SOLV>
50.7486

>  <SCORE.INTER.VDW>
16.4737

>  <SCORE.INTER.norm>
1.30647

>  <SCORE.INTRA>
-0.0857491

>  <SCORE.INTRA.DIHEDRAL>
0.170557

>  <SCORE.INTRA.DIHEDRAL.0>
2.32994

>  <SCORE.INTRA.POLAR>
0

>  <SCORE.INTRA.POLAR.0>
0

>  <SCORE.INTRA.REPUL>
0

>  <SCORE.INTRA.REPUL.0>
0

>  <SCORE.INTRA.SOLV>
1.18731

>  <SCORE.INTRA.SOLV.lig_0>
-117.703

>  <SCORE.INTRA.VDW>
-0.764682

>  <SCORE.INTRA.VDW.0>
-1.59997

>  <SCORE.INTRA.norm>
-0.00194884

>  <SCORE.RESTR>
12.12

>  <SCORE.RESTR.CAVITY>
12.12

>  <SCORE.RESTR.norm>
0.275456

>  <SCORE.SYSTEM>
0

>  <SCORE.SYSTEM.CONST>
0

>  <SCORE.SYSTEM.DIHEDRAL>
0

>  <SCORE.SYSTEM.SOLV>
0

>  <SCORE.SYSTEM.norm>
0

>  <SCORE.heavy>
44

>  <SCORE.norm>
1.57998

>  <RMSD>
28.391

$$$$
ligand
 OpenBabel11021811513D
libRbt.so/2013.1/901 2013/11/27
 44 50  0  0  0  0  0  0  0  0999 V2000
   13.6510   24.2645   -4.8764 P   0  0  2  0  0  0  0  0  0  0  0  0
   16.4255   23.0805   -0.3924 P   0  0  1  0  0  0  0  0  0  0  0  0
   13.2608   23.2835   -5.9790 O   0  5  0  0  0  0  0  0  0  0  0  0
   17.4089   24.2145   -0.2344 O   0  5  0  0  0  0  0  0  0  0  0  0
   13.7162   25.6244   -5.5291 O   0  0  0  0  0  0  0  0  0  0  0  0
   16.4203   22.2865    0.9337 O   0  0  0  0  0  0  0  0  0  0  0  0
   15.2400   22.3343   -4.4397 C   0  0  0  0  0  0  0  0  0  0  0  0
   13.9799   22.8462   -1.1877 C   0  0  0  0  0  0  0  0  0  0  0  0
   15.0275   23.7493   -4.3448 O   0  0  0  0  0  0  0  0  0  0  0  0
   15.0294   23.8046   -0.8736 O   0  0  0  0  0  0  0  0  0  0  0  0
   16.6331   21.9772   -3.9326 C   0  0  1  0  0  0  0  0  0  0  0  0
   12.6868   23.6933   -1.4905 C   0  0  1  0  0  0  0  0  0  0  0  0
   17.4720   22.1372   -4.9089 O   0  0  0  0  0  0  0  0  0  0  0  0
   12.5649   24.4808   -0.5011 O   0  0  0  0  0  0  0  0  0  0  0  0
   17.1041   22.8682   -2.8063 C   0  0  1  0  0  0  0  0  0  0  0  0
   12.9251   24.6635   -2.6648 C   0  0  1  0  0  0  0  0  0  0  0  0
   16.9054   22.1755   -1.6535 O   0  0  0  0  0  0  0  0  0  0  0  0
   12.3902   24.1969   -3.7997 O   0  0  0  0  0  0  0  0  0  0  0  0
   18.6388   23.0336   -3.0846 C   0  0  1  0  0  0  0  0  0  0  0  0
   12.2952   26.0172   -2.2651 C   0  0  1  0  0  0  0  0  0  0  0  0
   19.4203   22.1438   -2.1842 O   0  0  0  0  0  0  0  0  0  0  0  0
   10.9780   26.2067   -2.9539 O   0  0  0  0  0  0  0  0  0  0  0  0
   18.8266   22.7196   -4.3264 C   0  0  2  0  0  0  0  0  0  0  0  0
   12.1089   25.9342   -0.9926 C   0  0  2  0  0  0  0  0  0  0  0  0
   20.9221   25.2443   -8.5756 N   0  0  0  0  0  0  0  0  0  0  0  0
   20.7450   23.8981   -8.4588 C   0  0  0  0  0  0  0  0  0  0  0  0
   20.1970   23.3494   -7.3273 N   0  0  0  0  0  0  0  0  0  0  0  0
   19.8270   24.1750   -6.3017 C   0  0  0  0  0  0  0  0  0  0  0  0
   20.0017   25.5002   -6.3991 C   0  0  0  0  0  0  0  0  0  0  0  0
   20.5505   26.0505   -7.5561 C   0  0  0  0  0  0  0  0  0  0  0  0
   20.7854   27.4208   -7.7838 N   0  0  0  0  0  0  0  0  0  0  0  0
   19.5496   26.0620   -5.2579 N   0  0  0  0  0  0  0  0  0  0  0  0
   19.0986   25.0616   -4.4486 C   0  0  0  0  0  0  0  0  0  0  0  0
   19.2525   23.8996   -5.0967 N   0  0  0  0  0  0  0  0  0  0  0  0
   16.7398   27.7469    0.5533 N   0  0  0  0  0  0  0  0  0  0  0  0
   16.5102   26.6536   -0.2203 C   0  0  0  0  0  0  0  0  0  0  0  0
   15.2262   26.3055   -0.5325 N   0  0  0  0  0  0  0  0  0  0  0  0
   14.1839   27.0515   -0.0768 C   0  0  0  0  0  0  0  0  0  0  0  0
   14.4044   28.1403    0.6875 C   0  0  0  0  0  0  0  0  0  0  0  0
   15.7151   28.4854    1.0040 C   0  0  0  0  0  0  0  0  0  0  0  0
   16.1782   29.5841    1.8124 N   0  0  0  0  0  0  0  0  0  0  0  0
   13.1967   28.6738    0.9904 N   0  0  0  0  0  0  0  0  0  0  0  0
   12.2323   27.9093    0.4028 C   0  0  0  0  0  0  0  0  0  0  0  0
   12.8530   26.9107   -0.2571 N   0  0  0  0  0  0  0  0  0  0  0  0
  1  3  1  6  0  0  0
  1  5  2  0  0  0  0
  1  9  1  0  0  0  0
  1 18  1  0  0  0  0
  2  4  1  1  0  0  0
  2  6  2  0  0  0  0
  2 10  1  0  0  0  0
  2 17  1  0  0  0  0
  7  9  1  0  0  0  0
  8 10  1  0  0  0  0
 11  7  1  6  0  0  0
 11 13  1  0  0  0  0
 11 15  1  0  0  0  0
 12  8  1  1  0  0  0
 12 14  1  0  0  0  0
 12 16  1  0  0  0  0
 13 23  1  0  0  0  0
 14 24  1  0  0  0  0
 15 17  1  1  0  0  0
 15 19  1  0  0  0  0
 16 18  1  6  0  0  0
 16 20  1  0  0  0  0
 19 21  1  1  0  0  0
 19 23  1  0  0  0  0
 20 22  1  6  0  0  0
 20 24  1  0  0  0  0
 23 34  1  6  0  0  0
 24 44  1  1  0  0  0
 25 26  2  0  0  0  0
 25 30  1  0  0  0  0
 26 27  1  0  0  0  0
 27 28  2  0  0  0  0
 28 29  1  0  0  0  0
 28 34  1  0  0  0  0
 29 30  2  0  0  0  0
 29 32  1  0  0  0  0
 30 31  1  0  0  0  0
 32 33  2  0  0  0  0
 33 34  1  0  0  0  0
 35 36  2  0  0  0  0
 35 40  1  0  0  0  0
 36 37  1  0  0  0  0
 37 38  2  0  0  0  0
 38 39  1  0  0  0  0
 38 44  1  0  0  0  0
 39 40  2  0  0  0  0
 39 42  1  0  0  0  0
 40 41  1  0  0  0  0
 42 43  2  0  0  0  0
 43 44  1  0  0  0  0
M  CHG  2   3  -1   4  -1
M  END
>  <CHROM.1>
-75.95405187,53.15830611,15.99802900,24.76599244,-2.86683371,2.34599110,0.20912212
1.05109176

>  <Name>
ligand

>  <RI>
0

>  <Rbt.Current_Directory>
/home/itssahil/PROJECTS/Mol_Feturizer/New_Systems/rnas/4QLM

>  <Rbt.Executable>
rbdock ($Id: //depot/dev/client3/rdock/2013.1/src/exe/rbdock.cxx#4 $)

>  <Rbt.Library>
libRbt.so (2013.1, Build901 2013/11/27)

>  <Rbt.Parameter_File>
/export/apps/rDock/src/rDock_2013.1_src/data/scripts/dock_solv.prm

>  <Rbt.Receptor>
prm/blind_docking_100.prm

>  <SCORE>
72.7207

>  <SCORE.INTER>
51.4774

>  <SCORE.INTER.CONST>
1

>  <SCORE.INTER.POLAR>
0

>  <SCORE.INTER.ROT>
2

>  <SCORE.INTER.SOLV>
51.4361

>  <SCORE.INTER.VDW>
12.2395

>  <SCORE.INTER.norm>
1.16994

>  <SCORE.INTRA>
4.49049

>  <SCORE.INTRA.DIHEDRAL>
0.13734

>  <SCORE.INTRA.DIHEDRAL.0>
2.32994

>  <SCORE.INTRA.POLAR>
0

>  <SCORE.INTRA.POLAR.0>
0

>  <SCORE.INTRA.REPUL>
0

>  <SCORE.INTRA.REPUL.0>
0

>  <SCORE.INTRA.SOLV>
1.26683

>  <SCORE.INTRA.SOLV.lig_0>
-117.703

>  <SCORE.INTRA.VDW>
3.7884

>  <SCORE.INTRA.VDW.0>
-1.59997

>  <SCORE.INTRA.norm>
0.102057

>  <SCORE.RESTR>
16.7528

>  <SCORE.RESTR.CAVITY>
16.7528

>  <SCORE.RESTR.norm>
0.380746

>  <SCORE.SYSTEM>
0

>  <SCORE.SYSTEM.CONST>
0

>  <SCORE.SYSTEM.DIHEDRAL>
0

>  <SCORE.SYSTEM.SOLV>
0

>  <SCORE.SYSTEM.norm>
0

>  <SCORE.heavy>
44

>  <SCORE.norm>
1.65274

>  <RMSD>
28.439

$$$$
ligand
 OpenBabel11021811513D
libRbt.so/2013.1/901 2013/11/27
 44 50  0  0  0  0  0  0  0  0999 V2000
   14.2173   23.0830   -4.7348 P   0  0  2  0  0  0  0  0  0  0  0  0
   17.1674   27.3037   -3.0952 P   0  0  1  0  0  0  0  0  0  0  0  0
   12.9656   23.1439   -5.6067 O   0  5  0  0  0  0  0  0  0  0  0  0
   17.4788   27.0193   -1.6460 O   0  5  0  0  0  0  0  0  0  0  0  0
   14.0999   21.8168   -3.9209 O   0  0  0  0  0  0  0  0  0  0  0  0
   18.0803   28.4678   -3.5431 O   0  0  0  0  0  0  0  0  0  0  0  0
   13.5362   25.5162   -4.4956 C   0  0  0  0  0  0  0  0  0  0  0  0
   16.9567   25.9030   -5.2543 C   0  0  0  0  0  0  0  0  0  0  0  0
   14.1799   24.3917   -3.8812 O   0  0  0  0  0  0  0  0  0  0  0  0
   17.3299   25.8507   -3.8484 O   0  0  0  0  0  0  0  0  0  0  0  0
   13.5293   26.7044   -3.5398 C   0  0  1  0  0  0  0  0  0  0  0  0
   17.2992   24.4869   -5.8534 C   0  0  1  0  0  0  0  0  0  0  0  0
   12.5035   26.5857   -2.7548 O   0  0  0  0  0  0  0  0  0  0  0  0
   18.5030   24.2638   -5.5144 O   0  0  0  0  0  0  0  0  0  0  0  0
   14.7505   26.7618   -2.6512 C   0  0  1  0  0  0  0  0  0  0  0  0
   16.5300   23.3741   -5.1137 C   0  0  1  0  0  0  0  0  0  0  0  0
   15.5901   27.6777   -3.2030 O   0  0  0  0  0  0  0  0  0  0  0  0
   15.4685   22.9633   -5.8182 O   0  0  0  0  0  0  0  0  0  0  0  0
   14.1882   27.2912   -1.2860 C   0  0  1  0  0  0  0  0  0  0  0  0
   17.5275   22.2167   -4.8797 C   0  0  1  0  0  0  0  0  0  0  0  0
   14.4930   28.7396   -1.1351 O   0  0  0  0  0  0  0  0  0  0  0  0
   17.2921   21.1137   -5.8662 O   0  0  0  0  0  0  0  0  0  0  0  0
   12.9105   27.0843   -1.3059 C   0  0  2  0  0  0  0  0  0  0  0  0
   18.6904   22.7347   -5.0804 C   0  0  2  0  0  0  0  0  0  0  0  0
   12.3147   22.1041    0.6081 N   0  0  0  0  0  0  0  0  0  0  0  0
   12.8346   22.4310   -0.6084 C   0  0  0  0  0  0  0  0  0  0  0  0
   12.9458   23.7394   -1.0049 N   0  0  0  0  0  0  0  0  0  0  0  0
   12.5225   24.7273   -0.1593 C   0  0  0  0  0  0  0  0  0  0  0  0
   12.0023   24.4210    1.0374 C   0  0  0  0  0  0  0  0  0  0  0  0
   11.9017   23.0894    1.4364 C   0  0  0  0  0  0  0  0  0  0  0  0
   11.3767   22.6356    2.6626 N   0  0  0  0  0  0  0  0  0  0  0  0
   11.6778   25.5765    1.6554 N   0  0  0  0  0  0  0  0  0  0  0  0
   11.9989   26.6038    0.8183 C   0  0  0  0  0  0  0  0  0  0  0  0
   12.5356   26.0837   -0.2933 N   0  0  0  0  0  0  0  0  0  0  0  0
   23.2039   23.9996   -2.8113 N   0  0  0  0  0  0  0  0  0  0  0  0
   22.8286   24.2757   -4.0878 C   0  0  0  0  0  0  0  0  0  0  0  0
   21.6045   23.8651   -4.5351 N   0  0  0  0  0  0  0  0  0  0  0  0
   20.7638   23.1889   -3.7065 C   0  0  0  0  0  0  0  0  0  0  0  0
   21.1276   22.9153   -2.4373 C   0  0  0  0  0  0  0  0  0  0  0  0
   22.3778   23.3338   -1.9912 C   0  0  0  0  0  0  0  0  0  0  0  0
   22.9748   23.1362   -0.6952 N   0  0  0  0  0  0  0  0  0  0  0  0
   20.1055   22.2395   -1.8597 N   0  0  0  0  0  0  0  0  0  0  0  0
   19.1084   22.1041   -2.7802 C   0  0  0  0  0  0  0  0  0  0  0  0
   19.5239   22.6969   -3.9177 N   0  0  0  0  0  0  0  0  0  0  0  0
  1  3  1  6  0  0  0
  1  5  2  0  0  0  0
  1  9  1  0  0  0  0
  1 18  1  0  0  0  0
  2  4  1  1  0  0  0
  2  6  2  0  0  0  0
  2 10  1  0  0  0  0
  2 17  1  0  0  0  0
  7  9  1  0  0  0  0
  8 10  1  0  0  0  0
 11  7  1  6  0  0  0
 11 13  1  0  0  0  0
 11 15  1  0  0  0  0
 12  8  1  1  0  0  0
 12 14  1  0  0  0  0
 12 16  1  0  0  0  0
 13 23  1  0  0  0  0
 14 24  1  0  0  0  0
 15 17  1  6  0  0  0
 15 19  1  0  0  0  0
 16 18  1  6  0  0  0
 16 20  1  0  0  0  0
 19 21  1  6  0  0  0
 19 23  1  0  0  0  0
 20 22  1  6  0  0  0
 20 24  1  0  0  0  0
 23 34  1  1  0  0  0
 24 44  1  1  0  0  0
 25 26  2  0  0  0  0
 25 30  1  0  0  0  0
 26 27  1  0  0  0  0
 27 28  2  0  0  0  0
 28 29  1  0  0  0  0
 28 34  1  0  0  0  0
 29 30  2  0  0  0  0
 29 32  1  0  0  0  0
 30 31  1  0  0  0  0
 32 33  2  0  0  0  0
 33 34  1  0  0  0  0
 35 36  2  0  0  0  0
 35 40  1  0  0  0  0
 36 37  1  0  0  0  0
 37 38  2  0  0  0  0
 38 39  1  0  0  0  0
 38 44  1  0  0  0  0
 39 40  2  0  0  0  0
 39 42  1  0  0  0  0
 40 41  1  0  0  0  0
 42 43  2  0  0  0  0
 43 44  1  0  0  0  0
M  CHG  2   3  -1   4  -1
M  END
>  <CHROM.1>
38.72542457,-55.98640018,16.10437923,24.57121347,-2.79502432,2.79727726,0.22236881
0.59350162

>  <Name>
ligand

>  <RI>
0

>  <Rbt.Current_Directory>
/home/itssahil/PROJECTS/Mol_Feturizer/New_Systems/rnas/4QLM

>  <Rbt.Executable>
rbdock ($Id: //depot/dev/client3/rdock/2013.1/src/exe/rbdock.cxx#4 $)

>  <Rbt.Library>
libRbt.so (2013.1, Build901 2013/11/27)

>  <Rbt.Parameter_File>
/export/apps/rDock/src/rDock_2013.1_src/data/scripts/dock_solv.prm

>  <Rbt.Receptor>
prm/blind_docking_100.prm

>  <SCORE>
21.8752

>  <SCORE.INTER>
-1.71045

>  <SCORE.INTER.CONST>
1

>  <SCORE.INTER.POLAR>
0

>  <SCORE.INTER.ROT>
2

>  <SCORE.INTER.SOLV>
38.4254

>  <SCORE.INTER.VDW>
-18.8821

>  <SCORE.INTER.norm>
-0.0388738

>  <SCORE.INTRA>
0.9909

>  <SCORE.INTRA.DIHEDRAL>
0.161763

>  <SCORE.INTRA.DIHEDRAL.0>
2.32994

>  <SCORE.INTRA.POLAR>
0

>  <SCORE.INTRA.POLAR.0>
0

>  <SCORE.INTRA.REPUL>
0

>  <SCORE.INTRA.REPUL.0>
0

>  <SCORE.INTRA.SOLV>
0.426633

>  <SCORE.INTRA.SOLV.lig_0>
-117.703

>  <SCORE.INTRA.VDW>
0.696702

>  <SCORE.INTRA.VDW.0>
-1.59997

>  <SCORE.INTRA.norm>
0.0225205

>  <SCORE.RESTR>
22.5947

>  <SCORE.RESTR.CAVITY>
22.5947

>  <SCORE.RESTR.norm>
0.513517

>  <SCORE.SYSTEM>
0

>  <SCORE.SYSTEM.CONST>
0

>  <SCORE.SYSTEM.DIHEDRAL>
0

>  <SCORE.SYSTEM.SOLV>
0

>  <SCORE.SYSTEM.norm>
0

>  <SCORE.heavy>
44

>  <SCORE.norm>
0.497163

>  <RMSD>
28.465

$$$$
ligand
 OpenBabel11021811513D
libRbt.so/2013.1/901 2013/11/27
 44 50  0  0  0  0  0  0  0  0999 V2000
   14.8902   22.2894   -3.5180 P   0  0  2  0  0  0  0  0  0  0  0  0
   16.7213   27.3538   -3.9708 P   0  0  1  0  0  0  0  0  0  0  0  0
   13.7098   21.6877   -4.2763 O   0  5  0  0  0  0  0  0  0  0  0  0
   17.0031   27.7921   -2.5543 O   0  5  0  0  0  0  0  0  0  0  0  0
   15.0116   21.5000   -2.2367 O   0  0  0  0  0  0  0  0  0  0  0  0
   17.3754   28.3899   -4.9129 O   0  0  0  0  0  0  0  0  0  0  0  0
   13.6697   24.3682   -4.3118 C   0  0  0  0  0  0  0  0  0  0  0  0
   16.9555   25.1599   -5.3127 C   0  0  0  0  0  0  0  0  0  0  0  0
   14.5114   23.7907   -3.3048 O   0  0  0  0  0  0  0  0  0  0  0  0
   17.2482   25.7972   -4.0372 O   0  0  0  0  0  0  0  0  0  0  0  0
   13.3415   25.8143   -3.9562 C   0  0  1  0  0  0  0  0  0  0  0  0
   17.6402   23.7421   -5.2636 C   0  0  1  0  0  0  0  0  0  0  0  0
   12.3242   25.8118   -3.1515 O   0  0  0  0  0  0  0  0  0  0  0  0
   18.8416   23.9641   -4.9150 O   0  0  0  0  0  0  0  0  0  0  0  0
   14.4650   26.5198   -3.2321 C   0  0  1  0  0  0  0  0  0  0  0  0
   17.0974   22.9077   -4.0862 C   0  0  1  0  0  0  0  0  0  0  0  0
   15.1093   27.2778   -4.1587 O   0  0  0  0  0  0  0  0  0  0  0  0
   16.1976   22.0072   -4.5002 O   0  0  0  0  0  0  0  0  0  0  0  0
   13.7198   27.4371   -2.2008 C   0  0  1  0  0  0  0  0  0  0  0  0
   18.3130   22.2197   -3.4242 C   0  0  1  0  0  0  0  0  0  0  0  0
   13.6837   28.8393   -2.6969 O   0  0  0  0  0  0  0  0  0  0  0  0
   18.3882   20.7802   -3.8333 O   0  0  0  0  0  0  0  0  0  0  0  0
   12.5241   26.9576   -2.0741 C   0  0  2  0  0  0  0  0  0  0  0  0
   19.3404   22.8518   -3.8780 C   0  0  2  0  0  0  0  0  0  0  0  0
   13.2466   23.4425    1.9188 N   0  0  0  0  0  0  0  0  0  0  0  0
   13.8341   23.3819    0.6906 C   0  0  0  0  0  0  0  0  0  0  0  0
   13.5838   24.3343   -0.2642 N   0  0  0  0  0  0  0  0  0  0  0  0
   12.7260   25.3583    0.0288 C   0  0  0  0  0  0  0  0  0  0  0  0
   12.1350   25.4274    1.2298 C   0  0  0  0  0  0  0  0  0  0  0  0
   12.4022   24.4607    2.1976 C   0  0  0  0  0  0  0  0  0  0  0  0
   11.8493   24.4188    3.4928 N   0  0  0  0  0  0  0  0  0  0  0  0
   11.3543   26.5286    1.2439 N   0  0  0  0  0  0  0  0  0  0  0  0
   11.4657   27.1367    0.0286 C   0  0  0  0  0  0  0  0  0  0  0  0
   12.3238   26.4269   -0.7157 N   0  0  0  0  0  0  0  0  0  0  0  0
   19.5124   26.4200   -0.0887 N   0  0  0  0  0  0  0  0  0  0  0  0
   18.4561   26.1399   -0.8962 C   0  0  0  0  0  0  0  0  0  0  0  0
   18.5764   25.1723   -1.8535 N   0  0  0  0  0  0  0  0  0  0  0  0
   19.7443   24.4891   -1.9942 C   0  0  0  0  0  0  0  0  0  0  0  0
   20.7952   24.7585   -1.1935 C   0  0  0  0  0  0  0  0  0  0  0  0
   20.6653   25.7484   -0.2237 C   0  0  0  0  0  0  0  0  0  0  0  0
   21.6528   26.2101    0.7179 N   0  0  0  0  0  0  0  0  0  0  0  0
   21.8065   23.9359   -1.5619 N   0  0  0  0  0  0  0  0  0  0  0  0
   21.3689   23.1550   -2.5908 C   0  0  0  0  0  0  0  0  0  0  0  0
   20.0918   23.5026   -2.8485 N   0  0  0  0  0  0  0  0  0  0  0  0
  1  3  1  6  0  0  0
  1  5  2  0  0  0  0
  1  9  1  0  0  0  0
  1 18  1  0  0  0  0
  2  4  1  1  0  0  0
  2  6  2  0  0  0  0
  2 10  1  0  0  0  0
  2 17  1  0  0  0  0
  7  9  1  0  0  0  0
  8 10  1  0  0  0  0
 11  7  1  1  0  0  0
 11 13  1  0  0  0  0
 11 15  1  0  0  0  0
 12  8  1  1  0  0  0
 12 14  1  0  0  0  0
 12 16  1  0  0  0  0
 13 23  1  0  0  0  0
 14 24  1  0  0  0  0
 15 17  1  6  0  0  0
 15 19  1  0  0  0  0
 16 18  1  6  0  0  0
 16 20  1  0  0  0  0
 19 21  1  6  0  0  0
 19 23  1  0  0  0  0
 20 22  1  6  0  0  0
 20 24  1  0  0  0  0
 23 34  1  1  0  0  0
 24 44  1  1  0  0  0
 25 26  2  0  0  0  0
 25 30  1  0  0  0  0
 26 27  1  0  0  0  0
 27 28  2  0  0  0  0
 28 29  1  0  0  0  0
 28 34  1  0  0  0  0
 29 30  2  0  0  0  0
 29 32  1  0  0  0  0
 30 31  1  0  0  0  0
 32 33  2  0  0  0  0
 33 34  1  0  0  0  0
 35 36  2  0  0  0  0
 35 40  1  0  0  0  0
 36 37  1  0  0  0  0
 37 38  2  0  0  0  0
 38 39  1  0  0  0  0
 38 44  1  0  0  0  0
 39 40  2  0  0  0  0
 39 42  1  0  0  0  0
 40 41  1  0  0  0  0
 42 43  2  0  0  0  0
 43 44  1  0  0  0  0
M  CHG  2   3  -1   4  -1
M  END
>  <CHROM.1>
47.76565018,57.90059662,16.00928474,24.89250683,-2.28731829,2.74795317,0.03734743
0.97827904

>  <Name>
ligand

>  <RI>
0

>  <Rbt.Current_Directory>
/home/itssahil/PROJECTS/Mol_Feturizer/New_Systems/rnas/4QLM

>  <Rbt.Executable>
rbdock ($Id: //depot/dev/client3/rdock/2013.1/src/exe/rbdock.cxx#4 $)

>  <Rbt.Library>
libRbt.so (2013.1, Build901 2013/11/27)

>  <Rbt.Parameter_File>
/export/apps/rDock/src/rDock_2013.1_src/data/scripts/dock_solv.prm

>  <Rbt.Receptor>
prm/blind_docking_100.prm

>  <SCORE>
56.8999

>  <SCORE.INTER>
38.1761

>  <SCORE.INTER.CONST>
1

>  <SCORE.INTER.POLAR>
0

>  <SCORE.INTER.ROT>
2

>  <SCORE.INTER.SOLV>
43.4127

>  <SCORE.INTER.VDW>
6.04652

>  <SCORE.INTER.norm>
0.867639

>  <SCORE.INTRA>
-1.60629

>  <SCORE.INTRA.DIHEDRAL>
0.12376

>  <SCORE.INTRA.DIHEDRAL.0>
2.32994

>  <SCORE.INTRA.POLAR>
0

>  <SCORE.INTRA.POLAR.0>
0

>  <SCORE.INTRA.REPUL>
0

>  <SCORE.INTRA.REPUL.0>
0

>  <SCORE.INTRA.SOLV>
1.37566

>  <SCORE.INTRA.SOLV.lig_0>
-117.703

>  <SCORE.INTRA.VDW>
-2.35599

>  <SCORE.INTRA.VDW.0>
-1.59997

>  <SCORE.INTRA.norm>
-0.0365065

>  <SCORE.RESTR>
20.33

>  <SCORE.RESTR.CAVITY>
20.33

>  <SCORE.RESTR.norm>
0.462046

>  <SCORE.SYSTEM>
0

>  <SCORE.SYSTEM.CONST>
0

>  <SCORE.SYSTEM.DIHEDRAL>
0

>  <SCORE.SYSTEM.SOLV>
0

>  <SCORE.SYSTEM.norm>
0

>  <SCORE.heavy>
44

>  <SCORE.norm>
1.29318

>  <RMSD>
28.620

$$$$
ligand
 OpenBabel11021811513D
libRbt.so/2013.1/901 2013/11/27
 44 50  0  0  0  0  0  0  0  0999 V2000
   16.4493   26.6504   -4.7154 P   0  0  2  0  0  0  0  0  0  0  0  0
   19.6410   23.1679   -2.0904 P   0  0  1  0  0  0  0  0  0  0  0  0
   15.8529   27.9332   -4.1418 O   0  5  0  0  0  0  0  0  0  0  0  0
   19.1296   21.8028   -2.4817 O   0  5  0  0  0  0  0  0  0  0  0  0
   15.5201   26.2148   -5.8229 O   0  0  0  0  0  0  0  0  0  0  0  0
   21.0118   22.9676   -1.4050 O   0  0  0  0  0  0  0  0  0  0  0  0
   16.6778   26.2574   -2.2185 C   0  0  0  0  0  0  0  0  0  0  0  0
   19.9409   25.4433   -3.2741 C   0  0  0  0  0  0  0  0  0  0  0  0
   16.5089   25.6574   -3.5100 O   0  0  0  0  0  0  0  0  0  0  0  0
   19.5843   24.0470   -3.4792 O   0  0  0  0  0  0  0  0  0  0  0  0
   16.6715   25.1837   -1.1356 C   0  0  1  0  0  0  0  0  0  0  0  0
   19.9736   26.1037   -4.7039 C   0  0  1  0  0  0  0  0  0  0  0  0
   15.4381   24.9321   -0.8230 O   0  0  0  0  0  0  0  0  0  0  0  0
   20.7146   25.3458   -5.4042 O   0  0  0  0  0  0  0  0  0  0  0  0
   17.2790   23.8762   -1.5890 C   0  0  1  0  0  0  0  0  0  0  0  0
   18.6053   25.9749   -5.4026 C   0  0  1  0  0  0  0  0  0  0  0  0
   18.5468   23.8459   -1.0992 O   0  0  0  0  0  0  0  0  0  0  0  0
   17.9144   27.1195   -5.3374 O   0  0  0  0  0  0  0  0  0  0  0  0
   16.3945   22.7931   -0.8785 C   0  0  1  0  0  0  0  0  0  0  0  0
   18.8848   25.5733   -6.8688 C   0  0  1  0  0  0  0  0  0  0  0  0
   17.1030   22.2576    0.3151 O   0  0  0  0  0  0  0  0  0  0  0  0
   18.7396   26.7585   -7.7742 O   0  0  0  0  0  0  0  0  0  0  0  0
   15.2909   23.3791   -0.5403 C   0  0  2  0  0  0  0  0  0  0  0  0
   20.1096   25.1722   -6.8758 C   0  0  2  0  0  0  0  0  0  0  0  0
   12.5520   22.2059   -5.0061 N   0  0  0  0  0  0  0  0  0  0  0  0
   13.7697   22.8157   -4.9578 C   0  0  0  0  0  0  0  0  0  0  0  0
   14.3893   23.0710   -3.7609 N   0  0  0  0  0  0  0  0  0  0  0  0
   13.7656   22.7062   -2.5998 C   0  0  0  0  0  0  0  0  0  0  0  0
   12.5645   22.1122   -2.6309 C   0  0  0  0  0  0  0  0  0  0  0  0
   11.9462   21.8479   -3.8518 C   0  0  0  0  0  0  0  0  0  0  0  0
   10.6906   21.2318   -4.0214 N   0  0  0  0  0  0  0  0  0  0  0  0
   12.1935   21.8622   -1.3573 N   0  0  0  0  0  0  0  0  0  0  0  0
   13.1818   22.3182   -0.5359 C   0  0  0  0  0  0  0  0  0  0  0  0
   14.1593   22.8229   -1.3001 N   0  0  0  0  0  0  0  0  0  0  0  0
   19.0987   20.1657   -5.8597 N   0  0  0  0  0  0  0  0  0  0  0  0
   18.7305   21.2388   -5.1119 C   0  0  0  0  0  0  0  0  0  0  0  0
   19.0832   22.4957   -5.5158 N   0  0  0  0  0  0  0  0  0  0  0  0
   19.7937   22.6728   -6.6623 C   0  0  0  0  0  0  0  0  0  0  0  0
   20.1585   21.6129   -7.4118 C   0  0  0  0  0  0  0  0  0  0  0  0
   19.7984   20.3360   -6.9909 C   0  0  0  0  0  0  0  0  0  0  0  0
   20.0944   19.0733   -7.6179 N   0  0  0  0  0  0  0  0  0  0  0  0
   20.8479   22.0879   -8.4767 N   0  0  0  0  0  0  0  0  0  0  0  0
   20.8999   23.4473   -8.3803 C   0  0  0  0  0  0  0  0  0  0  0  0
   20.2427   23.7992   -7.2568 N   0  0  0  0  0  0  0  0  0  0  0  0
  1  3  1  1  0  0  0
  1  5  2  0  0  0  0
  1  9  1  0  0  0  0
  1 18  1  0  0  0  0
  2  4  1  6  0  0  0
  2  6  2  0  0  0  0
  2 10  1  0  0  0  0
  2 17  1  0  0  0  0
  7  9  1  0  0  0  0
  8 10  1  0  0  0  0
 11  7  1  6  0  0  0
 11 13  1  0  0  0  0
 11 15  1  0  0  0  0
 12  8  1  1  0  0  0
 12 14  1  0  0  0  0
 12 16  1  0  0  0  0
 13 23  1  0  0  0  0
 14 24  1  0  0  0  0
 15 17  1  1  0  0  0
 15 19  1  0  0  0  0
 16 18  1  6  0  0  0
 16 20  1  0  0  0  0
 19 21  1  1  0  0  0
 19 23  1  0  0  0  0
 20 22  1  6  0  0  0
 20 24  1  0  0  0  0
 23 34  1  6  0  0  0
 24 44  1  1  0  0  0
 25 26  2  0  0  0  0
 25 30  1  0  0  0  0
 26 27  1  0  0  0  0
 27 28  2  0  0  0  0
 28 29  1  0  0  0  0
 28 34  1  0  0  0  0
 29 30  2  0  0  0  0
 29 32  1  0  0  0  0
 30 31  1  0  0  0  0
 32 33  2  0  0  0  0
 33 34  1  0  0  0  0
 35 36  2  0  0  0  0
 35 40  1  0  0  0  0
 36 37  1  0  0  0  0
 37 38  2  0  0  0  0
 38 39  1  0  0  0  0
 38 44  1  0  0  0  0
 39 40  2  0  0  0  0
 39 42  1  0  0  0  0
 40 41  1  0  0  0  0
 42 43  2  0  0  0  0
 43 44  1  0  0  0  0
M  CHG  2   3  -1   4  -1
M  END
>  <CHROM.1>
59.09521382,56.89721999,17.35659439,23.74865205,-4.02366316,-3.03943356,-0.60479717
-2.82064549

>  <Name>
ligand

>  <RI>
0

>  <Rbt.Current_Directory>
/home/itssahil/PROJECTS/Mol_Feturizer/New_Systems/rnas/4QLM

>  <Rbt.Executable>
rbdock ($Id: //depot/dev/client3/rdock/2013.1/src/exe/rbdock.cxx#4 $)

>  <Rbt.Library>
libRbt.so (2013.1, Build901 2013/11/27)

>  <Rbt.Parameter_File>
/export/apps/rDock/src/rDock_2013.1_src/data/scripts/dock_solv.prm

>  <Rbt.Receptor>
prm/blind_docking_100.prm

>  <SCORE>
149.471

>  <SCORE.INTER>
137.463

>  <SCORE.INTER.CONST>
1

>  <SCORE.INTER.POLAR>
0

>  <SCORE.INTER.ROT>
2

>  <SCORE.INTER.SOLV>
51.9682

>  <SCORE.INTER.VDW>
69.3858

>  <SCORE.INTER.norm>
3.12415

>  <SCORE.INTRA>
-1.49066

>  <SCORE.INTRA.DIHEDRAL>
0.0640259

>  <SCORE.INTRA.DIHEDRAL.0>
2.32994

>  <SCORE.INTRA.POLAR>
0

>  <SCORE.INTRA.POLAR.0>
0

>  <SCORE.INTRA.REPUL>
0

>  <SCORE.INTRA.REPUL.0>
0

>  <SCORE.INTRA.SOLV>
1.23113

>  <SCORE.INTRA.SOLV.lig_0>
-117.703

>  <SCORE.INTRA.VDW>
-2.13824

>  <SCORE.INTRA.VDW.0>
-1.59997

>  <SCORE.INTRA.norm>
-0.0338786

>  <SCORE.RESTR>
13.4988

>  <SCORE.RESTR.CAVITY>
13.4988

>  <SCORE.RESTR.norm>
0.306792

>  <SCORE.SYSTEM>
0

>  <SCORE.SYSTEM.CONST>
0

>  <SCORE.SYSTEM.DIHEDRAL>
0

>  <SCORE.SYSTEM.SOLV>
0

>  <SCORE.SYSTEM.norm>
0

>  <SCORE.heavy>
44

>  <SCORE.norm>
3.39707

>  <RMSD>
28.876

$$$$
