@<TRIPOS>MOLECULE
4QLM_rdock.pdb
 2316 2590 0 0 0
SMALL
GASTEIGER

@<TRIPOS>ATOM
      1  P         19.0740   58.6180  -14.3110 P.3     3  A3          0.1280
      2  C5'       18.4130   57.9470  -16.7750 C.3     3  A3          0.1795
      3  O5'       19.0260   57.5950  -15.5390 O.3     3  A3         -0.3259
      4  C4'       19.4270   58.4450  -17.7820 C.3     3  A3          0.1772
      5  O4'       20.7270   58.5810  -17.1460 O.3     3  A3         -0.3307
      6  C3'       19.6920   57.5460  -18.9830 C.3     3  A3          0.1860
      7  O3'       18.7240   57.6880  -20.0080 O.3     3  A3         -0.3112
      8  C2'       21.0950   57.9670  -19.4080 C.3     3  A3          0.2309
      9  O2'       21.0570   59.1840  -20.1420 O.3     3  A3         -0.2156
     10  C1'       21.7510   58.2320  -18.0540 C.3     3  A3          0.2408
     11  N1        25.8150   55.1060  -18.4670 N.ar    3  A3         -0.2040
     12  C2        25.4510   56.2080  -19.1420 C.ar    3  A3          0.2016
     13  N3        24.3790   56.9800  -18.9850 N.ar    3  A3         -0.2048
     14  C4        23.6160   56.5060  -17.9860 C.ar    3  A3          0.1692
     15  C5        23.8550   55.3890  -17.2000 C.ar    3  A3          0.1518
     16  C6        25.0240   54.6580  -17.4660 C.ar    3  A3          0.1919
     17  N6        25.3870   53.5620  -16.7930 N.pl3   3  A3         -0.1054
     18  N7        22.8440   55.2130  -16.2680 N.ar    3  A3         -0.2193
     19  C8        22.0290   56.2110  -16.5110 C.ar    3  A3          0.1816
     20  N9        22.4350   57.0330  -17.5340 N.ar    3  A3         -0.2693
     21  OP1       19.5690   57.8870  -13.1140 O.3     3  A3         -0.1955
     22  OP2       19.7720   59.8650  -14.7270 O.co2   3  A3         -0.7863
     23  P         18.3590   56.4460  -20.9650 P.3     4  U4          0.2141
     24  C5'       20.3660   56.6990  -22.6440 C.3     4  U4          0.1812
     25  O5'       19.7590   55.9930  -21.5730 O.3     4  U4         -0.3114
     26  C4'       21.6830   56.0730  -23.0120 C.3     4  U4          0.1773
     27  O4'       22.5430   56.0470  -21.8390 O.3     4  U4         -0.3307
     28  C3'       21.6180   54.6140  -23.4400 C.3     4  U4          0.1860
     29  O3'       21.2030   54.4180  -24.7840 O.3     4  U4         -0.3112
     30  C2'       23.0270   54.1220  -23.1350 C.3     4  U4          0.2309
     31  O2'       23.9500   54.5750  -24.1150 O.3     4  U4         -0.2156
     32  C1'       23.3150   54.8620  -21.8310 C.3     4  U4          0.2420
     33  N1        22.9430   54.0510  -20.6450 N.ar    4  U4         -0.2534
     34  C2        23.7860   53.0140  -20.2610 C.ar    4  U4          0.3546
     35  O2        24.8240   52.7280  -20.8470 O.2     4  U4         -0.2443
     36  N3        23.3620   52.3150  -19.1510 N.ar    4  U4         -0.1530
     37  C4        22.2180   52.5310  -18.4000 C.ar    4  U4          0.2846
     38  O4        21.9790   51.8200  -17.4220 O.2     4  U4         -0.2650
     39  C5        21.4040   53.6130  -18.8600 C.ar    4  U4          0.0814
     40  C6        21.7870   54.3120  -19.9350 C.ar    4  U4          0.0870
     41  OP1       17.5280   56.9630  -22.0840 O.2     4  U4         -0.5172
     42  OP2       17.8720   55.3250  -20.1180 O.co2   4  U4         -0.4373
     43  P         20.1750   53.2300  -25.1370 P.3     5  C5          0.2141
     44  C5'       22.1640   51.5240  -25.2830 C.3     5  C5          0.1812
     45  O5'       20.9380   51.9070  -24.6800 O.3     5  C5         -0.3114
     46  C4'       22.7590   50.3270  -24.5910 C.3     5  C5          0.1773
     47  O4'       22.9790   50.6210  -23.1910 O.3     5  C5         -0.3307
     48  C3'       21.8870   49.0920  -24.5580 C.3     5  C5          0.1860
     49  O3'       21.9120   48.3600  -25.7610 O.3     5  C5         -0.3112
     50  C2'       22.4490   48.3150  -23.3790 C.3     5  C5          0.2309
     51  O2'       23.6270   47.6280  -23.7570 O.3     5  C5         -0.2156
     52  C1'       22.8270   49.4410  -22.4270 C.3     5  C5          0.2420
     53  N1        21.8020   49.6500  -21.3810 N.ar    5  C5         -0.2535
     54  C2        21.7990   48.7580  -20.3060 C.ar    5  C5          0.3532
     55  O2        22.6320   47.8410  -20.2750 O.2     5  C5         -0.2443
     56  N3        20.8960   48.9130  -19.3180 N.ar    5  C5         -0.1739
     57  C4        20.0240   49.9130  -19.3830 C.ar    5  C5          0.1759
     58  N4        19.1530   50.0260  -18.3830 N.pl3   5  C5         -0.1070
     59  C5        20.0010   50.8400  -20.4670 C.ar    5  C5          0.0566
     60  C6        20.9020   50.6730  -21.4410 C.ar    5  C5          0.0850
     61  OP1       19.9850   53.1770  -26.6110 O.2     5  C5         -0.5172
     62  OP2       18.9930   53.3880  -24.2540 O.co2   5  C5         -0.4373
     63  P         20.7240   47.3290  -26.0490 P.3     6  G6          0.2141
     64  C5'       19.9760   45.8480  -24.0230 C.3     6  G6          0.1812
     65  O5'       20.9580   46.1520  -25.0020 O.3     6  G6         -0.3114
     66  C4'       20.5310   44.9510  -22.9480 C.3     6  G6          0.1773
     67  O4'       20.8750   45.7530  -21.7920 O.3     6  G6         -0.3307
     68  C3'       19.5690   43.9020  -22.4060 C.3     6  G6          0.1860
     69  O3'       19.5570   42.7160  -23.1800 O.3     6  G6         -0.3112
     70  C2'       20.0700   43.6840  -20.9930 C.3     6  G6          0.2309
     71  O2'       21.2320   42.8730  -21.0250 O.3     6  G6         -0.2156
     72  C1'       20.4880   45.0950  -20.6110 C.3     6  G6          0.2408
     73  N1        17.2940   45.8690  -16.7070 N.ar    6  G6         -0.1709
     74  C2        18.2410   44.8950  -16.8500 C.ar    6  G6          0.2606
     75  N2        18.3450   44.0320  -15.8350 N.pl3   6  G6         -0.0859
     76  N3        19.0130   44.7750  -17.9090 N.ar    6  G6         -0.1918
     77  C4        18.7630   45.7280  -18.8220 C.ar    6  G6          0.1723
     78  C5        17.8360   46.7440  -18.7800 C.ar    6  G6          0.1748
     79  C6        17.0050   46.8580  -17.6410 C.ar    6  G6          0.3023
     80  O6        16.1180   47.6960  -17.4250 O.2     6  G6         -0.2633
     81  N7        17.8770   47.5200  -19.9300 N.ar    6  G6         -0.2173
     82  C8        18.8170   46.9700  -20.6390 C.ar    6  G6          0.1817
     83  N9        19.3860   45.8790  -20.0320 N.ar    6  G6         -0.2693
     84  OP1       20.9170   46.7900  -27.4190 O.2     6  G6         -0.5172
     85  OP2       19.4780   48.0230  -25.6380 O.co2   6  G6         -0.4373
     86  P         18.2080   41.8480  -23.2970 P.3     7  C7          0.2141
     87  C5'       18.9100   40.1150  -21.4560 C.3     7  C7          0.1812
     88  O5'       18.0570   41.1710  -21.8580 O.3     7  C7         -0.3114
     89  C4'       18.6110   39.6710  -20.0510 C.3     7  C7          0.1773
     90  O4'       18.6020   40.8130  -19.1730 O.3     7  C7         -0.3307
     91  C3'       17.2580   39.0640  -19.8180 C.3     7  C7          0.1860
     92  O3'       17.1270   37.7490  -20.3050 O.3     7  C7         -0.3112
     93  C2'       17.0770   39.2200  -18.3140 C.3     7  C7          0.2309
     94  O2'       17.7830   38.2230  -17.5990 O.3     7  C7         -0.2156
     95  C1'       17.7520   40.5640  -18.0790 C.3     7  C7          0.2420
     96  N1        16.8060   41.6900  -17.9780 N.ar    7  C7         -0.2535
     97  C2        16.0160   41.8320  -16.8420 C.ar    7  C7          0.3532
     98  O2        16.1020   40.9690  -15.9500 O.2     7  C7         -0.2443
     99  N3        15.1770   42.8960  -16.7720 N.ar    7  C7         -0.1739
    100  C4        15.1300   43.7910  -17.7680 C.ar    7  C7          0.1759
    101  N4        14.2930   44.8250  -17.6630 N.pl3   7  C7         -0.1070
    102  C5        15.9350   43.6700  -18.9330 C.ar    7  C7          0.0566
    103  C6        16.7530   42.6130  -18.9850 C.ar    7  C7          0.0850
    104  OP1       18.3940   40.7720  -24.3100 O.2     7  C7         -0.5172
    105  OP2       17.1040   42.8250  -23.4620 O.co2   7  C7         -0.4373
    106  P         15.7240   37.3420  -20.9570 P.3     8  U8          0.2141
    107  C5'       15.1980   35.8090  -18.8990 C.3     8  U8          0.1812
    108  O5'       14.8650   36.9380  -19.6870 O.3     8  U8         -0.3114
    109  C4'       14.2620   35.6950  -17.7300 C.3     8  U8          0.1773
    110  O4'       14.3890   36.8720  -16.9070 O.3     8  U8         -0.3307
    111  C3'       12.7850   35.6550  -18.0860 C.3     8  U8          0.1860
    112  O3'       12.3500   34.3600  -18.4240 O.3     8  U8         -0.3112
    113  C2'       12.1130   36.1970  -16.8410 C.3     8  U8          0.2309
    114  O2'       11.9640   35.1680  -15.8750 O.3     8  U8         -0.2156
    115  C1'       13.1470   37.2120  -16.3460 C.3     8  U8          0.2420
    116  N1        12.8300   38.6000  -16.7400 N.ar    8  U8         -0.2534
    117  C2        11.9730   39.2990  -15.9190 C.ar    8  U8          0.3546
    118  O2        11.4680   38.8240  -14.9200 O.2     8  U8         -0.2443
    119  N3        11.7320   40.5850  -16.3020 N.ar    8  U8         -0.1530
    120  C4        12.2410   41.2230  -17.4110 C.ar    8  U8          0.2846
    121  O4        11.9080   42.3950  -17.6160 O.2     8  U8         -0.2650
    122  C5        13.1300   40.4320  -18.2170 C.ar    8  U8          0.0814
    123  C6        13.3950   39.1760  -17.8540 C.ar    8  U8          0.0870
    124  OP1       15.8660   36.1950  -21.8970 O.2     8  U8         -0.5172
    125  OP2       15.2130   38.6310  -21.4620 O.co2   8  U8         -0.4373
    126  P         11.4900   34.1560  -19.7510 P.3     9  G9          0.2141
    127  C5'        9.2930   34.3720  -18.3350 C.3     9  G9          0.1812
    128  O5'       10.1030   34.8460  -19.3980 O.3     9  G9         -0.3114
    129  C4'        8.2790   35.4060  -17.9340 C.3     9  G9          0.1773
    130  O4'        8.9540   36.5660  -17.3690 O.3     9  G9         -0.3307
    131  C3'        7.4370   35.9990  -19.0580 C.3     9  G9          0.1860
    132  O3'        6.3930   35.1510  -19.5300 O.3     9  G9         -0.3112
    133  C2'        6.9630   37.2940  -18.4270 C.3     9  G9          0.2309
    134  O2'        5.9370   37.0390  -17.4770 O.3     9  G9         -0.2156
    135  C1'        8.2500   37.7400  -17.7060 C.3     9  G9          0.2408
    136  N1         9.2000   42.3420  -19.6870 N.ar    9  G9         -0.1709
    137  C2         8.3250   41.9980  -18.6850 C.ar    9  G9          0.2606
    138  N2         7.5860   42.9990  -18.1650 N.pl3   9  G9         -0.0859
    139  N3         8.1880   40.7570  -18.2370 N.ar    9  G9         -0.1918
    140  C4         8.9910   39.8850  -18.8800 C.ar    9  G9          0.1723
    141  C5         9.8960   40.1440  -19.8880 C.ar    9  G9          0.1748
    142  C6        10.0360   41.4680  -20.3550 C.ar    9  G9          0.3023
    143  O6        10.7860   41.8880  -21.2350 O.2     9  G9         -0.2633
    144  N7        10.5430   38.9880  -20.2940 N.ar    9  G9         -0.2173
    145  C8        10.0080   38.0640  -19.5380 C.ar    9  G9          0.1817
    146  N9         9.0760   38.5330  -18.6390 N.ar    9  G9         -0.2693
    147  OP1       11.2450   32.6960  -19.9310 O.3     9  G9         -0.4373
    148  OP2       12.0960   35.0130  -20.8020 O.co2   9  G9         -0.5172
    149  P          6.2780   34.7810  -21.1010 P.3    10  A10         0.2141
    150  C5'        5.6130   36.2550  -23.1710 C.3    10  A10         0.1812
    151  O5'        5.6210   36.0740  -21.7600 O.3    10  A10        -0.3114
    152  C4'        4.6130   37.3060  -23.5730 C.3    10  A10         0.1773
    153  O4'        3.3210   36.9440  -23.0380 O.3    10  A10        -0.3307
    154  C3'        4.8860   38.6890  -23.0130 C.3    10  A10         0.1860
    155  O3'        5.7650   39.4380  -23.8380 O.3    10  A10        -0.3112
    156  C2'        3.4950   39.3020  -22.8650 C.3    10  A10         0.2309
    157  O2'        3.0430   39.8040  -24.1130 O.3    10  A10        -0.2156
    158  C1'        2.6510   38.0790  -22.5490 C.3    10  A10         0.2408
    159  N1        -0.1970   39.3940  -18.3700 N.ar   10  A10        -0.2040
    160  C2        -0.0750   39.9560  -19.5800 C.ar   10  A10         0.2016
    161  N3         0.6720   39.5960  -20.6190 N.ar   10  A10        -0.2048
    162  C4         1.3900   38.4980  -20.3250 C.ar   10  A10         0.1692
    163  C5         1.3660   37.8060  -19.1260 C.ar   10  A10         0.1518
    164  C6         0.5250   38.2870  -18.1100 C.ar   10  A10         0.1919
    165  N6         0.4110   37.7130  -16.9120 N.pl3  10  A10        -0.1054
    166  N7         2.2210   36.7280  -19.1700 N.ar   10  A10        -0.2193
    167  C8         2.7280   36.7920  -20.3700 C.ar   10  A10         0.1816
    168  N9         2.3090   37.8510  -21.1250 N.ar   10  A10        -0.2693
    169  OP1        5.3710   33.6200  -21.2180 O.3    10  A10        -0.4373
    170  OP2        7.6180   34.6800  -21.7320 O.co2  10  A10        -0.5172
    171  P          6.8600   40.3920  -23.1650 P.3    11  A11         0.2141
    172  C5'        5.4090   42.5570  -22.7660 C.3    11  A11         0.1812
    173  O5'        5.9910   41.3660  -22.2450 O.3    11  A11        -0.3114
    174  C4'        4.4980   43.2100  -21.7480 C.3    11  A11         0.1773
    175  O4'        3.6790   42.1950  -21.1390 O.3    11  A11        -0.3307
    176  C3'        5.1940   43.9160  -20.5890 C.3    11  A11         0.1860
    177  O3'        5.4300   45.2820  -20.8770 O.3    11  A11        -0.3112
    178  C2'        4.2270   43.7470  -19.4090 C.3    11  A11         0.2309
    179  O2'        3.4130   44.8950  -19.2550 O.3    11  A11        -0.2156
    180  C1'        3.3570   42.5570  -19.8200 C.3    11  A11         0.2408
    181  N1         1.8740   40.0200  -15.5790 N.ar   11  A11        -0.2040
    182  C2         1.4630   41.1860  -16.0990 C.ar   11  A11         0.2016
    183  N3         1.8850   41.8000  -17.2020 N.ar   11  A11        -0.2048
    184  C4         2.8520   41.0770  -17.8060 C.ar   11  A11         0.1692
    185  C5         3.3710   39.8680  -17.3860 C.ar   11  A11         0.1518
    186  C6         2.8550   39.3260  -16.2110 C.ar   11  A11         0.1919
    187  N6         3.2810   38.1640  -15.7150 N.pl3  11  A11        -0.1054
    188  N7         4.3460   39.4170  -18.2480 N.ar   11  A11        -0.2193
    189  C8         4.4000   40.3450  -19.1650 C.ar   11  A11         0.1816
    190  N9         3.5330   41.3760  -18.9600 N.ar   11  A11        -0.2693
    191  OP1        7.5660   41.1800  -24.2080 O.2    11  A11        -0.5172
    192  OP2        7.6500   39.4960  -22.2870 O.co2  11  A11        -0.4373
    193  P          6.9020   45.8330  -21.2020 P.3    12  C12         0.2141
    194  C5'        7.5070   46.8650  -23.5520 C.3    12  C12         0.1813
    195  O5'        7.0140   45.7640  -22.7930 O.3    12  C12        -0.3114
    196  C4'        7.6350   46.5150  -25.0200 C.3    12  C12         0.1801
    197  O4'        6.5990   45.5590  -25.3830 O.3    12  C12        -0.3306
    198  C3'        7.4550   47.6640  -26.0100 C.3    12  C12         0.2161
    199  O3'        8.6290   48.4460  -26.1910 O.3    12  C12        -0.2175
    200  C2'        6.9760   46.9490  -27.2750 C.3    12  C12         0.2338
    201  O2'        8.0610   46.3600  -27.9810 O.3    12  C12        -0.2155
    202  C1'        6.1140   45.8290  -26.6830 C.3    12  C12         0.2421
    203  N1         4.6770   46.2190  -26.6110 N.ar   12  C12        -0.2535
    204  C2         3.9480   46.3780  -25.4020 C.ar   12  C12         0.3532
    205  O2         4.4370   46.1980  -24.2760 O.2    12  C12        -0.2443
    206  N3         2.6510   46.7500  -25.4510 N.ar   12  C12        -0.1739
    207  C4         2.0510   46.9640  -26.6160 C.ar   12  C12         0.1759
    208  N4         0.7660   47.3270  -26.5910 N.pl3  12  C12        -0.1070
    209  C5         2.7470   46.8140  -27.8500 C.ar   12  C12         0.0566
    210  C6         4.0320   46.4450  -27.7990 C.ar   12  C12         0.0850
    211  OP1        7.8740   44.8740  -20.6140 O.3    12  C12        -0.4373
    212  OP2        6.9080   47.2680  -20.8120 O.co2  12  C12        -0.5172
    213  P          2.2590   45.5780  -37.2630 P.3    22  G22         0.1280
    214  C5'        1.2160   44.2610  -35.2270 C.3    22  G22         0.1795
    215  O5'        2.3530   44.8700  -35.8340 O.3    22  G22        -0.3259
    216  C4'        1.5130   43.8000  -33.8230 C.3    22  G22         0.1772
    217  O4'        1.3400   44.8930  -32.8870 O.3    22  G22        -0.3307
    218  C3'        0.6330   42.7110  -33.2340 C.3    22  G22         0.1860
    219  O3'        0.8980   41.4130  -33.7510 O.3    22  G22        -0.3112
    220  C2'        0.9280   42.8490  -31.7470 C.3    22  G22         0.2309
    221  O2'        2.1930   42.2880  -31.4270 O.3    22  G22        -0.2156
    222  C1'        1.0570   44.3650  -31.6060 C.3    22  G22         0.2408
    223  N1        -1.4580   45.1410  -27.3170 N.ar   22  G22        -0.1709
    224  C2        -0.2640   44.4940  -27.5390 C.ar   22  G22         0.2606
    225  N2         0.3500   43.9730  -26.4640 N.pl3  22  G22        -0.0859
    226  N3         0.2830   44.3680  -28.7370 N.ar   22  G22        -0.1918
    227  C4        -0.4680   44.9430  -29.7050 C.ar   22  G22         0.1723
    228  C5        -1.6650   45.6110  -29.5880 C.ar   22  G22         0.1748
    229  C6        -2.2460   45.7460  -28.2980 C.ar   22  G22         0.3023
    230  O6        -3.3040   46.3060  -27.9830 O.2    22  G22        -0.2633
    231  N7        -2.0960   46.0490  -30.8360 N.ar   22  G22        -0.2173
    232  C8        -1.1730   45.6490  -31.6720 C.ar   22  G22         0.1817
    233  N9        -0.1590   44.9750  -31.0430 N.ar   22  G22        -0.2693
    234  OP1        1.5770   46.8980  -37.1110 O.3    22  G22        -0.1955
    235  OP2        3.6080   45.5020  -37.8890 O.co2  22  G22        -0.7863
    236  P         -0.1070   40.2080  -33.4410 P.3    23  C23         0.2141
    237  C5'        1.8260   39.7940  -31.6920 C.3    23  C23         0.1812
    238  O5'        0.4450   39.6260  -32.0650 O.3    23  C23        -0.3114
    239  C4'        2.0770   39.1980  -30.3280 C.3    23  C23         0.1773
    240  O4'        2.0990   40.2630  -29.3370 O.3    23  C23        -0.3307
    241  C3'        1.0310   38.2020  -29.8420 C.3    23  C23         0.1860
    242  O3'        1.3980   36.8750  -30.2010 O.3    23  C23        -0.3112
    243  C2'        1.0700   38.3910  -28.3300 C.3    23  C23         0.2309
    244  O2'        2.1140   37.6750  -27.7030 O.3    23  C23        -0.2156
    245  C1'        1.3090   39.8960  -28.2210 C.3    23  C23         0.2420
    246  N1         0.0710   40.6880  -28.2550 N.ar   23  C23        -0.2535
    247  C2        -0.5110   41.0810  -27.0480 C.ar   23  C23         0.3532
    248  O2         0.0350   40.7490  -25.9850 O.2    23  C23        -0.2443
    249  N3        -1.6500   41.8100  -27.0690 N.ar   23  C23        -0.1739
    250  C4        -2.2050   42.1460  -28.2360 C.ar   23  C23         0.1759
    251  N4        -3.3290   42.8650  -28.2100 N.pl3  23  C23        -0.1070
    252  C5        -1.6320   41.7580  -29.4820 C.ar   23  C23         0.0566
    253  C6        -0.5050   41.0370  -29.4450 C.ar   23  C23         0.0850
    254  OP1        0.0720   39.1770  -34.4940 O.2    23  C23        -0.5172
    255  OP2       -1.4540   40.7840  -33.1970 O.co2  23  C23        -0.4373
    256  P          0.7150   35.6300  -29.4650 P.3    24  G24         0.2141
    257  C5'        0.9670   34.7380  -27.0480 C.3    24  G24         0.1812
    258  O5'        1.2750   35.7350  -27.9870 O.3    24  G24        -0.3114
    259  C4'        0.6920   35.3170  -25.6930 C.3    24  G24         0.1773
    260  O4'        0.3590   36.7260  -25.7570 O.3    24  G24        -0.3307
    261  C3'       -0.4950   34.7220  -24.9960 C.3    24  G24         0.1860
    262  O3'       -0.2570   33.4070  -24.5550 O.3    24  G24        -0.3112
    263  C2'       -0.7730   35.7520  -23.9180 C.3    24  G24         0.2309
    264  O2'        0.2110   35.6850  -22.9010 O.3    24  G24        -0.2156
    265  C1'       -0.5370   37.0400  -24.7060 C.3    24  G24         0.2408
    266  N1        -5.3460   38.5980  -23.8860 N.ar   24  G24        -0.1709
    267  C2        -4.4200   38.1320  -22.9820 C.ar   24  G24         0.2606
    268  N2        -4.8130   38.0660  -21.7000 N.pl3  24  G24        -0.0859
    269  N3        -3.1980   37.7480  -23.3160 N.ar   24  G24        -0.1918
    270  C4        -2.9570   37.8750  -24.6400 C.ar   24  G24         0.1723
    271  C5        -3.8090   38.3320  -25.6220 C.ar   24  G24         0.1748
    272  C6        -5.1270   38.7360  -25.2560 C.ar   24  G24         0.3023
    273  O6        -6.0300   39.1690  -25.9890 O.2    24  G24        -0.2633
    274  N7        -3.1880   38.3090  -26.8630 N.ar   24  G24        -0.2173
    275  C8        -1.9990   37.8470  -26.6180 C.ar   24  G24         0.1817
    276  N9        -1.7860   37.5630  -25.2930 N.ar   24  G24        -0.2693
    277  OP1        1.2940   34.3820  -30.0290 O.2    24  G24        -0.5172
    278  OP2       -0.7550   35.8640  -29.4230 O.co2  24  G24        -0.4373
    279  P         -1.2830   32.2760  -25.0290 P.3    25  G25         0.2141
    280  C5'       -1.7730   32.2000  -22.5190 C.3    25  G25         0.1812
    281  O5'       -2.2960   32.2620  -23.8240 O.3    25  G25        -0.3114
    282  C4'       -2.7670   32.6940  -21.5230 C.3    25  G25         0.1773
    283  O4'       -3.0810   34.0850  -21.7800 O.3    25  G25        -0.3307
    284  C3'       -4.1220   32.0390  -21.5690 C.3    25  G25         0.1860
    285  O3'       -4.1520   30.6970  -21.1070 O.3    25  G25        -0.3112
    286  C2'       -4.9430   33.0310  -20.7720 C.3    25  G25         0.2309
    287  O2'       -4.5900   32.9580  -19.4010 O.3    25  G25        -0.2156
    288  C1'       -4.3930   34.3450  -21.3250 C.3    25  G25         0.2408
    289  N1        -8.9330   36.2000  -22.5670 N.ar   25  G25        -0.1709
    290  C2        -8.4390   35.7400  -21.3670 C.ar   25  G25         0.2606
    291  N2        -9.2510   35.7840  -20.3070 N.pl3  25  G25        -0.0859
    292  N3        -7.2220   35.2790  -21.1900 N.ar   25  G25        -0.1918
    293  C4        -6.5130   35.3010  -22.3310 C.ar   25  G25         0.1723
    294  C5        -6.9030   35.7260  -23.5880 C.ar   25  G25         0.1748
    295  C6        -8.2290   36.2270  -23.7680 C.ar   25  G25         0.3023
    296  O6        -8.7820   36.6560  -24.7970 O.2    25  G25        -0.2633
    297  N7        -5.8540   35.5710  -24.4830 N.ar   25  G25        -0.2173
    298  C8        -4.8790   35.0660  -23.7620 C.ar   25  G25         0.1817
    299  N9        -5.2100   34.8750  -22.4400 N.ar   25  G25        -0.2693
    300  OP1       -0.6720   30.9280  -25.0000 O.3    25  G25        -0.4373
    301  OP2       -1.9830   32.7820  -26.2500 O.co2  25  G25        -0.5172
    302  P         -5.0370   29.6150  -21.9160 P.3    26  G26         0.2141
    303  C5'       -6.7700   29.8960  -19.9760 C.3    26  G26         0.1812
    304  O5'       -6.5090   29.8880  -21.3710 O.3    26  G26        -0.3114
    305  C4'       -8.1060   30.5070  -19.6450 C.3    26  G26         0.1773
    306  O4'       -8.1420   31.9120  -20.0110 O.3    26  G26        -0.3307
    307  C3'       -9.3200   29.9370  -20.3570 C.3    26  G26         0.1860
    308  O3'       -9.7450   28.6850  -19.8510 O.3    26  G26        -0.3112
    309  C2'      -10.3260   31.0440  -20.1550 C.3    26  G26         0.2309
    310  O2'      -10.6990   31.0720  -18.7920 O.3    26  G26        -0.2156
    311  C1'       -9.4470   32.2590  -20.4150 C.3    26  G26         0.2408
    312  N1       -11.9980   34.1620  -24.3560 N.ar   26  G26        -0.1709
    313  C2       -12.3790   34.0060  -23.0410 C.ar   26  G26         0.2606
    314  N2       -13.6020   34.4140  -22.7010 N.pl3  26  G26        -0.0859
    315  N3       -11.6020   33.4980  -22.1000 N.ar   26  G26        -0.1918
    316  C4       -10.4060   33.1320  -22.5850 C.ar   26  G26         0.1723
    317  C5        -9.9290   33.2330  -23.8700 C.ar   26  G26         0.1748
    318  C6       -10.7570   33.7890  -24.8770 C.ar   26  G26         0.3023
    319  O6       -10.4970   33.9610  -26.0760 O.2    26  G26        -0.2633
    320  N7        -8.6460   32.7430  -23.9460 N.ar   26  G26        -0.2173
    321  C8        -8.3860   32.3590  -22.7270 C.ar   26  G26         0.1817
    322  N9        -9.4100   32.5760  -21.8490 N.ar   26  G26        -0.2693
    323  OP1       -4.6400   28.2160  -21.5600 O.3    26  G26        -0.4373
    324  OP2       -5.0670   30.0510  -23.3380 O.co2  26  G26        -0.5172
    325  P        -10.2080   27.5270  -20.8650 P.3    27  G27         0.2141
    326  C5'      -12.6260   28.1940  -20.1120 C.3    27  G27         0.1812
    327  O5'      -11.7270   27.9020  -21.1790 O.3    27  G27        -0.3114
    328  C4'      -13.7430   29.1350  -20.5090 C.3    27  G27         0.1773
    329  O4'      -13.2120   30.3430  -21.1090 O.3    27  G27        -0.3307
    330  C3'      -14.7320   28.6250  -21.5440 C.3    27  G27         0.1860
    331  O3'      -15.6740   27.7120  -21.0170 O.3    27  G27        -0.3112
    332  C2'      -15.3420   29.9170  -22.0770 C.3    27  G27         0.2309
    333  O2'      -16.3390   30.4330  -21.2100 O.3    27  G27        -0.2156
    334  C1'      -14.1270   30.8510  -22.0570 C.3    27  G27         0.2408
    335  N1       -14.8000   32.2100  -26.8290 N.ar   27  G27        -0.1709
    336  C2       -15.6180   32.3820  -25.7420 C.ar   27  G27         0.2606
    337  N2       -16.7810   33.0130  -25.9620 N.pl3  27  G27        -0.0859
    338  N3       -15.3070   31.9770  -24.5270 N.ar   27  G27        -0.1918
    339  C4       -14.0940   31.3730  -24.4930 C.ar   27  G27         0.1723
    340  C5       -13.2110   31.1390  -25.5150 C.ar   27  G27         0.1748
    341  C6       -13.5570   31.5850  -26.8140 C.ar   27  G27         0.3023
    342  O6       -12.9140   31.4760  -27.8640 O.2    27  G27        -0.2633
    343  N7       -12.0890   30.4750  -25.0440 N.ar   27  G27        -0.2173
    344  C8       -12.3080   30.3130  -23.7710 C.ar   27  G27         0.1817
    345  N9       -13.4920   30.8620  -23.3770 N.ar   27  G27        -0.2693
    346  OP1      -10.1410   26.2600  -20.0860 O.3    27  G27        -0.4373
    347  OP2       -9.4400   27.6340  -22.1370 O.co2  27  G27        -0.5172
    348  P        -15.9460   26.3250  -21.7760 P.3    28  G28         0.2141
    349  C5'      -17.8340   27.5350  -23.1070 C.3    28  G28         0.1812
    350  O5'      -16.6310   26.7830  -23.1320 O.3    28  G28        -0.3114
    351  C4'      -18.1340   28.1230  -24.4580 C.3    28  G28         0.1773
    352  O4'      -17.1490   29.1460  -24.7720 O.3    28  G28        -0.3307
    353  C3'      -18.0330   27.1590  -25.6250 C.3    28  G28         0.1860
    354  O3'      -19.1510   26.2960  -25.7650 O.3    28  G28        -0.3112
    355  C2'      -17.7960   28.1060  -26.7880 C.3    28  G28         0.2309
    356  O2'      -18.9810   28.8150  -27.0890 O.3    28  G28        -0.2156
    357  C1'      -16.8290   29.0940  -26.1470 C.3    28  G28         0.2408
    358  N1       -12.7640   28.5820  -29.2150 N.ar   28  G28        -0.1709
    359  C2       -13.9850   29.1710  -29.4750 C.ar   28  G28         0.2606
    360  N2       -14.1860   29.6970  -30.6940 N.pl3  28  G28        -0.0859
    361  N3       -14.9550   29.2460  -28.5850 N.ar   28  G28        -0.1918
    362  C4       -14.6370   28.6860  -27.4050 C.ar   28  G28         0.1723
    363  C5       -13.4580   28.0770  -27.0550 C.ar   28  G28         0.1748
    364  C6       -12.4030   27.9880  -28.0030 C.ar   28  G28         0.3023
    365  O6       -11.2800   27.4770  -27.8460 O.2    28  G28        -0.2633
    366  N7       -13.5190   27.6330  -25.7480 N.ar   28  G28        -0.2173
    367  C8       -14.7100   27.9640  -25.3420 C.ar   28  G28         0.1817
    368  N9       -15.4380   28.6210  -26.2880 N.ar   28  G28        -0.2693
    369  OP1      -16.9840   25.5600  -21.0400 O.3    28  G28        -0.4373
    370  OP2      -14.6430   25.6860  -22.0750 O.co2  28  G28        -0.5172
    371  P        -18.9190   24.7180  -25.9950 P.3    29  A29         0.2141
    372  C5'      -19.3670   23.3110  -28.1900 C.3    29  A29         0.1812
    373  O5'      -19.0830   24.5540  -27.5710 O.3    29  A29        -0.3114
    374  C4'      -20.3760   23.5210  -29.2930 C.3    29  A29         0.1773
    375  O4'      -20.0180   24.7100  -30.0410 O.3    29  A29        -0.3307
    376  C3'      -20.4970   22.4300  -30.3540 C.3    29  A29         0.1860
    377  O3'      -21.3330   21.3580  -29.9640 O.3    29  A29        -0.3112
    378  C2'      -21.0460   23.1950  -31.5420 C.3    29  A29         0.2309
    379  O2'      -22.4270   23.4450  -31.3440 O.3    29  A29        -0.2156
    380  C1'      -20.3020   24.5210  -31.4080 C.3    29  A29         0.2408
    381  N1       -17.9280   25.2050  -35.9280 N.ar   29  A29        -0.2040
    382  C2       -19.2110   25.3020  -35.5610 C.ar   29  A29         0.2016
    383  N3       -19.7640   25.1060  -34.3670 N.ar   29  A29        -0.2048
    384  C4       -18.8250   24.7720  -33.4640 C.ar   29  A29         0.1692
    385  C5       -17.4660   24.6410  -33.6810 C.ar   29  A29         0.1518
    386  C6       -17.0090   24.8690  -34.9920 C.ar   29  A29         0.1919
    387  N6       -15.7340   24.7780  -35.3700 N.pl3  29  A29        -0.1054
    388  N7       -16.8260   24.2880  -32.5080 N.ar   29  A29        -0.2193
    389  C8       -17.7810   24.2200  -31.6200 C.ar   29  A29         0.1816
    390  N9       -19.0180   24.5060  -32.1320 N.ar   29  A29        -0.2693
    391  OP1      -19.9950   23.9980  -25.2800 O.3    29  A29        -0.4373
    392  OP2      -17.4970   24.3910  -25.6700 O.co2  29  A29        -0.5172
    393  P        -20.7060   19.9070  -29.6930 P.3    30  C30         0.2141
    394  C5'      -22.2860   19.2780  -31.6860 C.3    30  C30         0.1812
    395  O5'      -21.0610   19.0810  -31.0000 O.3    30  C30        -0.3114
    396  C4'      -22.0640   19.3160  -33.1780 C.3    30  C30         0.1773
    397  O4'      -21.3880   20.5460  -33.5380 O.3    30  C30        -0.3307
    398  C3'      -21.1750   18.2200  -33.7500 C.3    30  C30         0.1860
    399  O3'      -21.8710   17.0050  -33.9610 O.3    30  C30        -0.3112
    400  C2'      -20.6530   18.8470  -35.0390 C.3    30  C30         0.2309
    401  O2'      -21.6140   18.7290  -36.0750 O.3    30  C30        -0.2156
    402  C1'      -20.5430   20.3210  -34.6470 C.3    30  C30         0.2420
    403  N1       -19.1650   20.7070  -34.2780 N.ar   30  C30        -0.2535
    404  C2       -18.2470   20.9430  -35.2980 C.ar   30  C30         0.3532
    405  O2       -18.6150   20.8150  -36.4740 O.2    30  C30        -0.2443
    406  N3       -16.9850   21.3000  -34.9740 N.ar   30  C30        -0.1739
    407  C4       -16.6410   21.4220  -33.6930 C.ar   30  C30         0.1759
    408  N4       -15.3870   21.7760  -33.4170 N.pl3  30  C30        -0.1070
    409  C5       -17.5620   21.1890  -32.6330 C.ar   30  C30         0.0566
    410  C6       -18.8060   20.8400  -32.9710 C.ar   30  C30         0.0850
    411  OP1      -21.4310   19.3170  -28.5450 O.3    30  C30        -0.4373
    412  OP2      -19.2260   20.0090  -29.6670 O.co2  30  C30        -0.5172
    413  P        -21.1930   15.5970  -33.5920 P.3    31  C31         0.2141
    414  C5'      -19.6600   15.4360  -35.7220 C.3    31  C31         0.1812
    415  O5'      -19.7810   15.6480  -34.3240 O.3    31  C31        -0.3114
    416  C4'      -18.2130   15.4310  -36.1290 C.3    31  C31         0.1773
    417  O4'      -17.6660   16.7610  -35.9190 O.3    31  C31        -0.3307
    418  C3'      -17.3130   14.5140  -35.3050 C.3    31  C31         0.1860
    419  O3'      -17.3250   13.1630  -35.7500 O.3    31  C31        -0.3112
    420  C2'      -15.9520   15.1980  -35.4070 C.3    31  C31         0.2309
    421  O2'      -15.3250   14.9000  -36.6450 O.3    31  C31        -0.2156
    422  C1'      -16.3530   16.6750  -35.4060 C.3    31  C31         0.2420
    423  N1       -16.3580   17.2460  -34.0370 N.ar   31  C31        -0.2535
    424  C2       -15.1670   17.6560  -33.4220 C.ar   31  C31         0.3532
    425  O2       -14.0910   17.5570  -34.0300 O.2    31  C31        -0.2443
    426  N3       -15.2170   18.1560  -32.1630 N.ar   31  C31        -0.1739
    427  C4       -16.3860   18.2560  -31.5180 C.ar   31  C31         0.1759
    428  N4       -16.3900   18.7580  -30.2800 N.pl3  31  C31        -0.1070
    429  C5       -17.6120   17.8420  -32.1110 C.ar   31  C31         0.0566
    430  C6       -17.5400   17.3560  -33.3540 C.ar   31  C31         0.0850
    431  OP1      -22.0020   14.5250  -34.2280 O.2    31  C31        -0.5172
    432  OP2      -20.9550   15.5520  -32.1260 O.co2  31  C31        -0.4373
    433  P        -17.8400   11.9750  -34.7870 P.3    32  C32         0.2141
    434  C5'      -15.4440   11.0030  -34.3240 C.3    32  C32         0.1812
    435  O5'      -16.5940   11.6740  -33.8340 O.3    32  C32        -0.3114
    436  C4'      -14.1740   11.6440  -33.8270 C.3    32  C32         0.1773
    437  O4'      -14.3640   13.0800  -33.7170 O.3    32  C32        -0.3307
    438  C3'      -13.7070   11.2330  -32.4370 C.3    32  C32         0.1860
    439  O3'      -13.0340    9.9870  -32.4050 O.3    32  C32        -0.3112
    440  C2'      -12.8350   12.4140  -32.0150 C.3    32  C32         0.2309
    441  O2'      -11.5380   12.3430  -32.5960 O.3    32  C32        -0.2156
    442  C1'      -13.5940   13.5860  -32.6400 C.3    32  C32         0.2420
    443  N1       -14.4950   14.2280  -31.6560 N.ar   32  C32        -0.2535
    444  C2       -13.9260   15.0660  -30.6910 C.ar   32  C32         0.3532
    445  O2       -12.6960   15.2530  -30.6930 O.2    32  C32        -0.2443
    446  N3       -14.7300   15.6560  -29.7750 N.ar   32  C32        -0.1739
    447  C4       -16.0430   15.4290  -29.8000 C.ar   32  C32         0.1759
    448  N4       -16.7870   16.0370  -28.8770 N.pl3  32  C32        -0.1070
    449  C5       -16.6540   14.5770  -30.7680 C.ar   32  C32         0.0566
    450  C6       -15.8450   14.0010  -31.6670 C.ar   32  C32         0.0850
    451  OP1      -18.0990   10.7740  -35.6240 O.2    32  C32        -0.5172
    452  OP2      -18.9470   12.4940  -33.9480 O.co2  32  C32        -0.4373
    453  P        -12.9810    9.1370  -31.0410 P.3    33  A33         0.2141
    454  C5'      -11.3240    9.2700  -29.0260 C.3    33  A33         0.1812
    455  O5'      -11.9410    9.9200  -30.1270 O.3    33  A33        -0.3114
    456  C4'      -11.0660   10.2200  -27.8840 C.3    33  A33         0.1773
    457  O4'      -11.5890   11.5340  -28.2040 O.3    33  A33        -0.3307
    458  C3'      -11.7270    9.8650  -26.5620 C.3    33  A33         0.1860
    459  O3'      -10.9910    8.8990  -25.8320 O.3    33  A33        -0.3112
    460  C2'      -11.8100   11.2140  -25.8610 C.3    33  A33         0.2309
    461  O2'      -10.5550   11.5540  -25.2920 O.3    33  A33        -0.2156
    462  C1'      -12.0800   12.1540  -27.0380 C.3    33  A33         0.2408
    463  N1       -16.3590   14.2510  -25.0720 N.ar   33  A33        -0.2040
    464  C2       -15.1030   14.1690  -24.6060 C.ar   33  A33         0.2016
    465  N3       -14.0370   13.6090  -25.1710 N.ar   33  A33        -0.2048
    466  C4       -14.3530   13.0800  -26.3670 C.ar   33  A33         0.1692
    467  C5       -15.5960   13.0840  -26.9780 C.ar   33  A33         0.1518
    468  C6       -16.6410   13.7080  -26.2760 C.ar   33  A33         0.1919
    469  N6       -17.8870   13.7900  -26.7390 N.pl3  33  A33        -0.1054
    470  N7       -15.5490   12.4420  -28.2080 N.ar   33  A33        -0.2193
    471  C8       -14.2960   12.0690  -28.3080 C.ar   33  A33         0.1816
    472  N9       -13.5180   12.4180  -27.2310 N.ar   33  A33        -0.2693
    473  OP1      -12.3720    7.8150  -31.3330 O.2    33  A33        -0.5172
    474  OP2      -14.3160    9.2310  -30.3920 O.co2  33  A33        -0.4373
    475  P        -11.7290    7.6560  -25.1260 P.3    34  G34         0.2141
    476  C5'      -11.5370    6.1990  -27.3260 C.3    34  G34         0.1813
    477  O5'      -12.3580    6.8220  -26.3370 O.3    34  G34        -0.3114
    478  C4'      -11.8320    4.7230  -27.4650 C.3    34  G34         0.1801
    479  O4'      -11.4570    4.0420  -26.2320 O.3    34  G34        -0.3306
    480  C3'      -13.2930    4.3590  -27.7270 C.3    34  G34         0.2161
    481  O3'      -13.3580    3.2080  -28.5750 O.3    34  G34        -0.2175
    482  C2'      -13.8040    4.0030  -26.3330 C.3    34  G34         0.2337
    483  O2'      -14.9280    3.1490  -26.3250 O.3    34  G34        -0.2155
    484  C1'      -12.5700    3.3430  -25.7090 C.3    34  G34         0.2409
    485  N1       -11.6630    0.8300  -21.3210 N.ar   34  G34        -0.1709
    486  C2       -11.5780    0.3670  -22.6110 C.ar   34  G34         0.2606
    487  N2       -11.2120   -0.9170  -22.7530 N.pl3  34  G34        -0.0859
    488  N3       -11.8340    1.1180  -23.6760 N.ar   34  G34        -0.1918
    489  C4       -12.1880    2.3900  -23.3530 C.ar   34  G34         0.1723
    490  C5       -12.2990    2.9380  -22.0890 C.ar   34  G34         0.1748
    491  C6       -12.0220    2.1240  -20.9570 C.ar   34  G34         0.3023
    492  O6       -12.0690    2.4260  -19.7610 O.2    34  G34        -0.2633
    493  N7       -12.6850    4.2680  -22.1660 N.ar   34  G34        -0.2173
    494  C8       -12.8040    4.4990  -23.4470 C.ar   34  G34         0.1817
    495  N9       -12.5170    3.4080  -24.2370 N.ar   34  G34        -0.2693
    496  OP1      -12.8750    8.1530  -24.3160 O.3    34  G34        -0.4373
    497  OP2      -10.6490    6.8700  -24.4630 O.co2  34  G34        -0.5172
    498  P        -13.6590   15.2510   -1.6760 P.3    39  G39         0.1280
    499  C5'      -12.8630   16.6270   -3.7810 C.3    39  G39         0.1795
    500  O5'      -12.9150   15.3870   -3.0850 O.3    39  G39        -0.3259
    501  C4'      -13.7160   16.5860   -5.0250 C.3    39  G39         0.1772
    502  O4'      -14.7500   17.6010   -4.9540 O.3    39  G39        -0.3307
    503  C3'      -13.0160   16.8810   -6.3360 C.3    39  G39         0.1860
    504  O3'      -12.2850   15.7790   -6.8360 O.3    39  G39        -0.3112
    505  C2'      -14.1770   17.3000   -7.2240 C.3    39  G39         0.2309
    506  O2'      -14.9380   16.1640   -7.5980 O.3    39  G39        -0.2156
    507  C1'      -15.0090   18.1110   -6.2440 C.3    39  G39         0.2408
    508  N1       -15.4440   22.6170   -8.5610 N.ar   39  G39        -0.1709
    509  C2       -15.9790   21.4060   -8.9240 C.ar   39  G39         0.2606
    510  N2       -16.7210   21.4150  -10.0410 N.pl3  39  G39        -0.0859
    511  N3       -15.8070   20.2880   -8.2400 N.ar   39  G39        -0.1918
    512  C4       -15.0230   20.4900   -7.1600 C.ar   39  G39         0.1723
    513  C5       -14.4550   21.6610   -6.7110 C.ar   39  G39         0.1748
    514  C6       -14.6570   22.8480   -7.4440 C.ar   39  G39         0.3023
    515  O6       -14.2390   23.9820   -7.1980 O.2    39  G39        -0.2633
    516  N7       -13.7500   21.4530   -5.5440 N.ar   39  G39        -0.2173
    517  C8       -13.8900   20.1830   -5.3070 C.ar   39  G39         0.1817
    518  N9       -14.6470   19.5390   -6.2470 N.ar   39  G39        -0.2693
    519  OP1      -14.9670   15.9580   -1.7440 O.3    39  G39        -0.1955
    520  OP2      -13.6310   13.8220   -1.2570 O.co2  39  G39        -0.7863
    521  P        -10.9240   16.0210   -7.6510 P.3    40  G40         0.2141
    522  C5'      -12.0230   16.7590   -9.9150 C.3    40  G40         0.1812
    523  O5'      -11.3030   17.1150   -8.7450 O.3    40  G40        -0.3114
    524  C4'      -12.4190   17.9770  -10.7070 C.3    40  G40         0.1773
    525  O4'      -13.0230   18.9560   -9.8240 O.3    40  G40        -0.3307
    526  C3'      -11.2930   18.7580  -11.3570 C.3    40  G40         0.1860
    527  O3'      -10.7630   18.1670  -12.5280 O.3    40  G40        -0.3112
    528  C2'      -11.9310   20.1180  -11.5770 C.3    40  G40         0.2309
    529  O2'      -12.8260   20.0840  -12.6820 O.3    40  G40        -0.2156
    530  C1'      -12.7460   20.2610  -10.2960 C.3    40  G40         0.2408
    531  N1       -11.1750   24.7890   -8.5550 N.ar   40  G40        -0.1709
    532  C2       -11.8700   24.4940   -9.6960 C.ar   40  G40         0.2606
    533  N2       -12.1730   25.5470  -10.4570 N.pl3  40  G40        -0.0859
    534  N3       -12.2270   23.2760  -10.0650 N.ar   40  G40        -0.1918
    535  C4       -11.8160   22.3570   -9.1670 C.ar   40  G40         0.1723
    536  C5       -11.1090   22.5520   -7.9940 C.ar   40  G40         0.1748
    537  C6       -10.7340   23.8650   -7.6200 C.ar   40  G40         0.3023
    538  O6       -10.1050   24.2410   -6.6220 O.2    40  G40        -0.2633
    539  N7       -10.8780   21.3480   -7.3510 N.ar   40  G40        -0.2173
    540  C8       -11.4380   20.4600   -8.1260 C.ar   40  G40         0.1817
    541  N9       -12.0210   20.9990   -9.2450 N.ar   40  G40        -0.2693
    542  OP1      -10.6320   14.7490   -8.3620 O.2    40  G40        -0.5172
    543  OP2       -9.9250   16.6440   -6.7390 O.co2  40  G40        -0.4373
    544  P         -9.1730   18.1870  -12.7370 P.3    41  G41         0.2141
    545  C5'       -9.0310   20.3530  -14.1810 C.3    41  G41         0.1812
    546  O5'       -8.8240   19.7330  -12.9250 O.3    41  G41        -0.3114
    547  C4'       -9.5240   21.7790  -14.0860 C.3    41  G41         0.1773
    548  O4'      -10.0320   22.1060  -12.7720 O.3    41  G41        -0.3307
    549  C3'       -8.4950   22.8570  -14.3200 C.3    41  G41         0.1860
    550  O3'       -8.1430   22.9770  -15.6700 O.3    41  G41        -0.3112
    551  C2'       -9.1930   24.0860  -13.7720 C.3    41  G41         0.2309
    552  O2'      -10.1910   24.5210  -14.6760 O.3    41  G41        -0.2156
    553  C1'       -9.8810   23.4980  -12.5460 C.3    41  G41         0.2408
    554  N1        -7.5530   26.7690   -9.3390 N.ar   41  G41        -0.1709
    555  C2        -8.2270   27.0620  -10.4930 C.ar   41  G41         0.2606
    556  N2        -8.2770   28.3570  -10.8310 N.pl3  41  G41        -0.0859
    557  N3        -8.7850   26.1450  -11.2590 N.ar   41  G41        -0.1918
    558  C4        -8.6350   24.8930  -10.7730 C.ar   41  G41         0.1723
    559  C5        -7.9870   24.5080   -9.6260 C.ar   41  G41         0.1748
    560  C6        -7.3730   25.4920   -8.8100 C.ar   41  G41         0.3023
    561  O6        -6.7420   25.3200   -7.7510 O.2    41  G41        -0.2633
    562  N7        -8.0430   23.1300   -9.4610 N.ar   41  G41        -0.2173
    563  C8        -8.7060   22.6930  -10.4850 C.ar   41  G41         0.1817
    564  N9        -9.0890   23.7030  -11.3220 N.ar   41  G41        -0.2693
    565  OP1       -8.9020   17.4650  -14.0040 O.2    41  G41        -0.5172
    566  OP2       -8.5570   17.7380  -11.4630 O.co2  41  G41        -0.4373
    567  P         -6.6110   23.1800  -16.0410 P.3    42  G42         0.2141
    568  C5'       -7.2080   25.6240  -16.6620 C.3    42  G42         0.1812
    569  O5'       -6.4090   24.7430  -15.9070 O.3    42  G42        -0.3114
    570  C4'       -6.9630   27.0510  -16.2740 C.3    42  G42         0.1773
    571  O4'       -7.3670   27.2590  -14.9030 O.3    42  G42        -0.3307
    572  C3'       -5.5220   27.4890  -16.2720 C.3    42  G42         0.1860
    573  O3'       -4.9850   27.6890  -17.5640 O.3    42  G42        -0.3112
    574  C2'       -5.5690   28.7230  -15.3820 C.3    42  G42         0.2309
    575  O2'       -6.1490   29.8290  -16.0620 O.3    42  G42        -0.2156
    576  C1'       -6.5620   28.2600  -14.3210 C.3    42  G42         0.2408
    577  N1        -3.7710   29.3340  -10.2860 N.ar   42  G42        -0.1709
    578  C2        -4.2200   30.1450  -11.2920 C.ar   42  G42         0.2606
    579  N2        -3.8990   31.4330  -11.2250 N.pl3  42  G42        -0.0859
    580  N3        -4.9450   29.7400  -12.3030 N.ar   42  G42        -0.1918
    581  C4        -5.1850   28.4210  -12.2240 C.ar   42  G42         0.1723
    582  C5        -4.7860   27.5120  -11.2770 C.ar   42  G42         0.1748
    583  C6        -4.0100   27.9720  -10.1930 C.ar   42  G42         0.3023
    584  O6        -3.5660   27.3220   -9.2470 O.2    42  G42        -0.2633
    585  N7        -5.2510   26.2400  -11.5850 N.ar   42  G42        -0.2173
    586  C8        -5.9090   26.4020  -12.6960 C.ar   42  G42         0.1817
    587  N9        -5.9050   27.7010  -13.1310 N.ar   42  G42        -0.2693
    588  OP1       -6.4170   22.7680  -17.4560 O.2    42  G42        -0.5172
    589  OP2       -5.8390   22.5650  -14.9380 O.co2  42  G42        -0.4373
    590  P         -3.4570   27.2870  -17.8270 P.3    43  C43         0.2141
    591  C5'       -3.1460   29.8630  -17.8600 C.3    43  C43         0.1812
    592  O5'       -2.6930   28.6030  -17.4020 O.3    43  C43        -0.3114
    593  C4'       -2.3870   30.9570  -17.1710 C.3    43  C43         0.1773
    594  O4'       -2.7840   31.0290  -15.7780 O.3    43  C43        -0.3307
    595  C3'       -0.8950   30.7420  -17.1090 C.3    43  C43         0.1860
    596  O3'       -0.2690   31.1130  -18.3150 O.3    43  C43        -0.3112
    597  C2'       -0.5000   31.5940  -15.9180 C.3    43  C43         0.2309
    598  O2'       -0.5420   32.9620  -16.2880 O.3    43  C43        -0.2156
    599  C1'       -1.6680   31.3380  -14.9780 C.3    43  C43         0.2420
    600  N1        -1.4500   30.2050  -14.0470 N.ar   43  C43        -0.2535
    601  C2        -0.8170   30.4240  -12.8240 C.ar   43  C43         0.3532
    602  O2        -0.4060   31.5550  -12.5480 O.2    43  C43        -0.2443
    603  N3        -0.6540   29.3940  -11.9720 N.ar   43  C43        -0.1739
    604  C4        -1.1030   28.1870  -12.2950 C.ar   43  C43         0.1759
    605  N4        -0.9240   27.1990  -11.4260 N.pl3  43  C43        -0.1070
    606  C5        -1.7670   27.9280  -13.5210 C.ar   43  C43         0.0566
    607  C6        -1.9220   28.9590  -14.3540 C.ar   43  C43         0.0850
    608  OP1       -3.1970   27.1140  -19.2770 O.2    43  C43        -0.5172
    609  OP2       -3.1690   26.1910  -16.8640 O.co2  43  C43        -0.4373
    610  P          0.8960   30.2070  -18.9280 P.3    44  G44         0.2141
    611  C5'        2.6710   31.4040  -17.4140 C.3    44  G44         0.1812
    612  O5'        1.9910   30.2150  -17.7760 O.3    44  G44        -0.3114
    613  C4'        3.5620   31.1550  -16.2370 C.3    44  G44         0.1773
    614  O4'        2.7590   30.8250  -15.0750 O.3    44  G44        -0.3307
    615  C3'        4.5030   29.9720  -16.3730 C.3    44  G44         0.1860
    616  O3'        5.6400   30.2490  -17.1770 O.3    44  G44        -0.3112
    617  C2'        4.8150   29.6400  -14.9220 C.3    44  G44         0.2309
    618  O2'        5.7870   30.5330  -14.4020 O.3    44  G44        -0.2156
    619  C1'        3.4590   29.9220  -14.2520 C.3    44  G44         0.2408
    620  N1         2.5580   26.0170  -11.2530 N.ar   44  G44        -0.1709
    621  C2         3.3400   27.1260  -11.0320 C.ar   44  G44         0.2606
    622  N2         3.9620   27.1860   -9.8450 N.pl3  44  G44        -0.0859
    623  N3         3.4680   28.0930  -11.9290 N.ar   44  G44        -0.1918
    624  C4         2.7560   27.8470  -13.0550 C.ar   44  G44         0.1723
    625  C5         1.9580   26.7780  -13.3730 C.ar   44  G44         0.1748
    626  C6         1.8220   25.7490  -12.4120 C.ar   44  G44         0.3023
    627  O6         1.1710   24.7030  -12.4940 O.2    44  G44        -0.2633
    628  N7         1.4230   26.9210  -14.6390 N.ar   44  G44        -0.2173
    629  C8         1.8880   28.0580  -15.0640 C.ar   44  G44         0.1817
    630  N9         2.6870   28.6750  -14.1350 N.ar   44  G44        -0.2693
    631  OP1        1.3300   30.9610  -20.1330 O.2    44  G44        -0.5172
    632  OP2        0.5410   28.7670  -19.0090 O.co2  44  G44        -0.4373
    633  P          6.0780   29.2210  -18.3310 P.3    45  A45         0.2141
    634  C5'        7.3240   26.9260  -18.1810 C.3    45  A45         0.1812
    635  O5'        6.7310   28.0280  -17.5140 O.3    45  A45        -0.3114
    636  C4'        8.1840   26.1330  -17.2330 C.3    45  A45         0.1773
    637  O4'        9.4080   26.8600  -16.9880 O.3    45  A45        -0.3307
    638  C3'        7.5760   25.9300  -15.8590 C.3    45  A45         0.1860
    639  O3'        6.7460   24.7940  -15.8090 O.3    45  A45        -0.3112
    640  C2'        8.7880   25.8480  -14.9320 C.3    45  A45         0.2309
    641  O2'        9.3340   24.5370  -14.9260 O.3    45  A45        -0.2156
    642  C1'        9.7710   26.7650  -15.6320 C.3    45  A45         0.2408
    643  N1        11.3960   29.8030  -11.7960 N.ar   45  A45        -0.2040
    644  C2        11.4230   28.4810  -11.9470 C.ar   45  A45         0.2016
    645  N3        10.9790   27.7450  -12.9610 N.ar   45  A45        -0.2048
    646  C4        10.4270   28.5190  -13.9200 C.ar   45  A45         0.1692
    647  C5        10.3260   29.8950  -13.9110 C.ar   45  A45         0.1518
    648  C6        10.8590   30.5410  -12.7820 C.ar   45  A45         0.1919
    649  N6        10.8360   31.8560  -12.6350 N.pl3  45  A45        -0.1054
    650  N7         9.6970   30.3570  -15.0710 N.ar   45  A45        -0.2193
    651  C8         9.4520   29.2650  -15.7500 C.ar   45  A45         0.1816
    652  N9         9.8330   28.1260  -15.0940 N.ar   45  A45        -0.2693
    653  OP1        7.0800   29.9130  -19.1740 O.2    45  A45        -0.5172
    654  OP2        4.8990   28.6360  -19.0110 O.co2  45  A45        -0.4373
    655  P          5.4880   24.7940  -14.8280 P.3    46  A46         0.2141
    656  C5'        6.8100   23.7580  -12.8180 C.3    46  A46         0.1812
    657  O5'        6.1100   24.8600  -13.3720 O.3    46  A46        -0.3114
    658  C4'        7.4090   24.1760  -11.5160 C.3    46  A46         0.1773
    659  O4'        8.1950   25.3540  -11.7560 O.3    46  A46        -0.3307
    660  C3'        6.3910   24.5990  -10.4790 C.3    46  A46         0.1860
    661  O3'        5.9870   23.4960   -9.7000 O.3    46  A46        -0.3112
    662  C2'        7.1170   25.6580   -9.6610 C.3    46  A46         0.2309
    663  O2'        7.8450   25.0380   -8.6170 O.3    46  A46        -0.2156
    664  C1'        8.1010   26.2380  -10.6720 C.3    46  A46         0.2408
    665  N1         8.7470   31.3310  -10.2870 N.ar   46  A46        -0.2040
    666  C2         9.1820   30.3100   -9.5360 C.ar   46  A46         0.2016
    667  N3         8.9640   29.0080   -9.6870 N.ar   46  A46        -0.2048
    668  C4         8.1900   28.7760  -10.7590 C.ar   46  A46         0.1692
    669  C5         7.6750   29.7130  -11.6310 C.ar   46  A46         0.1518
    670  C6         7.9750   31.0570  -11.3690 C.ar   46  A46         0.1919
    671  N6         7.5510   32.0690  -12.1280 N.pl3  46  A46        -0.1054
    672  N7         6.9570   29.0990  -12.6360 N.ar   46  A46        -0.2193
    673  C8         7.0400   27.8250  -12.3550 C.ar   46  A46         0.1816
    674  N9         7.7500   27.5620  -11.2160 N.ar   46  A46        -0.2693
    675  OP1        4.8700   23.4480  -14.9580 O.3    46  A46        -0.4373
    676  OP2        4.7790   26.0890  -15.0300 O.co2  46  A46        -0.5172
    677  P          4.5840   23.5010   -8.9310 P.3    47  U47         0.2141
    678  C5'        3.8700   21.0240   -9.0550 C.3    47  U47         0.1812
    679  O5'        3.8290   22.3060   -9.6420 O.3    47  U47        -0.3114
    680  C4'        4.4100   19.9650   -9.9790 C.3    47  U47         0.1773
    681  O4'        5.6100   20.4170  -10.6550 O.3    47  U47        -0.3307
    682  C3'        4.8360   18.7130   -9.2460 C.3    47  U47         0.1860
    683  O3'        3.7320   17.8830   -8.9580 O.3    47  U47        -0.3112
    684  C2'        5.8880   18.1000  -10.1690 C.3    47  U47         0.2309
    685  O2'        5.3070   17.3460  -11.2100 O.3    47  U47        -0.2156
    686  C1'        6.5350   19.3470  -10.7690 C.3    47  U47         0.2420
    687  N1         7.7650   19.7090  -10.0300 N.ar   47  U47        -0.2534
    688  C2         8.8900   18.8980  -10.1040 C.ar   47  U47         0.3546
    689  O2         8.9630   17.8800  -10.7680 O.2    47  U47        -0.2443
    690  N3         9.9550   19.3340   -9.3570 N.ar   47  U47        -0.1530
    691  C4         9.9960   20.4690   -8.5660 C.ar   47  U47         0.2846
    692  O4        11.0080   20.7560   -7.9390 O.2    47  U47        -0.2650
    693  C5         8.7970   21.2400   -8.5410 C.ar   47  U47         0.0814
    694  C6         7.7510   20.8390   -9.2550 C.ar   47  U47         0.0870
    695  OP1        3.8600   24.7730   -9.1900 O.2    47  U47        -0.5172
    696  OP2        4.8530   23.0670   -7.5290 O.co2  47  U47        -0.4373
    697  P          3.3690   17.5010   -7.4400 P.3    48  C48         0.2141
    698  C5'        4.3850   15.2830   -8.3050 C.3    48  C48         0.1812
    699  O5'        4.2490   16.2010   -7.2290 O.3    48  C48        -0.3114
    700  C4'        5.5730   14.3930   -8.1090 C.3    48  C48         0.1773
    701  O4'        6.7470   15.0040   -8.7060 O.3    48  C48        -0.3307
    702  C3'        5.9730   14.1810   -6.6600 C.3    48  C48         0.1860
    703  O3'        5.1630   13.2440   -5.9820 O.3    48  C48        -0.3112
    704  C2'        7.4350   13.7960   -6.7850 C.3    48  C48         0.2309
    705  O2'        7.5640   12.4610   -7.2470 O.3    48  C48        -0.2156
    706  C1'        7.8780   14.7500   -7.8970 C.3    48  C48         0.2420
    707  N1         8.3280   16.0340   -7.3170 N.ar   48  C48        -0.2535
    708  C2         9.6540   16.1280   -6.9060 C.ar   48  C48         0.3532
    709  O2        10.3990   15.1550   -7.0780 O.2    48  C48        -0.2443
    710  N3        10.0890   17.2770   -6.3460 N.ar   48  C48        -0.1739
    711  C4         9.2470   18.3010   -6.1820 C.ar   48  C48         0.1759
    712  N4         9.7240   19.4150   -5.6280 N.pl3  48  C48        -0.1070
    713  C5         7.8800   18.2350   -6.5800 C.ar   48  C48         0.0566
    714  C6         7.4720   17.0900   -7.1330 C.ar   48  C48         0.0850
    715  OP1        1.9500   17.0450   -7.4330 O.2    48  C48        -0.5172
    716  OP2        3.7790   18.5800   -6.5070 O.co2  48  C48        -0.4373
    717  P          5.3680   13.0060   -4.4130 P.3    49  U49         0.2141
    718  C5'        7.1270   11.4960   -3.2110 C.3    49  U49         0.1812
    719  O5'        6.4160   11.8140   -4.3880 O.3    49  U49        -0.3114
    720  C4'        8.5380   11.0970   -3.5350 C.3    49  U49         0.1773
    721  O4'        9.1490   12.1090   -4.3780 O.3    49  U49        -0.3307
    722  C3'        9.4690   10.9920   -2.3440 C.3    49  U49         0.1860
    723  O3'        9.3420    9.7570   -1.6600 O.3    49  U49        -0.3112
    724  C2'       10.8380   11.2220   -2.9690 C.3    49  U49         0.2309
    725  O2'       11.2860   10.0540   -3.6380 O.3    49  U49        -0.2156
    726  C1'       10.5070   12.2710   -4.0310 C.3    49  U49         0.2420
    727  N1        10.6910   13.6650   -3.5570 N.ar   49  U49        -0.2534
    728  C2        11.9040   14.1270   -3.0620 C.ar   49  U49         0.3546
    729  O2        12.9090   13.4450   -2.9470 O.2    49  U49        -0.2443
    730  N3        11.8980   15.4500   -2.6820 N.ar   49  U49        -0.1530
    731  C4        10.8470   16.3460   -2.7480 C.ar   49  U49         0.2846
    732  O4        10.9820   17.5110   -2.3700 O.2    49  U49        -0.2650
    733  C5         9.6420   15.7960   -3.2750 C.ar   49  U49         0.0814
    734  C6         9.6150   14.5150   -3.6500 C.ar   49  U49         0.0870
    735  OP1        4.0780   12.5310   -3.8560 O.2    49  U49        -0.5172
    736  OP2        6.0110   14.2000   -3.8110 O.co2  49  U49        -0.4373
    737  P          8.7310    9.7200   -0.1710 P.3    50  C50         0.2141
    738  C5'       11.0730    8.7340    0.4440 C.3    50  C50         0.1812
    739  O5'       10.0150    9.6210    0.7600 O.3    50  C50        -0.3114
    740  C4'       12.3930    9.3030    0.8810 C.3    50  C50         0.1773
    741  O4'       12.7680   10.3940    0.0030 O.3    50  C50        -0.3307
    742  C3'       12.4120    9.9350    2.2610 C.3    50  C50         0.1860
    743  O3'       12.5180    8.9930    3.3090 O.3    50  C50        -0.3112
    744  C2'       13.6010   10.8690    2.1700 C.3    50  C50         0.2309
    745  O2'       14.8070   10.1360    2.2910 O.3    50  C50        -0.2156
    746  C1'       13.4860   11.3650    0.7320 C.3    50  C50         0.2420
    747  N1        12.7730   12.6570    0.6640 N.ar   50  C50        -0.2535
    748  C2        13.4890   13.8090    0.9950 C.ar   50  C50         0.3532
    749  O2        14.6780   13.7100    1.3270 O.2    50  C50        -0.2443
    750  N3        12.8770   15.0110    0.9570 N.ar   50  C50        -0.1739
    751  C4        11.6010   15.0880    0.6020 C.ar   50  C50         0.1759
    752  N4        11.0550   16.3020    0.5720 N.pl3  50  C50        -0.1070
    753  C5        10.8490   13.9320    0.2560 C.ar   50  C50         0.0566
    754  C6        11.4640   12.7440    0.3030 C.ar   50  C50         0.0850
    755  OP1        7.9670    8.4630   -0.0040 O.2    50  C50        -0.5172
    756  OP2        8.0710   11.0170    0.1240 O.co2  50  C50        -0.4373
    757  P         11.9060    9.3450    4.7490 P.3    51  U51         0.2141
    758  C5'       14.3070   10.0250    5.4390 C.3    51  U51         0.1812
    759  O5'       12.9450   10.3800    5.3400 O.3    51  U51        -0.3114
    760  C4'       15.1650   11.2330    5.6830 C.3    51  U51         0.1773
    761  O4'       15.0550   12.1710    4.5810 O.3    51  U51        -0.3307
    762  C3'       14.8010   12.0620    6.8930 C.3    51  U51         0.1860
    763  O3'       15.2370   11.4790    8.1030 O.3    51  U51        -0.3112
    764  C2'       15.4600   13.3930    6.5710 C.3    51  U51         0.2309
    765  O2'       16.8620   13.3300    6.7820 O.3    51  U51        -0.2156
    766  C1'       15.2220   13.4860    5.0680 C.3    51  U51         0.2420
    767  N1        14.0110   14.2650    4.7660 N.ar   51  U51        -0.2534
    768  C2        14.0470   15.6070    5.0720 C.ar   51  U51         0.3546
    769  O2        14.9970   16.1870    5.5600 O.2    51  U51        -0.2443
    770  N3        12.9000   16.2760    4.7790 N.ar   51  U51        -0.1530
    771  C4        11.7550   15.7570    4.2290 C.ar   51  U51         0.2846
    772  O4        10.8240   16.5250    4.0360 O.2    51  U51        -0.2650
    773  C5        11.7890   14.3580    3.9360 C.ar   51  U51         0.0814
    774  C6        12.9010   13.6740    4.2190 C.ar   51  U51         0.0870
    775  OP1       11.9460    8.1410    5.6170 O.3    51  U51        -0.4373
    776  OP2       10.6350   10.0760    4.5440 O.co2  51  U51        -0.5172
    777  P         14.4580   11.7960    9.4640 P.3    52  U52         0.2141
    778  C5'       16.1150   13.7670    9.9410 C.3    52  U52         0.1812
    779  O5'       14.7800   13.3330    9.7390 O.3    52  U52        -0.3114
    780  C4'       16.1940   15.2450   10.2220 C.3    52  U52         0.1773
    781  O4'       15.7860   16.0090    9.0640 O.3    52  U52        -0.3307
    782  C3'       15.2940   15.7600   11.3220 C.3    52  U52         0.1860
    783  O3'       15.7920   15.4950   12.6080 O.3    52  U52        -0.3112
    784  C2'       15.1980   17.2400   11.0000 C.3    52  U52         0.2309
    785  O2'       16.3620   17.9330   11.4000 O.3    52  U52        -0.2156
    786  C1'       15.1750   17.2110    9.4800 C.3    52  U52         0.2420
    787  N1        13.7980   17.2760    8.9380 N.ar   52  U52        -0.2534
    788  C2        13.1240   18.4780    9.0570 C.ar   52  U52         0.3546
    789  O2        13.5630   19.4840    9.5880 O.2    52  U52        -0.2443
    790  N3        11.8860   18.4710    8.5080 N.ar   52  U52        -0.1530
    791  C4        11.2480   17.4380    7.8760 C.ar   52  U52         0.2846
    792  O4        10.1080   17.6330    7.4480 O.2    52  U52        -0.2650
    793  C5        11.9960   16.2270    7.7960 C.ar   52  U52         0.0814
    794  C6        13.2180   16.1920    8.3180 C.ar   52  U52         0.0870
    795  OP1       15.0840   10.9960   10.5500 O.3    52  U52        -0.4373
    796  OP2       13.0000   11.6840    9.1840 O.co2  52  U52        -0.5172
    797  P         14.8080   14.9450   13.7290 P.3    53  C53         0.2141
    798  C5'       15.5580   17.2650   14.7130 C.3    53  C53         0.1812
    799  O5'       14.6680   16.1610   14.7470 O.3    53  C53        -0.3114
    800  C4'       14.8230   18.5790   14.8370 C.3    53  C53         0.1773
    801  O4'       14.4140   19.0420   13.5250 O.3    53  C53        -0.3307
    802  C3'       13.5250   18.5630   15.6290 C.3    53  C53         0.1860
    803  O3'       13.6920   18.5710   17.0330 O.3    53  C53        -0.3112
    804  C2'       12.7960   19.7870   15.0970 C.3    53  C53         0.2309
    805  O2'       13.3080   20.9780   15.6760 O.3    53  C53        -0.2156
    806  C1'       13.1960   19.7540   13.6260 C.3    53  C53         0.2420
    807  N1        12.1810   19.0750   12.7930 N.ar   53  C53        -0.2535
    808  C2        11.1380   19.8280   12.2450 C.ar   53  C53         0.3532
    809  O2        11.0950   21.0450   12.4920 O.2    53  C53        -0.2443
    810  N3        10.2150   19.2050   11.4590 N.ar   53  C53        -0.1739
    811  C4        10.3000   17.8890   11.2260 C.ar   53  C53         0.1759
    812  N4         9.3760   17.3060   10.4600 N.pl3  53  C53        -0.1070
    813  C5        11.3590   17.1040   11.7720 C.ar   53  C53         0.0566
    814  C6        12.2580   17.7320   12.5430 C.ar   53  C53         0.0850
    815  OP1       15.4300   13.7810   14.3960 O.3    53  C53        -0.4373
    816  OP2       13.4920   14.7740   13.0810 O.co2  53  C53        -0.5172
    817  P         12.5310   17.9410   17.9430 P.3    54  C54         0.2141
    818  C5'       11.5170   20.2570   18.6590 C.3    54  C54         0.1812
    819  O5'       11.3820   19.0490   17.9250 O.3    54  C54        -0.3114
    820  C4'       10.2400   21.0670   18.6620 C.3    54  C54         0.1773
    821  O4'        9.9670   21.5620   17.3230 O.3    54  C54        -0.3307
    822  C3'        8.9530   20.3340   19.0460 C.3    54  C54         0.1860
    823  O3'        8.7770   20.1390   20.4380 O.3    54  C54        -0.3112
    824  C2'        7.8860   21.2060   18.4100 C.3    54  C54         0.2309
    825  O2'        7.6760   22.3840   19.1780 O.3    54  C54        -0.2156
    826  C1'        8.5740   21.5790   17.0930 C.3    54  C54         0.2420
    827  N1         8.2750   20.5830   16.0410 N.ar   54  C54        -0.2535
    828  C2         7.0940   20.7330   15.3150 C.ar   54  C54         0.3532
    829  O2         6.3590   21.7020   15.5710 O.2    54  C54        -0.2443
    830  N3         6.7980   19.8250   14.3530 N.ar   54  C54        -0.1739
    831  C4         7.6190   18.7980   14.1130 C.ar   54  C54         0.1759
    832  N4         7.2710   17.9360   13.1520 N.pl3  54  C54        -0.1070
    833  C5         8.8270   18.6140   14.8510 C.ar   54  C54         0.0566
    834  C6         9.1080   19.5240   15.7920 C.ar   54  C54         0.0850
    835  OP1       13.0380   17.7530   19.3350 O.3    54  C54        -0.4373
    836  OP2       12.0230   16.7730   17.1710 O.co2  54  C54        -0.5172
    837  P          8.6360   18.6460   21.0140 P.3    55  G55         0.2141
    838  C5'        6.0730   18.5920   21.0370 C.3    55  G55         0.1812
    839  O5'        7.2600   18.1530   20.4200 O.3    55  G55        -0.3114
    840  C4'        5.0000   18.8870   20.0350 C.3    55  G55         0.1773
    841  O4'        5.5630   19.0750   18.7080 O.3    55  G55        -0.3307
    842  C3'        3.9990   17.7820   19.8140 C.3    55  G55         0.1860
    843  O3'        3.1080   17.6040   20.8910 O.3    55  G55        -0.3112
    844  C2'        3.3810   18.2170   18.5040 C.3    55  G55         0.2309
    845  O2'        2.6510   19.4150   18.6950 O.3    55  G55        -0.2156
    846  C1'        4.6430   18.5860   17.7420 C.3    55  G55         0.2408
    847  N1         3.9040   14.9020   14.3270 N.ar   55  G55        -0.1709
    848  C2         3.0800   15.9500   14.6630 C.ar   55  G55         0.2606
    849  N2         1.9050   16.0250   14.0070 N.pl3  55  G55        -0.0859
    850  N3         3.4000   16.8540   15.5770 N.ar   55  G55        -0.1918
    851  C4         4.6140   16.6210   16.1310 C.ar   55  G55         0.1723
    852  C5         5.5040   15.5990   15.8640 C.ar   55  G55         0.1748
    853  C6         5.1560   14.6370   14.8810 C.ar   55  G55         0.3023
    854  O6         5.8090   13.6550   14.5000 O.2    55  G55        -0.2633
    855  N7         6.6430   15.7110   16.6500 N.ar   55  G55        -0.2173
    856  C8         6.4270   16.7770   17.3740 C.ar   55  G55         0.1817
    857  N9         5.2200   17.3840   17.1050 N.ar   55  G55        -0.2693
    858  OP1        8.4420   18.7560   22.4820 O.3    55  G55        -0.4373
    859  OP2        9.6860   17.7580   20.4610 O.co2  55  G55        -0.5172
    860  P          3.2810   16.3110   21.8320 P.3    56  A56         0.2141
    861  C5'        2.3950   13.8730   21.5060 C.3    56  A56         0.1812
    862  O5'        2.7300   15.1220   20.9230 O.3    56  A56        -0.3114
    863  C4'        1.1630   13.2250   20.9000 C.3    56  A56         0.1773
    864  O4'       -0.0670   13.6880   21.5170 O.3    56  A56        -0.3307
    865  C3'        0.8920   13.4170   19.4210 C.3    56  A56         0.1860
    866  O3'        1.7770   12.7050   18.5780 O.3    56  A56        -0.3112
    867  C2'       -0.5570   12.9480   19.3030 C.3    56  A56         0.2309
    868  O2'       -0.6320   11.5310   19.2540 O.3    56  A56        -0.2156
    869  C1'       -1.1450   13.4120   20.6400 C.3    56  A56         0.2408
    870  N1        -2.0480   18.4870   21.2650 N.ar   56  A56        -0.2040
    871  C2        -0.9810   17.7300   21.5680 C.ar   56  A56         0.2016
    872  N3        -0.7890   16.4280   21.3890 N.ar   56  A56        -0.2048
    873  C4        -1.8710   15.8860   20.8170 C.ar   56  A56         0.1692
    874  C5        -3.0500   16.5330   20.4460 C.ar   56  A56         0.1518
    875  C6        -3.1230   17.9090   20.6880 C.ar   56  A56         0.1919
    876  N6        -4.1810   18.6570   20.3740 N.pl3  56  A56        -0.1054
    877  N7        -3.9600   15.6590   19.8780 N.ar   56  A56        -0.2193
    878  C8        -3.3140   14.5240   19.9260 C.ar   56  A56         0.1816
    879  N9        -2.0530   14.5710   20.4890 N.ar   56  A56        -0.2693
    880  OP1        2.3820   16.4930   22.9960 O.3    56  A56        -0.4373
    881  OP2        4.7110   16.0680   22.1340 O.co2  56  A56        -0.5172
    882  P          2.2100   13.3480   17.1710 P.3    57  A57         0.2141
    883  C5'        0.1460   12.6680   15.7320 C.3    57  A57         0.1812
    884  O5'        0.8370   13.6810   16.4400 O.3    57  A57        -0.3114
    885  C4'       -1.3050   13.0120   15.5300 C.3    57  A57         0.1773
    886  O4'       -1.8020   13.7720   16.6540 O.3    57  A57        -0.3307
    887  C3'       -1.6440   13.8970   14.3470 C.3    57  A57         0.1860
    888  O3'       -1.6080   13.2300   13.0980 O.3    57  A57        -0.3112
    889  C2'       -3.0310   14.4040   14.7190 C.3    57  A57         0.2309
    890  O2'       -4.0100   13.4110   14.4540 O.3    57  A57        -0.2156
    891  C1'       -2.9020   14.5600   16.2300 C.3    57  A57         0.2408
    892  N1         0.1360   18.1260   18.3390 N.ar   57  A57        -0.2040
    893  C2         0.3280   16.8280   18.0790 C.ar   57  A57         0.2016
    894  N3        -0.4970   15.9580   17.5220 N.ar   57  A57        -0.2048
    895  C4        -1.6580   16.5550   17.2180 C.ar   57  A57         0.1692
    896  C5        -2.0160   17.8790   17.4260 C.ar   57  A57         0.1518
    897  C6        -1.0420   18.6970   18.0180 C.ar   57  A57         0.1919
    898  N6        -1.2190   19.9910   18.2830 N.pl3  57  A57        -0.1054
    899  N7        -3.3060   18.1360   16.9870 N.ar   57  A57        -0.2193
    900  C8        -3.6880   16.9700   16.5330 C.ar   57  A57         0.1816
    901  N9        -2.7480   15.9690   16.6480 N.ar   57  A57        -0.2693
    902  OP1        2.8670   12.2980   16.3530 O.2    57  A57        -0.5172
    903  OP2        2.8900   14.6300   17.4830 O.co2  57  A57        -0.4373
    904  P         -1.3360   14.0800   11.7660 P.3    58  A58         0.2141
    905  C5'       -3.6360   15.3090   11.5530 C.3    58  A58         0.1812
    906  O5'       -2.2690   15.3600   11.9090 O.3    58  A58        -0.3114
    907  C4'       -4.2520   16.6790   11.6140 C.3    58  A58         0.1773
    908  O4'       -4.2080   17.1950   12.9700 O.3    58  A58        -0.3307
    909  C3'       -3.5320   17.7320   10.8010 C.3    58  A58         0.1860
    910  O3'       -3.8610   17.6600    9.4320 O.3    58  A58        -0.3112
    911  C2'       -3.9540   19.0240   11.4870 C.3    58  A58         0.2309
    912  O2'       -5.2760   19.3910   11.1210 O.3    58  A58        -0.2156
    913  C1'       -3.9600   18.5860   12.9480 C.3    58  A58         0.2408
    914  N1        -0.9910   21.8150   15.6970 N.ar   58  A58        -0.2040
    915  C2        -2.2420   21.9280   15.2300 C.ar   58  A58         0.2016
    916  N3        -2.9600   21.0560   14.5220 N.ar   58  A58        -0.2048
    917  C4        -2.2540   19.9360   14.2810 C.ar   58  A58         0.1692
    918  C5        -0.9610   19.6700   14.6950 C.ar   58  A58         0.1518
    919  C6        -0.3100   20.6750   15.4380 C.ar   58  A58         0.1919
    920  N6         0.9370   20.5500   15.8930 N.pl3  58  A58        -0.1054
    921  N7        -0.5540   18.4100   14.2670 N.ar   58  A58        -0.2193
    922  C8        -1.5950   17.9490   13.6170 C.ar   58  A58         0.1816
    923  N9        -2.6530   18.8190   13.5870 N.ar   58  A58        -0.2693
    924  OP1       -1.8280   13.3020   10.6020 O.2    58  A58        -0.5172
    925  OP2        0.0740   14.5500   11.8510 O.co2  58  A58        -0.4373
    926  P         -2.8370   18.2080    8.3360 P.3    59  G59         0.2141
    927  C5'       -1.8980   20.6550    8.2150 C.3    59  G59         0.1812
    928  O5'       -2.9920   19.7880    8.4650 O.3    59  G59        -0.3114
    929  C4'       -1.6000   21.5420    9.3990 C.3    59  G59         0.1773
    930  O4'       -1.4480   20.7310   10.5910 O.3    59  G59        -0.3307
    931  C3'       -0.2990   22.3220    9.2930 C.3    59  G59         0.1860
    932  O3'       -0.4630   23.5380    8.5920 O.3    59  G59        -0.3112
    933  C2'        0.1420   22.4880   10.7410 C.3    59  G59         0.2309
    934  O2'       -0.5110   23.5880   11.3670 O.3    59  G59        -0.2156
    935  C1'       -0.3570   21.1810   11.3600 C.3    59  G59         0.2408
    936  N1         4.1260   19.5270   13.1080 N.ar   59  G59        -0.1709
    937  C2         3.4540   20.6850   13.4060 C.ar   59  G59         0.2606
    938  N2         4.0400   21.5080   14.2850 N.pl3  59  G59        -0.0859
    939  N3         2.2870   21.0110   12.8880 N.ar   59  G59        -0.1918
    940  C4         1.8450   20.0670   12.0330 C.ar   59  G59         0.1723
    941  C5         2.4410   18.8760   11.6610 C.ar   59  G59         0.1748
    942  C6         3.6950   18.5420   12.2280 C.ar   59  G59         0.3023
    943  O6         4.3870   17.5350   12.0380 O.2    59  G59        -0.2633
    944  N7         1.6490   18.1860   10.7470 N.ar   59  G59        -0.2173
    945  C8         0.6150   18.9620   10.5810 C.ar   59  G59         0.1817
    946  N9         0.6680   20.1190   11.3270 N.ar   59  G59        -0.2693
    947  OP1       -3.3460   17.7840    7.0080 O.2    59  G59        -0.5172
    948  OP2       -1.4740   17.8090    8.7580 O.co2  59  G59        -0.4373
    949  P          0.4590   23.8440    7.3170 P.3    60  G60         0.2141
    950  C5'        1.1900   25.6940    8.9940 C.3    60  G60         0.1812
    951  O5'        1.5390   24.8420    7.9160 O.3    60  G60        -0.3114
    952  C4'        2.3270   25.8580    9.9680 C.3    60  G60         0.1773
    953  O4'        2.4250   24.6980   10.8420 O.3    60  G60        -0.3307
    954  C3'        3.7210   25.9640    9.3760 C.3    60  G60         0.1860
    955  O3'        4.0090   27.2190    8.7920 O.3    60  G60        -0.3112
    956  C2'        4.5840   25.6180   10.5730 C.3    60  G60         0.2309
    957  O2'        4.5560   26.6850   11.5070 O.3    60  G60        -0.2156
    958  C1'        3.7830   24.4580   11.1560 C.3    60  G60         0.2408
    959  N1         7.3290   20.8710   10.9830 N.ar   60  G60        -0.1709
    960  C2         7.2480   22.0060   11.7560 C.ar   60  G60         0.2606
    961  N2         8.2480   22.2320   12.6170 N.pl3  60  G60        -0.0859
    962  N3         6.2520   22.8680   11.7020 N.ar   60  G60        -0.1918
    963  C4         5.3260   22.4960   10.7990 C.ar   60  G60         0.1723
    964  C5         5.3040   21.3920    9.9710 C.ar   60  G60         0.1748
    965  C6         6.3860   20.4750   10.0390 C.ar   60  G60         0.3023
    966  O6         6.5440   19.4330    9.3880 O.2    60  G60        -0.2633
    967  N7         4.1680   21.3880    9.1760 N.ar   60  G60        -0.2173
    968  C8         3.5390   22.4740    9.5400 C.ar   60  G60         0.1817
    969  N9         4.1820   23.1850   10.5270 N.ar   60  G60        -0.2693
    970  OP1       -0.3320   24.5620    6.2840 O.2    60  G60        -0.5172
    971  OP2        1.1400   22.5770    6.9510 O.co2  60  G60        -0.4373
    972  P          4.7790   27.2600    7.3840 P.3    61  A61         0.2141
    973  C5'        6.7810   27.9820    8.8990 C.3    61  A61         0.1812
    974  O5'        6.3130   27.2100    7.8030 O.3    61  A61        -0.3114
    975  C4'        8.0360   27.4050    9.5000 C.3    61  A61         0.1773
    976  O4'        7.7610   26.1250   10.1350 O.3    61  A61        -0.3307
    977  C3'        9.1520   27.0750    8.5250 C.3    61  A61         0.1860
    978  O3'        9.8640   28.2000    8.0640 O.3    61  A61        -0.3112
    979  C2'        9.9860   26.1000    9.3290 C.3    61  A61         0.2309
    980  O2'       10.6890   26.7900   10.3500 O.3    61  A61        -0.2156
    981  C1'        8.8810   25.2720    9.9790 C.3    61  A61         0.2408
    982  N1        10.2390   20.5970    8.4970 N.ar   61  A61        -0.2040
    983  C2        10.7480   21.4560    9.3840 C.ar   61  A61         0.2016
    984  N3        10.3220   22.6680    9.7140 N.ar   61  A61        -0.2048
    985  C4         9.2270   22.9870    9.0020 C.ar   61  A61         0.1692
    986  C5         8.5790   22.2150    8.0550 C.ar   61  A61         0.1518
    987  C6         9.1450   20.9490    7.8040 C.ar   61  A61         0.1919
    988  N6         8.6640   20.0670    6.9340 N.pl3  61  A61        -0.1054
    989  N7         7.4760   22.8930    7.5420 N.ar   61  A61        -0.2193
    990  C8         7.4910   24.0370    8.1860 C.ar   61  A61         0.1816
    991  N9         8.5130   24.1490    9.0970 N.ar   61  A61        -0.2693
    992  OP1        4.5090   28.5670    6.7280 O.3    61  A61        -0.4373
    993  OP2        4.4630   25.9930    6.6750 O.co2  61  A61        -0.5172
    994  P         10.4450   28.1780    6.5730 P.3    62  A62         0.2141
    995  C5'       12.5760   26.8530    5.8210 C.3    62  A62         0.1812
    996  O5'       11.9390   27.6830    6.7780 O.3    62  A62        -0.3114
    997  C4'       13.5260   25.9050    6.5000 C.3    62  A62         0.1773
    998  O4'       12.7690   24.9310    7.2690 O.3    62  A62        -0.3307
    999  C3'       14.3980   25.0670    5.5740 C.3    62  A62         0.1860
   1000  O3'       15.5640   25.7520    5.1440 O.3    62  A62        -0.3112
   1001  C2'       14.6800   23.8250    6.4090 C.3    62  A62         0.2309
   1002  O2'       15.7060   24.0570    7.3600 O.3    62  A62        -0.2156
   1003  C1'       13.3450   23.6540    7.1400 C.3    62  A62         0.2408
   1004  N1        12.4880   19.0120    5.2020 N.ar   62  A62        -0.2040
   1005  C2        13.4590   19.5040    5.9610 C.ar   62  A62         0.2016
   1006  N3        13.5970   20.7320    6.4250 N.ar   62  A62        -0.2048
   1007  C4        12.5990   21.5210    6.0260 C.ar   62  A62         0.1692
   1008  C5        11.5310   21.1710    5.2410 C.ar   62  A62         0.1518
   1009  C6        11.4980   19.8320    4.8170 C.ar   62  A62         0.1919
   1010  N6        10.5540   19.3130    4.0500 N.pl3  62  A62        -0.1054
   1011  N7        10.6920   22.2640    5.0440 N.ar   62  A62        -0.2193
   1012  C8        11.2750   23.2320    5.7120 C.ar   62  A62         0.1816
   1013  N9        12.4270   22.8370    6.3360 N.ar   62  A62        -0.2693
   1014  OP1       10.4700   29.5800    6.0940 O.3    62  A62        -0.4373
   1015  OP2        9.7240   27.1360    5.7880 O.co2  62  A62        -0.5172
   1016  P         15.9610   25.7910    3.5870 P.3    63  G63         0.2141
   1017  C5'       17.7980   24.2620    4.6310 C.3    63  G63         0.1812
   1018  O5'       17.1050   24.6960    3.4750 O.3    63  G63        -0.3114
   1019  C4'       18.2020   22.8210    4.5100 C.3    63  G63         0.1773
   1020  O4'       17.1390   21.9560    4.9770 O.3    63  G63        -0.3307
   1021  C3'       18.4690   22.3330    3.1030 C.3    63  G63         0.1860
   1022  O3'       19.7280   22.7450    2.6130 O.3    63  G63        -0.3112
   1023  C2'       18.3060   20.8250    3.2520 C.3    63  G63         0.2309
   1024  O2'       19.4330   20.2500    3.8930 O.3    63  G63        -0.2156
   1025  C1'       17.1330   20.7590    4.2210 C.3    63  G63         0.2408
   1026  N1        13.9360   17.5990    1.9030 N.ar   63  G63        -0.1709
   1027  C2        15.1420   17.3420    2.5030 C.ar   63  G63         0.2606
   1028  N2        15.5490   16.0670    2.4770 N.pl3  63  G63        -0.0859
   1029  N3        15.8900   18.2660    3.0800 N.ar   63  G63        -0.1918
   1030  C4        15.3200   19.4860    3.0080 C.ar   63  G63         0.1723
   1031  C5        14.1230   19.8500    2.4340 C.ar   63  G63         0.1748
   1032  C6        13.3320   18.8470    1.8150 C.ar   63  G63         0.3023
   1033  O6        12.2400   18.9570    1.2490 O.2    63  G63        -0.2633
   1034  N7        13.9050   21.2120    2.5780 N.ar   63  G63        -0.2173
   1035  C8        14.9540   21.6430    3.2190 C.ar   63  G63         0.1817
   1036  N9        15.8490   20.6460    3.5090 N.ar   63  G63        -0.2693
   1037  OP1       16.5250   27.1340    3.3190 O.3    63  G63        -0.4373
   1038  OP2       14.8650   25.2760    2.7340 O.co2  63  G63        -0.5172
   1039  P         19.9750   22.9370    1.0400 P.3    64  A64         0.2141
   1040  C5'       21.0890   20.6020    1.0630 C.3    64  A64         0.1812
   1041  O5'       20.0970   21.4480    0.5210 O.3    64  A64        -0.3114
   1042  C4'       20.9370   19.2070    0.5420 C.3    64  A64         0.1773
   1043  O4'       19.7380   18.6200    1.1010 O.3    64  A64        -0.3307
   1044  C3'       20.7430   19.1080   -0.9590 C.3    64  A64         0.1860
   1045  O3'       21.9660   19.1630   -1.6720 O.3    64  A64        -0.3112
   1046  C2'       19.9750   17.8040   -1.1070 C.3    64  A64         0.2309
   1047  O2'       20.8440   16.6930   -0.9840 O.3    64  A64        -0.2156
   1048  C1'       19.0700   17.8620    0.1220 C.3    64  A64         0.2408
   1049  N1        14.2700   17.3870   -1.6010 N.ar   64  A64        -0.2040
   1050  C2        15.2330   16.4880   -1.3860 C.ar   64  A64         0.2016
   1051  N3        16.4690   16.6860   -0.9300 N.ar   64  A64        -0.2048
   1052  C4        16.6770   17.9850   -0.6700 C.ar   64  A64         0.1692
   1053  C5        15.7840   19.0230   -0.8260 C.ar   64  A64         0.1518
   1054  C6        14.5260   18.6820   -1.3190 C.ar   64  A64         0.1919
   1055  N6        13.5900   19.5950   -1.5120 N.pl3  64  A64        -0.1054
   1056  N7        16.3360   20.2390   -0.4550 N.ar   64  A64        -0.2193
   1057  C8        17.5460   19.9030   -0.0910 C.ar   64  A64         0.1816
   1058  N9        17.8120   18.5590   -0.1890 N.ar   64  A64        -0.2693
   1059  OP1       21.3190   23.5350    0.9110 O.3    64  A64        -0.4373
   1060  OP2       18.8450   23.6080    0.3560 O.co2  64  A64        -0.5172
   1061  P         21.9800   19.5260   -3.2330 P.3    65  G65         0.2141
   1062  C5'       20.7630   18.2190   -5.1510 C.3    65  G65         0.1812
   1063  O5'       21.4270   18.2020   -3.9020 O.3    65  G65        -0.3114
   1064  C4'       19.9050   16.9960   -5.2520 C.3    65  G65         0.1773
   1065  O4'       18.9540   17.0020   -4.1560 O.3    65  G65        -0.3307
   1066  C3'       19.0440   16.8590   -6.4930 C.3    65  G65         0.1860
   1067  O3'       19.7540   16.3250   -7.5950 O.3    65  G65        -0.3112
   1068  C2'       17.9390   15.9360   -6.0110 C.3    65  G65         0.2309
   1069  O2'       18.4190   14.6050   -5.9480 O.3    65  G65        -0.2156
   1070  C1'       17.7380   16.4350   -4.5810 C.3    65  G65         0.2408
   1071  N1        12.8560   17.3990   -5.4110 N.ar   65  G65        -0.1709
   1072  C2        13.5790   16.2540   -5.6330 C.ar   65  G65         0.2606
   1073  N2        12.9050   15.2210   -6.1530 N.pl3  65  G65        -0.0859
   1074  N3        14.8640   16.1320   -5.3670 N.ar   65  G65        -0.1918
   1075  C4        15.3710   17.2690   -4.8560 C.ar   65  G65         0.1723
   1076  C5        14.7420   18.4660   -4.5890 C.ar   65  G65         0.1748
   1077  C6        13.3600   18.5820   -4.8830 C.ar   65  G65         0.3023
   1078  O6        12.6140   19.5560   -4.7270 O.2    65  G65        -0.2633
   1079  N7        15.6340   19.3920   -4.0650 N.ar   65  G65        -0.2173
   1080  C8        16.7720   18.7450   -4.0210 C.ar   65  G65         0.1817
   1081  N9        16.6770   17.4560   -4.4910 N.ar   65  G65        -0.2693
   1082  OP1       23.3920   19.6850   -3.6570 O.2    65  G65        -0.5172
   1083  OP2       21.0300   20.6150   -3.5310 O.co2  65  G65        -0.4373
   1084  P         19.6730   17.0230   -9.0390 P.3    66  U66         0.2141
   1085  C5'       17.8910   15.2000   -9.6530 C.3    66  U66         0.1812
   1086  O5'       18.2610   16.5670   -9.6170 O.3    66  U66        -0.3114
   1087  C4'       16.4040   15.0580   -9.8350 C.3    66  U66         0.1773
   1088  O4'       15.7250   15.4910   -8.6270 O.3    66  U66        -0.3307
   1089  C3'       15.7920   15.9130  -10.9340 C.3    66  U66         0.1860
   1090  O3'       15.9160   15.3260  -12.2150 O.3    66  U66        -0.3112
   1091  C2'       14.3530   16.0650  -10.4710 C.3    66  U66         0.2309
   1092  O2'       13.6110   14.8900  -10.7600 O.3    66  U66        -0.2156
   1093  C1'       14.5310   16.1560   -8.9590 C.3    66  U66         0.2420
   1094  N1        14.6430   17.5550   -8.5050 N.ar   66  U66        -0.2534
   1095  C2        13.4670   18.2640   -8.4530 C.ar   66  U66         0.3546
   1096  O2        12.3790   17.7950   -8.7540 O.2    66  U66        -0.2443
   1097  N3        13.6080   19.5560   -8.0310 N.ar   66  U66        -0.1530
   1098  C4        14.7590   20.2060   -7.6640 C.ar   66  U66         0.2846
   1099  O4        14.6650   21.3840   -7.3110 O.2    66  U66        -0.2650
   1100  C5        15.9460   19.4030   -7.7440 C.ar   66  U66         0.0814
   1101  C6        15.8430   18.1320   -8.1520 C.ar   66  U66         0.0870
   1102  OP1       20.7320   16.4090   -9.8770 O.2    66  U66        -0.5172
   1103  OP2       19.6360   18.5000   -8.8540 O.co2  66  U66        -0.4373
   1104  P         15.9680   16.2450  -13.5300 P.3    67  A67         0.2141
   1105  C5'       13.8030   15.1500  -14.4590 C.3    67  A67         0.1812
   1106  O5'       14.4530   16.3120  -13.9860 O.3    67  A67        -0.3114
   1107  C4'       12.3970   15.4650  -14.8800 C.3    67  A67         0.1773
   1108  O4'       11.6270   15.8740  -13.7180 O.3    67  A67        -0.3307
   1109  C3'       12.2550   16.6310  -15.8410 C.3    67  A67         0.1860
   1110  O3'       12.5260   16.2900  -17.1870 O.3    67  A67        -0.3112
   1111  C2'       10.8270   17.0840  -15.5860 C.3    67  A67         0.2309
   1112  O2'        9.9000   16.1830  -16.1780 O.3    67  A67        -0.2156
   1113  C1'       10.7500   16.9230  -14.0720 C.3    67  A67         0.2408
   1114  N1         9.5440   21.7290  -12.6540 N.ar   67  A67        -0.2040
   1115  C2         8.8560   20.7840  -13.3000 C.ar   67  A67         0.2016
   1116  N3         9.2390   19.5540  -13.6350 N.ar   67  A67        -0.2048
   1117  C4        10.4940   19.3060  -13.2290 C.ar   67  A67         0.1692
   1118  C5        11.3250   20.1730  -12.5530 C.ar   67  A67         0.1518
   1119  C6        10.8060   21.4460  -12.2580 C.ar   67  A67         0.1919
   1120  N6        11.4950   22.3860  -11.6150 N.pl3  67  A67        -0.1054
   1121  N7        12.5520   19.5730  -12.3040 N.ar   67  A67        -0.2193
   1122  C8        12.4320   18.3770  -12.8230 C.ar   67  A67         0.1816
   1123  N9        11.2090   18.1480  -13.3920 N.ar   67  A67        -0.2693
   1124  OP1       16.6980   15.4940  -14.5880 O.2    67  A67        -0.5172
   1125  OP2       16.4020   17.6190  -13.1800 O.co2  67  A67        -0.4373
   1126  P         13.3960   17.2800  -18.1040 P.3    68  G68         0.2141
   1127  C5'       11.4280   18.9930  -18.4650 C.3    68  G68         0.1812
   1128  O5'       12.7020   18.7040  -17.9000 O.3    68  G68        -0.3114
   1129  C4'       10.8330   20.2760  -17.9240 C.3    68  G68         0.1773
   1130  O4'       10.8470   20.2700  -16.4680 O.3    68  G68        -0.3307
   1131  C3'       11.5550   21.5630  -18.2790 C.3    68  G68         0.1860
   1132  O3'       11.3300   22.0230  -19.5980 O.3    68  G68        -0.3112
   1133  C2'       11.0850   22.5130  -17.1870 C.3    68  G68         0.2309
   1134  O2'        9.7560   22.9490  -17.4170 O.3    68  G68        -0.2156
   1135  C1'       11.0850   21.5800  -15.9840 C.3    68  G68         0.2408
   1136  N1        14.4730   24.2950  -13.2860 N.ar   68  G68        -0.1709
   1137  C2        13.2230   24.6600  -13.7330 C.ar   68  G68         0.2606
   1138  N2        12.8110   25.9050  -13.4450 N.pl3  68  G68        -0.0859
   1139  N3        12.4330   23.8680  -14.4320 N.ar   68  G68        -0.1918
   1140  C4        12.9800   22.6550  -14.6490 C.ar   68  G68         0.1723
   1141  C5        14.2030   22.1930  -14.2350 C.ar   68  G68         0.1748
   1142  C6        15.0520   23.0480  -13.4940 C.ar   68  G68         0.3023
   1143  O6        16.1750   22.7940  -13.0560 O.2    68  G68        -0.2633
   1144  N7        14.3930   20.8850  -14.6440 N.ar   68  G68        -0.2173
   1145  C8        13.3100   20.5760  -15.2950 C.ar   68  G68         0.1817
   1146  N9        12.4050   21.6000  -15.3270 N.ar   68  G68        -0.2693
   1147  OP1       13.2170   16.8720  -19.5230 O.2    68  G68        -0.5172
   1148  OP2       14.7670   17.3390  -17.5320 O.co2  68  G68        -0.4373
   1149  P         12.5480   22.7310  -20.3780 P.3    69  G69         0.2141
   1150  C5'       11.9970   25.0650  -19.5160 C.3    69  G69         0.1812
   1151  O5'       12.8810   23.9850  -19.4780 O.3    69  G69        -0.3114
   1152  C4'       12.3530   26.1010  -18.5120 C.3    69  G69         0.1773
   1153  O4'       12.7040   25.5150  -17.2370 O.3    69  G69        -0.3307
   1154  C3'       13.5470   26.9500  -18.8230 C.3    69  G69         0.1860
   1155  O3'       13.3130   27.8540  -19.8830 O.3    69  G69        -0.3112
   1156  C2'       13.7670   27.6040  -17.4790 C.3    69  G69         0.2309
   1157  O2'       12.6810   28.4750  -17.2290 O.3    69  G69        -0.2156
   1158  C1'       13.5670   26.4030  -16.5610 C.3    69  G69         0.2408
   1159  N1        18.0580   26.8040  -14.2900 N.ar   69  G69        -0.1709
   1160  C2        17.0490   27.7180  -14.4110 C.ar   69  G69         0.2606
   1161  N2        17.2410   28.9160  -13.8600 N.pl3  69  G69        -0.0859
   1162  N3        15.9250   27.4790  -15.0410 N.ar   69  G69        -0.1918
   1163  C4        15.8740   26.2360  -15.5440 C.ar   69  G69         0.1723
   1164  C5        16.8180   25.2450  -15.4770 C.ar   69  G69         0.1748
   1165  C6        18.0440   25.5090  -14.8000 C.ar   69  G69         0.3023
   1166  O6        19.0200   24.7600  -14.6270 O.2    69  G69        -0.2633
   1167  N7        16.3730   24.1140  -16.1280 N.ar   69  G69        -0.2173
   1168  C8        15.1900   24.4380  -16.5620 C.ar   69  G69         0.1817
   1169  N9        14.8340   25.7140  -16.2540 N.ar   69  G69        -0.2693
   1170  OP1       12.0290   23.3240  -21.6340 O.2    69  G69        -0.5172
   1171  OP2       13.7610   21.8660  -20.3620 O.co2  69  G69        -0.4373
   1172  P         14.5570   28.4870  -20.6590 P.3    70  G70         0.2141
   1173  C5'       14.5750   30.7290  -19.3680 C.3    70  G70         0.1812
   1174  O5'       15.1870   29.4750  -19.5970 O.3    70  G70        -0.3114
   1175  C4'       15.4280   31.5870  -18.4820 C.3    70  G70         0.1773
   1176  O4'       15.7160   30.8770  -17.2550 O.3    70  G70        -0.3307
   1177  C3'       16.8010   31.9330  -19.0120 C.3    70  G70         0.1860
   1178  O3'       16.7860   32.9780  -19.9490 O.3    70  G70        -0.3112
   1179  C2'       17.5300   32.2960  -17.7460 C.3    70  G70         0.2309
   1180  O2'       17.0750   33.5610  -17.2970 O.3    70  G70        -0.2156
   1181  C1'       16.9950   31.2310  -16.8020 C.3    70  G70         0.2408
   1182  N1        21.2750   29.3460  -15.1230 N.ar   70  G70        -0.1709
   1183  C2        20.7200   30.5890  -14.9460 C.ar   70  G70         0.2606
   1184  N2        21.3770   31.4760  -14.1910 N.pl3  70  G70        -0.0859
   1185  N3        19.5750   30.9420  -15.4680 N.ar   70  G70        -0.1918
   1186  C4        19.0280   29.9350  -16.1750 C.ar   70  G70         0.1723
   1187  C5        19.4890   28.6650  -16.4220 C.ar   70  G70         0.1748
   1188  C6        20.7400   28.2990  -15.8570 C.ar   70  G70         0.3023
   1189  O6        21.3490   27.2290  -15.9410 O.2    70  G70        -0.2633
   1190  N7        18.5920   27.9650  -17.2220 N.ar   70  G70        -0.2173
   1191  C8        17.6260   28.8190  -17.4290 C.ar   70  G70         0.1817
   1192  N9        17.8360   30.0240  -16.8160 N.ar   70  G70        -0.2693
   1193  OP1       14.1150   29.3480  -21.7850 O.2    70  G70        -0.5172
   1194  OP2       15.4900   27.3720  -20.8830 O.co2  70  G70        -0.4373
   1195  P         17.9140   33.0040  -21.0700 P.3    71  U71         0.2141
   1196  C5'       19.0580   35.0160  -19.8500 C.3    71  U71         0.1812
   1197  O5'       19.1440   33.6820  -20.3280 O.3    71  U71        -0.3114
   1198  C4'       20.2340   35.3470  -18.9690 C.3    71  U71         0.1773
   1199  O4'       20.3030   34.3710  -17.9060 O.3    71  U71        -0.3307
   1200  C3'       21.5990   35.2810  -19.6370 C.3    71  U71         0.1860
   1201  O3'       21.9400   36.4940  -20.2820 O.3    71  U71        -0.3112
   1202  C2'       22.5300   34.9450  -18.4840 C.3    71  U71         0.2309
   1203  O2'       22.8420   36.1190  -17.7460 O.3    71  U71        -0.2156
   1204  C1'       21.6410   34.0480  -17.6290 C.3    71  U71         0.2420
   1205  N1        21.8190   32.6070  -17.9110 N.ar   71  U71        -0.2534
   1206  C2        22.8620   31.9900  -17.2740 C.ar   71  U71         0.3546
   1207  O2        23.6090   32.6070  -16.5480 O.2    71  U71        -0.2443
   1208  N3        22.9860   30.6490  -17.5180 N.ar   71  U71        -0.1530
   1209  C4        22.1870   29.8870  -18.3260 C.ar   71  U71         0.2846
   1210  O4        22.4340   28.6990  -18.4440 O.2    71  U71        -0.2650
   1211  C5        21.1250   30.5960  -18.9530 C.ar   71  U71         0.0814
   1212  C6        20.9670   31.9010  -18.7220 C.ar   71  U71         0.0870
   1213  OP1       17.5540   33.9550  -22.1630 O.2    71  U71        -0.5172
   1214  OP2       18.1910   31.5600  -21.3060 O.co2  71  U71        -0.4373
   1215  P         22.7430   36.4740  -21.6740 P.3    72  U72         0.2141
   1216  C5'       25.0990   36.8030  -20.5200 C.3    72  U72         0.1812
   1217  O5'       24.2070   35.9870  -21.2640 O.3    72  U72        -0.3114
   1218  C4'       26.2320   35.9810  -19.9620 C.3    72  U72         0.1773
   1219  O4'       25.6810   34.8790  -19.1990 O.3    72  U72        -0.3307
   1220  C3'       27.1410   35.3080  -20.9830 C.3    72  U72         0.1860
   1221  O3'       28.1530   36.1740  -21.4820 O.3    72  U72        -0.3112
   1222  C2'       27.6940   34.1170  -20.2080 C.3    72  U72         0.2309
   1223  O2'       28.7590   34.5190  -19.3620 O.3    72  U72        -0.2156
   1224  C1'       26.5050   33.7430  -19.3180 C.3    72  U72         0.2420
   1225  N1        25.7130   32.6170  -19.8630 N.ar   72  U72        -0.2534
   1226  C2        26.1670   31.3370  -19.6320 C.ar   72  U72         0.3546
   1227  O2        27.1700   31.0900  -19.0200 O.2    72  U72        -0.2443
   1228  N3        25.4240   30.3220  -20.1500 N.ar   72  U72        -0.1530
   1229  C4        24.2640   30.4530  -20.8670 C.ar   72  U72         0.2846
   1230  O4        23.7000   29.4380  -21.2630 O.2    72  U72        -0.2650
   1231  C5        23.8440   31.8040  -21.0710 C.ar   72  U72         0.0814
   1232  C6        24.5590   32.8170  -20.5760 C.ar   72  U72         0.0870
   1233  OP1       22.7900   37.8720  -22.1670 O.3    72  U72        -0.4373
   1234  OP2       22.2280   35.4070  -22.5670 O.co2  72  U72        -0.5172
   1235  P         28.1320   36.6920  -23.0080 P.3    73  A73         0.2141
   1236  C5'       25.9180   37.2590  -24.2680 C.3    73  A73         0.1812
   1237  O5'       26.7440   37.4530  -23.1330 O.3    73  A73        -0.3114
   1238  C4'       25.7900   38.5080  -25.0970 C.3    73  A73         0.1773
   1239  O4'       25.0280   39.5090  -24.3740 O.3    73  A73        -0.3307
   1240  C3'       27.0960   39.1860  -25.5040 C.3    73  A73         0.1860
   1241  O3'       26.9230   39.7280  -26.7960 O.3    73  A73        -0.3112
   1242  C2'       27.1870   40.3520  -24.5340 C.3    73  A73         0.2309
   1243  O2'       27.9580   41.4330  -25.0090 O.3    73  A73        -0.2156
   1244  C1'       25.7230   40.7310  -24.4160 C.3    73  A73         0.2408
   1245  N1        24.0900   45.3030  -22.9930 N.ar   73  A73        -0.2040
   1246  C2        24.3540   44.7530  -24.1810 C.ar   73  A73         0.2016
   1247  N3        24.7900   43.5300  -24.4570 N.ar   73  A73        -0.2048
   1248  C4        24.9460   42.8210  -23.3320 C.ar   73  A73         0.1692
   1249  C5        24.7220   43.2340  -22.0370 C.ar   73  A73         0.1518
   1250  C6        24.2670   44.5560  -21.8820 C.ar   73  A73         0.1919
   1251  N6        24.0020   45.1190  -20.7040 N.pl3  73  A73        -0.1054
   1252  N7        25.0090   42.2050  -21.1450 N.ar   73  A73        -0.2193
   1253  C8        25.3890   41.2070  -21.9120 C.ar   73  A73         0.1816
   1254  N9        25.3780   41.5280  -23.2450 N.ar   73  A73        -0.2693
   1255  OP1       28.0910   35.5280  -23.9180 O.2    73  A73        -0.5172
   1256  OP2       29.1670   37.7290  -23.2020 O.co2  73  A73        -0.4373
   1257  P         27.7220   39.1120  -28.0270 P.3    74  C74         0.2141
   1258  C5'       26.0680   40.7410  -29.2130 C.3    74  C74         0.1812
   1259  O5'       26.8430   39.5560  -29.2720 O.3    74  C74        -0.3114
   1260  C4'       25.0130   40.7310  -30.2800 C.3    74  C74         0.1773
   1261  O4'       25.6530   40.9090  -31.5670 O.3    74  C74        -0.3307
   1262  C3'       24.2480   39.4240  -30.4140 C.3    74  C74         0.1860
   1263  O3'       23.1670   39.3310  -29.4980 O.3    74  C74        -0.3112
   1264  C2'       23.8340   39.4170  -31.8820 C.3    74  C74         0.2309
   1265  O2'       22.6820   40.2210  -32.0950 O.3    74  C74        -0.2156
   1266  C1'       25.0290   40.1060  -32.5400 C.3    74  C74         0.2420
   1267  N1        26.0270   39.1420  -33.0460 N.ar   74  C74        -0.2535
   1268  C2        25.9710   38.7260  -34.3790 C.ar   74  C74         0.3532
   1269  O2        25.0870   39.1650  -35.1270 O.2    74  C74        -0.2443
   1270  N3        26.8980   37.8490  -34.8220 N.ar   74  C74        -0.1739
   1271  C4        27.8480   37.3980  -33.9940 C.ar   74  C74         0.1759
   1272  N4        28.7410   36.5360  -34.4710 N.pl3  74  C74        -0.1070
   1273  C5        27.9320   37.8020  -32.6350 C.ar   74  C74         0.0566
   1274  C6        27.0090   38.6700  -32.2150 C.ar   74  C74         0.0850
   1275  OP1       27.6840   37.6350  -27.8920 O.3    74  C74        -0.4373
   1276  OP2       29.0170   39.8270  -28.1170 O.co2  74  C74        -0.5172
   1277  P         22.5770   37.8980  -29.0590 P.3    75  U75         0.2141
   1278  C5'       20.7780   38.0030  -30.9630 C.3    75  U75         0.1812
   1279  O5'       21.8890   37.3430  -30.3820 O.3    75  U75        -0.3114
   1280  C4'       20.2670   37.2250  -32.1370 C.3    75  U75         0.1773
   1281  O4'       21.1860   37.3620  -33.2480 O.3    75  U75        -0.3307
   1282  C3'       20.1900   35.7300  -31.9240 C.3    75  U75         0.1860
   1283  O3'       19.0740   35.3150  -31.1760 O.3    75  U75        -0.3112
   1284  C2'       20.2240   35.1920  -33.3440 C.3    75  U75         0.2309
   1285  O2'       18.9660   35.3530  -33.9700 O.3    75  U75        -0.2156
   1286  C1'       21.2070   36.1600  -33.9980 C.3    75  U75         0.2420
   1287  N1        22.5790   35.6060  -34.0050 N.ar   75  U75        -0.2534
   1288  C2        22.8750   34.6590  -34.9760 C.ar   75  U75         0.3546
   1289  O2        22.0830   34.2710  -35.8160 O.2    75  U75        -0.2443
   1290  N3        24.1560   34.1750  -34.9380 N.ar   75  U75        -0.1530
   1291  C4        25.1440   34.5270  -34.0360 C.ar   75  U75         0.2846
   1292  O4        26.2420   33.9970  -34.1290 O.2    75  U75        -0.2650
   1293  C5        24.7620   35.5030  -33.0600 C.ar   75  U75         0.0814
   1294  C6        23.5210   35.9970  -33.0760 C.ar   75  U75         0.0870
   1295  OP1       21.4880   38.1270  -28.0680 O.3    75  U75        -0.4373
   1296  OP2       23.7040   36.9900  -28.7250 O.co2  75  U75        -0.5172
   1297  P         19.2030   34.0040  -30.2720 P.3    76  C76         0.2141
   1298  C5'       17.9290   32.7230  -32.1520 C.3    76  C76         0.1812
   1299  O5'       19.0600   32.8150  -31.3130 O.3    76  C76        -0.3114
   1300  C4'       18.0710   31.5920  -33.1270 C.3    76  C76         0.1773
   1301  O4'       19.0990   31.9080  -34.0960 O.3    76  C76        -0.3307
   1302  C3'       18.5210   30.2730  -32.5370 C.3    76  C76         0.1860
   1303  O3'       17.4770   29.5450  -31.9210 O.3    76  C76        -0.3112
   1304  C2'       19.1360   29.5660  -33.7340 C.3    76  C76         0.2309
   1305  O2'       18.1350   29.0130  -34.5700 O.3    76  C76        -0.2156
   1306  C1'       19.7850   30.7330  -34.4710 C.3    76  C76         0.2420
   1307  N1        21.2270   30.8800  -34.1350 N.ar   76  C76        -0.2535
   1308  C2        22.1730   30.0230  -34.7070 C.ar   76  C76         0.3532
   1309  O2        21.8240   29.1220  -35.4730 O.2    76  C76        -0.2443
   1310  N3        23.4720   30.1790  -34.4060 N.ar   76  C76        -0.1739
   1311  C4        23.8530   31.1370  -33.5780 C.ar   76  C76         0.1759
   1312  N4        25.1570   31.2420  -33.3190 N.pl3  76  C76        -0.1070
   1313  C5        22.9260   32.0310  -32.9800 C.ar   76  C76         0.0566
   1314  C6        21.6470   31.8660  -33.2850 C.ar   76  C76         0.0850
   1315  OP1       18.0770   33.9340  -29.3130 O.3    76  C76        -0.4373
   1316  OP2       20.5920   33.9860  -29.7410 O.co2  76  C76        -0.5172
   1317  P         17.8240   28.5680  -30.7060 P.3    77  C77         0.2141
   1318  C5'       17.8490   26.5150  -32.3510 C.3    77  C77         0.1812
   1319  O5'       18.5190   27.3200  -31.4030 O.3    77  C77        -0.3114
   1320  C4'       18.8040   25.5560  -33.0220 C.3    77  C77         0.1773
   1321  O4'       19.7780   26.2860  -33.8160 O.3    77  C77        -0.3307
   1322  C3'       19.6640   24.7100  -32.1000 C.3    77  C77         0.1860
   1323  O3'       18.9900   23.6040  -31.5450 O.3    77  C77        -0.3112
   1324  C2'       20.8290   24.3220  -32.9950 C.3    77  C77         0.2309
   1325  O2'       20.4640   23.2770  -33.8810 O.3    77  C77        -0.2156
   1326  C1'       21.0190   25.6020  -33.8020 C.3    77  C77         0.2420
   1327  N1        22.0380   26.4700  -33.1770 N.ar   77  C77        -0.2535
   1328  C2        23.4120   26.1110  -33.2160 C.ar   77  C77         0.3532
   1329  O2        23.7840   25.0680  -33.7870 O.2    77  C77        -0.2443
   1330  N3        24.3230   26.9210  -32.6340 N.ar   77  C77        -0.1739
   1331  C4        23.9090   28.0230  -32.0290 C.ar   77  C77         0.1759
   1332  N4        24.8200   28.7980  -31.4670 N.pl3  77  C77        -0.1070
   1333  C5        22.5310   28.4050  -31.9640 C.ar   77  C77         0.0566
   1334  C6        21.6320   27.6070  -32.5440 C.ar   77  C77         0.0850
   1335  OP1       16.6350   28.0560  -29.9970 O.2    77  C77        -0.5172
   1336  OP2       18.8200   29.3620  -29.9400 O.co2  77  C77        -0.4373
   1337  P         19.4740   23.0430  -30.1280 P.3    78  U78         0.2141
   1338  C5'       21.0380   21.1940  -31.0710 C.3    78  U78         0.1812
   1339  O5'       20.9150   22.4520  -30.4350 O.3    78  U78        -0.3114
   1340  C4'       22.4770   20.7990  -31.2770 C.3    78  U78         0.1773
   1341  O4'       23.2110   21.8720  -31.9260 O.3    78  U78        -0.3307
   1342  C3'       23.3080   20.5160  -30.0400 C.3    78  U78         0.1860
   1343  O3'       23.0270   19.2710  -29.4240 O.3    78  U78        -0.3112
   1344  C2'       24.7100   20.6160  -30.6030 C.3    78  U78         0.2309
   1345  O2'       24.9480   19.5030  -31.4450 O.3    78  U78        -0.2156
   1346  C1'       24.5610   21.8340  -31.5110 C.3    78  U78         0.2420
   1347  N1        24.8820   23.0990  -30.8120 N.ar   78  U78        -0.2534
   1348  C2        26.2060   23.4690  -30.6640 C.ar   78  U78         0.3546
   1349  O2        27.1390   22.8110  -31.0710 O.2    78  U78        -0.2443
   1350  N3        26.4130   24.6550  -30.0150 N.ar   78  U78        -0.1530
   1351  C4        25.4550   25.4970  -29.4970 C.ar   78  U78         0.2846
   1352  O4        25.7930   26.5350  -28.9300 O.2    78  U78        -0.2650
   1353  C5        24.1160   25.0490  -29.6880 C.ar   78  U78         0.0814
   1354  C6        23.8830   23.8980  -30.3220 C.ar   78  U78         0.0870
   1355  OP1       18.6310   21.8820  -29.7640 O.2    78  U78        -0.5172
   1356  OP2       19.5830   24.2120  -29.2140 O.co2  78  U78        -0.4373
   1357  P         22.6410   19.2280  -27.8630 P.3    79  U79         0.2141
   1358  C5'       24.9950   18.3540  -27.2680 C.3    79  U79         0.1812
   1359  O5'       24.0420   19.3860  -27.1400 O.3    79  U79        -0.3114
   1360  C4'       26.3930   18.8190  -26.9700 C.3    79  U79         0.1773
   1361  O4'       26.7150   20.0160  -27.7210 O.3    79  U79        -0.3307
   1362  C3'       26.7010   19.2210  -25.5430 C.3    79  U79         0.1860
   1363  O3'       26.7960   18.1210  -24.6530 O.3    79  U79        -0.3112
   1364  C2'       28.0020   19.9930  -25.7210 C.3    79  U79         0.2309
   1365  O2'       29.0860   19.1000  -25.9440 O.3    79  U79        -0.2156
   1366  C1'       27.7270   20.7300  -27.0360 C.3    79  U79         0.2420
   1367  N1        27.3060   22.1320  -26.8170 N.ar   79  U79        -0.2534
   1368  C2        28.3450   23.0200  -26.6180 C.ar   79  U79         0.3546
   1369  O2        29.5120   22.6770  -26.6200 O.2    79  U79        -0.2443
   1370  N3        27.9830   24.3230  -26.4160 N.ar   79  U79        -0.1530
   1371  C4        26.7030   24.8210  -26.3890 C.ar   79  U79         0.2846
   1372  O4        26.5520   26.0270  -26.1940 O.2    79  U79        -0.2650
   1373  C5        25.6800   23.8400  -26.6070 C.ar   79  U79         0.0814
   1374  C6        26.0020   22.5560  -26.8090 C.ar   79  U79         0.0870
   1375  OP1       22.1570   17.8610  -27.5530 O.2    79  U79        -0.5172
   1376  OP2       21.8070   20.4060  -27.5090 O.co2  79  U79        -0.4373
   1377  P         26.3790   18.2970  -23.1070 P.3    80  C80         0.2141
   1378  C5'       28.9730   18.3250  -22.7350 C.3    80  C80         0.1812
   1379  O5'       27.6980   18.8510  -22.4150 O.3    80  C80        -0.3114
   1380  C4'       30.0570   19.2260  -22.2320 C.3    80  C80         0.1773
   1381  O4'       30.1250   20.4180  -23.0450 O.3    80  C80        -0.3307
   1382  C3'       29.8420   19.7570  -20.8340 C.3    80  C80         0.1860
   1383  O3'       30.1720   18.8000  -19.8480 O.3    80  C80        -0.3112
   1384  C2'       30.7100   21.0090  -20.8130 C.3    80  C80         0.2309
   1385  O2'       32.0670   20.6720  -20.5710 O.3    80  C80        -0.2156
   1386  C1'       30.5760   21.5020  -22.2600 C.3    80  C80         0.2420
   1387  N1        29.6380   22.6410  -22.4030 N.ar   80  C80        -0.2535
   1388  C2        30.1460   23.9450  -22.3060 C.ar   80  C80         0.3532
   1389  O2        31.3510   24.1340  -22.1040 O.2    80  C80        -0.2443
   1390  N3        29.3160   25.0000  -22.4300 N.ar   80  C80        -0.1739
   1391  C4        28.0180   24.8010  -22.6420 C.ar   80  C80         0.1759
   1392  N4        27.2550   25.8870  -22.7590 N.pl3  80  C80        -0.1070
   1393  C5        27.4590   23.4880  -22.7520 C.ar   80  C80         0.0566
   1394  C6        28.2990   22.4480  -22.6280 C.ar   80  C80         0.0850
   1395  OP1       26.1010   16.9330  -22.5910 O.3    80  C80        -0.4373
   1396  OP2       25.3970   19.4000  -22.9250 O.co2  80  C80        -0.5172
   1397  P         29.5950   18.9480  -18.3610 P.3    81  G81         0.2141
   1398  C5'       30.0140   21.2030  -17.1420 C.3    81  G81         0.1812
   1399  O5'       30.5540   20.0400  -17.7280 O.3    81  G81        -0.3114
   1400  C4'       31.0350   22.3010  -17.0360 C.3    81  G81         0.1773
   1401  O4'       31.0780   23.0180  -18.2940 O.3    81  G81        -0.3307
   1402  C3'       30.6760   23.3490  -16.0000 C.3    81  G81         0.1860
   1403  O3'       31.1540   23.0320  -14.7150 O.3    81  G81        -0.3112
   1404  C2'       31.2230   24.6430  -16.5770 C.3    81  G81         0.2309
   1405  O2'       32.5990   24.7810  -16.3080 O.3    81  G81        -0.2156
   1406  C1'       31.0330   24.4090  -18.0690 C.3    81  G81         0.2408
   1407  N1        28.0990   28.4890  -18.9740 N.ar   81  G81        -0.1709
   1408  C2        29.3650   28.4230  -18.4240 C.ar   81  G81         0.2606
   1409  N2        29.9470   29.5800  -18.0750 N.pl3  81  G81        -0.0859
   1410  N3        30.0140   27.2940  -18.2390 N.ar   81  G81        -0.1918
   1411  C4        29.3080   26.2180  -18.6350 C.ar   81  G81         0.1723
   1412  C5        28.0470   26.1760  -19.1940 C.ar   81  G81         0.1748
   1413  C6        27.3390   27.3960  -19.3940 C.ar   81  G81         0.3023
   1414  O6        26.2060   27.5770  -19.8600 O.2    81  G81        -0.2633
   1415  N7        27.6850   24.8630  -19.4640 N.ar   81  G81        -0.2173
   1416  C8        28.7120   24.1520  -19.0720 C.ar   81  G81         0.1817
   1417  N9        29.7280   24.9120  -18.5610 N.ar   81  G81        -0.2693
   1418  OP1       29.7840   17.6420  -17.6670 O.3    81  G81        -0.4373
   1419  OP2       28.2500   19.5770  -18.4110 O.co2  81  G81        -0.5172
   1420  P         30.1200   23.0270  -13.4970 P.3    82  A82         0.2141
   1421  C5'       31.3820   25.2170  -12.9050 C.3    82  A82         0.1812
   1422  O5'       30.1540   24.5340  -13.0070 O.3    82  A82        -0.3114
   1423  C4'       31.1660   26.6950  -12.9800 C.3    82  A82         0.1773
   1424  O4'       30.8360   27.0650  -14.3380 O.3    82  A82        -0.3307
   1425  C3'       29.9960   27.1960  -12.1730 C.3    82  A82         0.1860
   1426  O3'       30.3050   27.3540  -10.8150 O.3    82  A82        -0.3112
   1427  C2'       29.6250   28.4820  -12.8870 C.3    82  A82         0.2309
   1428  O2'       30.5350   29.5230  -12.5800 O.3    82  A82        -0.2156
   1429  C1'       29.8410   28.0680  -14.3350 C.3    82  A82         0.2408
   1430  N1        25.2650   28.9530  -16.6440 N.ar   82  A82        -0.2040
   1431  C2        26.2310   29.7780  -16.2090 C.ar   82  A82         0.2016
   1432  N3        27.3930   29.4970  -15.6100 N.ar   82  A82        -0.2048
   1433  C4        27.5460   28.1670  -15.4670 C.ar   82  A82         0.1692
   1434  C5        26.6450   27.1890  -15.8640 C.ar   82  A82         0.1518
   1435  C6        25.4450   27.6210  -16.4810 C.ar   82  A82         0.1919
   1436  N6        24.4950   26.7840  -16.9050 N.pl3  82  A82        -0.1054
   1437  N7        27.1340   25.9220  -15.5570 N.ar   82  A82        -0.2193
   1438  C8        28.2900   26.1620  -15.0020 C.ar   82  A82         0.1816
   1439  N9        28.6100   27.4930  -14.9190 N.ar   82  A82        -0.2693
   1440  OP1       30.6140   22.2100  -12.3600 O.3    82  A82        -0.4373
   1441  OP2       28.7890   22.7150  -14.0840 O.co2  82  A82        -0.5172
   1442  P         29.2440   26.8860   -9.7260 P.3    83  C83         0.2141
   1443  C5'       28.6330   29.3950   -9.3820 C.3    83  C83         0.1812
   1444  O5'       28.1960   28.0900   -9.7410 O.3    83  C83        -0.3114
   1445  C4'       27.7400   30.4920   -9.9130 C.3    83  C83         0.1773
   1446  O4'       27.5890   30.3730  -11.3500 O.3    83  C83        -0.3307
   1447  C3'       26.3150   30.5110   -9.3940 C.3    83  C83         0.1860
   1448  O3'       26.2050   31.0610   -8.0970 O.3    83  C83        -0.3112
   1449  C2'       25.5890   31.3110  -10.4700 C.3    83  C83         0.2309
   1450  O2'       25.8220   32.7040  -10.3090 O.3    83  C83        -0.2156
   1451  C1'       26.3070   30.8290  -11.7340 C.3    83  C83         0.2420
   1452  N1        25.5920   29.7000  -12.3650 N.ar   83  C83        -0.2535
   1453  C2        24.4650   29.9410  -13.1670 C.ar   83  C83         0.3532
   1454  O2        24.0860   31.1040  -13.3660 O.2    83  C83        -0.2443
   1455  N3        23.8230   28.8920  -13.7190 N.ar   83  C83        -0.1739
   1456  C4        24.2500   27.6560  -13.4870 C.ar   83  C83         0.1759
   1457  N4        23.5930   26.6500  -14.0500 N.pl3  83  C83        -0.1070
   1458  C5        25.3860   27.3840  -12.6720 C.ar   83  C83         0.0566
   1459  C6        26.0200   28.4260  -12.1320 C.ar   83  C83         0.0850
   1460  OP1       29.8670   26.8640   -8.3720 O.3    83  C83        -0.4373
   1461  OP2       28.7090   25.6200  -10.2760 O.co2  83  C83        -0.5172
   1462  P         25.5410   30.1850   -6.9300 P.3    84  C84         0.2141
   1463  C5'       23.0360   29.7170   -7.5640 C.3    84  C84         0.1812
   1464  O5'       24.0020   30.5830   -6.9930 O.3    84  C84        -0.3114
   1465  C4'       22.0930   30.4890   -8.4450 C.3    84  C84         0.1773
   1466  O4'       22.4400   30.2790   -9.8400 O.3    84  C84        -0.3307
   1467  C3'       20.6220   30.1070   -8.3600 C.3    84  C84         0.1860
   1468  O3'       19.9700   30.7440   -7.2790 O.3    84  C84        -0.3112
   1469  C2'       20.0940   30.5520   -9.7070 C.3    84  C84         0.2309
   1470  O2'       19.9200   31.9600   -9.7200 O.3    84  C84        -0.2156
   1471  C1'       21.2730   30.2130  -10.6190 C.3    84  C84         0.2420
   1472  N1        21.1750   28.8440  -11.1550 N.ar   84  C84        -0.2535
   1473  C2        20.2500   28.5860  -12.1580 C.ar   84  C84         0.3532
   1474  O2        19.5480   29.5120  -12.5600 O.2    84  C84        -0.2443
   1475  N3        20.1600   27.3350  -12.6470 N.ar   84  C84        -0.1739
   1476  C4        20.9410   26.3710  -12.1580 C.ar   84  C84         0.1759
   1477  N4        20.8110   25.1490  -12.6590 N.pl3  84  C84        -0.1070
   1478  C5        21.8860   26.6070  -11.1280 C.ar   84  C84         0.0566
   1479  C6        21.9690   27.8510  -10.6610 C.ar   84  C84         0.0850
   1480  OP1       26.0310   30.6980   -5.6230 O.3    84  C84        -0.4373
   1481  OP2       25.6530   28.7500   -7.3230 O.co2  84  C84        -0.5172
   1482  P         18.9450   29.9350   -6.3400 P.3    85  C85         0.2141
   1483  C5'       17.0570   31.1150   -7.7010 C.3    85  C85         0.1812
   1484  O5'       17.6010   29.9110   -7.1900 O.3    85  C85        -0.3114
   1485  C4'       15.8520   30.8430   -8.5440 C.3    85  C85         0.1773
   1486  O4'       16.2540   30.4320   -9.8700 O.3    85  C85        -0.3307
   1487  C3'       14.9470   29.7160   -8.0780 C.3    85  C85         0.1860
   1488  O3'       14.1070   30.0780   -6.9970 O.3    85  C85        -0.3112
   1489  C2'       14.1930   29.3780   -9.3510 C.3    85  C85         0.2309
   1490  O2'       13.1980   30.3650   -9.5960 O.3    85  C85        -0.2156
   1491  C1'       15.3020   29.5280  -10.3930 C.3    85  C85         0.2420
   1492  N1        15.9750   28.2400  -10.6490 N.ar   85  C85        -0.2535
   1493  C2        15.4380   27.3830  -11.6010 C.ar   85  C85         0.3532
   1494  O2        14.4300   27.7440  -12.1980 O.2    85  C85        -0.2443
   1495  N3        16.0340   26.2010  -11.8600 N.ar   85  C85        -0.1739
   1496  C4        17.1390   25.8680  -11.1840 C.ar   85  C85         0.1759
   1497  N4        17.7080   24.6970  -11.4420 N.pl3  85  C85        -0.1070
   1498  C5        17.7220   26.7190  -10.2070 C.ar   85  C85         0.0566
   1499  C6        17.1080   27.8830   -9.9730 C.ar   85  C85         0.0850
   1500  OP1       18.6790   30.7750   -5.1460 O.3    85  C85        -0.4373
   1501  OP2       19.4000   28.5290   -6.1900 O.co2  85  C85        -0.5172
   1502  P         13.6130   28.9560   -5.9590 P.3    86  G86         0.2141
   1503  C5'       11.6270   27.8160   -7.2450 C.3    86  G86         0.1812
   1504  O5'       12.9990   27.8270   -6.8890 O.3    86  G86        -0.3114
   1505  C4'       11.3540   26.6810   -8.1900 C.3    86  G86         0.1773
   1506  O4'       12.4040   26.6510   -9.1950 O.3    86  G86        -0.3307
   1507  C3'       11.3930   25.2830   -7.5860 C.3    86  G86         0.1860
   1508  O3'       10.1870   24.9040   -6.9450 O.3    86  G86        -0.3112
   1509  C2'       11.7130   24.4260   -8.8020 C.3    86  G86         0.2309
   1510  O2'       10.5810   24.2980   -9.6380 O.3    86  G86        -0.2156
   1511  C1'       12.7110   25.3140   -9.5310 C.3    86  G86         0.2408
   1512  N1        16.5240   21.9330   -9.7870 N.ar   86  G86        -0.1709
   1513  C2        15.2890   21.9070  -10.3790 C.ar   86  G86         0.2606
   1514  N2        15.0410   20.8330  -11.1460 N.pl3  86  G86        -0.0859
   1515  N3        14.3740   22.8590  -10.2350 N.ar   86  G86        -0.1918
   1516  C4        14.7930   23.8640   -9.4380 C.ar   86  G86         0.1723
   1517  C5        16.0040   23.9780   -8.8010 C.ar   86  G86         0.1748
   1518  C6        16.9720   22.9480   -8.9620 C.ar   86  G86         0.3023
   1519  O6        18.1000   22.8530   -8.4820 O.2    86  G86        -0.2633
   1520  N7        16.0420   25.1570   -8.0700 N.ar   86  G86        -0.2173
   1521  C8        14.8900   25.7320   -8.2710 C.ar   86  G86         0.1817
   1522  N9        14.0890   25.0010   -9.1060 N.ar   86  G86        -0.2693
   1523  OP1       12.5620   29.5730   -5.1170 O.3    86  G86        -0.4373
   1524  OP2       14.7150   28.2010   -5.3390 O.co2  86  G86        -0.5172
   1525  P          9.9980   24.9230   -5.3450 P.3    87  A87         0.2141
   1526  C5'        8.6480   27.0270   -4.5570 C.3    87  A87         0.1812
   1527  O5'        9.8930   26.4690   -4.9660 O.3    87  A87        -0.3114
   1528  C4'        8.6800   28.5370   -4.5310 C.3    87  A87         0.1773
   1529  O4'        8.7640   29.0410   -5.8820 O.3    87  A87        -0.3307
   1530  C3'        7.4420   29.2060   -3.9670 C.3    87  A87         0.1860
   1531  O3'        7.4470   29.2770   -2.5590 O.3    87  A87        -0.3112
   1532  C2'        7.4430   30.5700   -4.6420 C.3    87  A87         0.2309
   1533  O2'        8.3470   31.4540   -4.0010 O.3    87  A87        -0.2156
   1534  C1'        8.0110   30.2290   -6.0070 C.3    87  A87         0.2408
   1535  N1         5.2050   32.3940   -9.7830 N.ar   87  A87        -0.2040
   1536  C2         6.0580   32.8920   -8.8850 C.ar   87  A87         0.2016
   1537  N3         6.7470   32.2730   -7.9210 N.ar   87  A87        -0.2048
   1538  C4         6.4830   30.9580   -7.9110 C.ar   87  A87         0.1692
   1539  C5         5.6350   30.2890   -8.7710 C.ar   87  A87         0.1518
   1540  C6         4.9740   31.0670   -9.7520 C.ar   87  A87         0.1919
   1541  N6         4.1220   30.5760  -10.6550 N.pl3  87  A87        -0.1054
   1542  N7         5.6280   28.9320   -8.4610 N.ar   87  A87        -0.2193
   1543  C8         6.4550   28.8160   -7.4500 C.ar   87  A87         0.1816
   1544  N9         6.9970   30.0120   -7.0550 N.ar   87  A87        -0.2693
   1545  OP1       11.1580   24.3140   -4.6580 O.3    87  A87        -0.4373
   1546  OP2        8.6420   24.3470   -5.1080 O.co2  87  A87        -0.5172
   1547  P          6.0610   29.1190   -1.7850 P.3    88  G88         0.2141
   1548  C5'        4.2230   30.8740   -2.3880 C.3    88  G88         0.1812
   1549  O5'        5.0140   29.7680   -2.7910 O.3    88  G88        -0.3114
   1550  C4'        4.0240   31.8550   -3.5120 C.3    88  G88         0.1773
   1551  O4'        4.4800   31.2720   -4.7500 O.3    88  G88        -0.3307
   1552  C3'        2.5830   32.2300   -3.8000 C.3    88  G88         0.1860
   1553  O3'        2.0720   33.2030   -2.9130 O.3    88  G88        -0.3112
   1554  C2'        2.6360   32.6770   -5.2530 C.3    88  G88         0.2309
   1555  O2'        3.1550   33.9910   -5.3640 O.3    88  G88        -0.2156
   1556  C1'        3.6660   31.7090   -5.8190 C.3    88  G88         0.2408
   1557  N1         0.8780   30.0580   -9.6930 N.ar   88  G88        -0.1709
   1558  C2         1.3000   31.3340   -9.3960 C.ar   88  G88         0.2606
   1559  N2         0.9390   32.3070  -10.2450 N.pl3  88  G88        -0.0859
   1560  N3         2.0250   31.6360   -8.3350 N.ar   88  G88        -0.1918
   1561  C4         2.3000   30.5400   -7.5950 C.ar   88  G88         0.1723
   1562  C5         1.9300   29.2250   -7.8010 C.ar   88  G88         0.1748
   1563  C6         1.1390   28.9150   -8.9410 C.ar   88  G88         0.3023
   1564  O6         0.6820   27.8200   -9.2970 O.2    88  G88        -0.2633
   1565  N7         2.4240   28.4120   -6.7860 N.ar   88  G88        -0.2173
   1566  C8         3.0750   29.2300   -6.0020 C.ar   88  G88         0.1817
   1567  N9         3.0350   30.5320   -6.4390 N.ar   88  G88        -0.2693
   1568  OP1        6.1050   29.9800   -0.5800 O.3    88  G88        -0.4373
   1569  OP2        5.7720   27.6640   -1.6730 O.co2  88  G88        -0.5172
   1570  P          0.6320   32.9630   -2.2630 P.3    89  C89         0.2141
   1571  C5'       -0.2620   34.8500   -3.8160 C.3    89  C89         0.1812
   1572  O5'       -0.3600   33.5070   -3.3760 O.3    89  C89        -0.3114
   1573  C4'       -0.8770   35.0250   -5.1770 C.3    89  C89         0.1773
   1574  O4'       -0.2340   34.1480   -6.1330 O.3    89  C89        -0.3307
   1575  C3'       -2.3440   34.6610   -5.3190 C.3    89  C89         0.1860
   1576  O3'       -3.2260   35.6170   -4.7640 O.3    89  C89        -0.3112
   1577  C2'       -2.4700   34.5000   -6.8200 C.3    89  C89         0.2309
   1578  O2'       -2.4190   35.7650   -7.4570 O.3    89  C89        -0.2156
   1579  C1'       -1.1620   33.7840   -7.1350 C.3    89  C89         0.2420
   1580  N1        -1.3380   32.3150   -7.1330 N.ar   89  C89        -0.2535
   1581  C2        -1.9880   31.7210   -8.2340 C.ar   89  C89         0.3532
   1582  O2        -2.3940   32.4350   -9.1730 O.2    89  C89        -0.2443
   1583  N3        -2.1530   30.3780   -8.2400 N.ar   89  C89        -0.1739
   1584  C4        -1.7130   29.6540   -7.2120 C.ar   89  C89         0.1759
   1585  N4        -1.8950   28.3390   -7.2470 N.pl3  89  C89        -0.1070
   1586  C5        -1.0590   30.2310   -6.0840 C.ar   89  C89         0.0566
   1587  C6        -0.8910   31.5580   -6.0810 C.ar   89  C89         0.0850
   1588  OP1        0.4870   33.8310   -1.0610 O.3    89  C89        -0.4373
   1589  OP2        0.4640   31.4880   -2.1740 O.co2  89  C89        -0.5172
   1590  P         -4.4720   35.1270   -3.8860 P.3    90  C90         0.2141
   1591  C5'       -5.8330   35.5850   -6.0720 C.3    90  C90         0.1812
   1592  O5'       -5.5590   34.7110   -4.9850 O.3    90  C90        -0.3114
   1593  C4'       -6.3500   34.8850   -7.3090 C.3    90  C90         0.1773
   1594  O4'       -5.4560   33.8440   -7.7840 O.3    90  C90        -0.3307
   1595  C3'       -7.6790   34.1720   -7.2080 C.3    90  C90         0.1860
   1596  O3'       -8.7690   35.0600   -7.1330 O.3    90  C90        -0.3112
   1597  C2'       -7.6750   33.3320   -8.4750 C.3    90  C90         0.2309
   1598  O2'       -7.9620   34.1470   -9.6030 O.3    90  C90        -0.2156
   1599  C1'       -6.2020   32.9060   -8.5450 C.3    90  C90         0.2420
   1600  N1        -6.0010   31.5460   -7.9990 N.ar   90  C90        -0.2535
   1601  C2        -6.5030   30.4520   -8.7090 C.ar   90  C90         0.3532
   1602  O2        -7.0960   30.6200   -9.7840 O.2    90  C90        -0.2443
   1603  N3        -6.3270   29.2110   -8.2130 N.ar   90  C90        -0.1739
   1604  C4        -5.6920   29.0380   -7.0580 C.ar   90  C90         0.1759
   1605  N4        -5.5520   27.7920   -6.6140 N.pl3  90  C90        -0.1070
   1606  C5        -5.1740   30.1290   -6.3110 C.ar   90  C90         0.0566
   1607  C6        -5.3520   31.3520   -6.8170 C.ar   90  C90         0.0850
   1608  OP1       -4.9490   36.3240   -3.1560 O.2    90  C90        -0.5172
   1609  OP2       -4.0810   33.9160   -3.1220 O.co2  90  C90        -0.4373
   1610  P        -10.0850   34.6260   -6.3350 P.3    91  C91         0.2141
   1611  C5'      -11.0540   34.1720   -8.7120 C.3    91  C91         0.1812
   1612  O5'      -10.8530   33.7140   -7.3840 O.3    91  C91        -0.3114
   1613  C4'      -11.6690   33.1060   -9.5730 C.3    91  C91         0.1773
   1614  O4'      -10.7570   31.9980   -9.7380 O.3    91  C91        -0.3307
   1615  C3'      -12.9270   32.4740   -9.0180 C.3    91  C91         0.1860
   1616  O3'      -14.0480   33.2860   -9.2950 O.3    91  C91        -0.3112
   1617  C2'      -12.9710   31.1240   -9.7200 C.3    91  C91         0.2309
   1618  O2'      -13.5450   31.2630  -11.0080 O.3    91  C91        -0.2156
   1619  C1'      -11.4810   30.8040   -9.8950 C.3    91  C91         0.2420
   1620  N1       -10.9570   29.8070   -8.9430 N.ar   91  C91        -0.2535
   1621  C2       -11.2690   28.4630   -9.1280 C.ar   91  C91         0.3532
   1622  O2       -12.0090   28.1320  -10.0590 O.2    91  C91        -0.2443
   1623  N3       -10.7610   27.5540   -8.2760 N.ar   91  C91        -0.1739
   1624  C4        -9.9640   27.9420   -7.2830 C.ar   91  C91         0.1759
   1625  N4        -9.4980   26.9990   -6.4670 N.pl3  91  C91        -0.1070
   1626  C5        -9.6180   29.3050   -7.0780 C.ar   91  C91         0.0566
   1627  C6       -10.1270   30.1940   -7.9340 C.ar   91  C91         0.0850
   1628  OP1      -10.8710   35.8690   -6.1810 O.2    91  C91        -0.5172
   1629  OP2       -9.7440   33.8040   -5.1430 O.co2  91  C91        -0.4373
   1630  P        -15.1330   33.6390   -8.1640 P.3    92  G92         0.2141
   1631  C5'      -16.7990   31.7810   -7.5320 C.3    92  G92         0.1812
   1632  O5'      -16.2950   32.6370   -8.5270 O.3    92  G92        -0.3114
   1633  C4'      -16.8600   30.3590   -7.9980 C.3    92  G92         0.1773
   1634  O4'      -15.5230   29.8080   -7.9830 O.3    92  G92        -0.3307
   1635  C3'      -17.6790   29.4940   -7.0620 C.3    92  G92         0.1860
   1636  O3'      -18.2070   28.3930   -7.7750 O.3    92  G92        -0.3112
   1637  C2'      -16.6450   29.0180   -6.0660 C.3    92  G92         0.2309
   1638  O2'      -16.9860   27.8330   -5.3780 O.3    92  G92        -0.2156
   1639  C1'      -15.4090   28.8430   -6.9500 C.3    92  G92         0.2408
   1640  N1       -11.5360   26.8800   -4.3490 N.ar   92  G92        -0.1709
   1641  C2       -12.5500   26.2290   -5.0320 C.ar   92  G92         0.2606
   1642  N2       -12.5250   24.8830   -5.0080 N.pl3  92  G92        -0.0859
   1643  N3       -13.5150   26.8560   -5.6920 N.ar   92  G92        -0.1918
   1644  C4       -13.3770   28.1980   -5.6040 C.ar   92  G92         0.1723
   1645  C5       -12.4140   28.9460   -4.9520 C.ar   92  G92         0.1748
   1646  C6       -11.3800   28.2690   -4.2480 C.ar   92  G92         0.3023
   1647  O6       -10.4400   28.7680   -3.6040 O.2    92  G92        -0.2633
   1648  N7       -12.6450   30.3090   -5.1110 N.ar   92  G92        -0.2173
   1649  C8       -13.7250   30.3630   -5.8370 C.ar   92  G92         0.1817
   1650  N9       -14.1990   29.1220   -6.1880 N.ar   92  G92        -0.2693
   1651  OP1      -15.6040   35.0150   -8.4260 O.2    92  G92        -0.5172
   1652  OP2      -14.6560   33.3170   -6.7930 O.co2  92  G92        -0.4373
   1653  P        -19.7300   28.4240   -8.2570 P.3    93  U93         0.2141
   1654  C5'      -20.1420   25.8920   -8.3720 C.3    93  U93         0.1812
   1655  O5'      -19.8290   27.0740   -9.0800 O.3    93  U93        -0.3114
   1656  C4'      -19.6610   24.6590   -9.0650 C.3    93  U93         0.1773
   1657  O4'      -18.4200   24.2360   -8.4450 O.3    93  U93        -0.3307
   1658  C3'      -20.6220   23.4970   -8.9150 C.3    93  U93         0.1860
   1659  O3'      -20.5240   22.6600  -10.0510 O.3    93  U93        -0.3112
   1660  C2'      -20.1060   22.7790   -7.6830 C.3    93  U93         0.2309
   1661  O2'      -20.4520   21.4150   -7.6150 O.3    93  U93        -0.2156
   1662  C1'      -18.6000   22.9710   -7.8290 C.3    93  U93         0.2420
   1663  N1       -17.8930   22.9240   -6.5400 N.ar   93  U93        -0.2534
   1664  C2       -17.4340   24.0620   -5.9060 C.ar   93  U93         0.3546
   1665  O2       -17.5340   25.1990   -6.3210 O.2    93  U93        -0.2443
   1666  N3       -16.8150   23.8280   -4.7100 N.ar   93  U93        -0.1530
   1667  C4       -16.6220   22.6130   -4.0940 C.ar   93  U93         0.2846
   1668  O4       -16.0300   22.5860   -3.0180 O.2    93  U93        -0.2650
   1669  C5       -17.1500   21.4860   -4.8040 C.ar   93  U93         0.0814
   1670  C6       -17.7450   21.6840   -5.9720 C.ar   93  U93         0.0870
   1671  OP1      -19.9290   29.5880   -9.1530 O.2    93  U93        -0.5172
   1672  OP2      -20.5780   28.3030   -7.0420 O.co2  93  U93        -0.4373
   1673  P        -21.6030   22.8470  -11.2160 P.3    94  C94         0.2141
   1674  C5'      -19.9570   23.2110  -13.1540 C.3    94  C94         0.1812
   1675  O5'      -20.8640   23.7960  -12.2500 O.3    94  C94        -0.3114
   1676  C4'      -19.2790   24.2100  -14.0420 C.3    94  C94         0.1773
   1677  O4'      -18.8750   25.3660  -13.2750 O.3    94  C94        -0.3307
   1678  C3'      -18.0040   23.6670  -14.6610 C.3    94  C94         0.1860
   1679  O3'      -18.2910   23.0220  -15.8860 O.3    94  C94        -0.3112
   1680  C2'      -17.0930   24.8820  -14.7870 C.3    94  C94         0.2309
   1681  O2'      -17.3400   25.5540  -16.0110 O.3    94  C94        -0.2156
   1682  C1'      -17.5750   25.7740  -13.6370 C.3    94  C94         0.2420
   1683  N1       -16.7580   25.7790  -12.3920 N.ar   94  C94        -0.2535
   1684  C2       -16.2750   24.6530  -11.6920 C.ar   94  C94         0.3532
   1685  O2       -16.4400   23.4960  -12.1120 O.2    94  C94        -0.2443
   1686  N3       -15.6020   24.8480  -10.5220 N.ar   94  C94        -0.1739
   1687  C4       -15.4140   26.0720  -10.0180 C.ar   94  C94         0.1759
   1688  N4       -14.7580   26.2050   -8.8630 N.pl3  94  C94        -0.1070
   1689  C5       -15.9040   27.2240  -10.6850 C.ar   94  C94         0.0566
   1690  C6       -16.5610   27.0160  -11.8330 C.ar   94  C94         0.0850
   1691  OP1      -22.7880   23.5490  -10.6470 O.3    94  C94        -0.4373
   1692  OP2      -21.7630   21.5200  -11.8620 O.co2  94  C94        -0.5172
   1693  P        -17.7350   21.5520  -16.2000 P.3    95  A95         0.2141
   1694  C5'      -16.9890   23.0590  -18.1600 C.3    95  A95         0.1812
   1695  O5'      -16.8050   21.8460  -17.4410 O.3    95  A95        -0.3114
   1696  C4'      -15.6820   23.6460  -18.6230 C.3    95  A95         0.1773
   1697  O4'      -15.3040   24.7450  -17.7480 O.3    95  A95        -0.3307
   1698  C3'      -14.5020   22.6730  -18.6450 C.3    95  A95         0.1860
   1699  O3'      -13.7250   22.8820  -19.8250 O.3    95  A95        -0.3112
   1700  C2'      -13.7010   23.0690  -17.4020 C.3    95  A95         0.2309
   1701  O2'      -12.3220   22.7910  -17.4820 O.3    95  A95        -0.2156
   1702  C1'      -13.9660   24.5680  -17.3280 C.3    95  A95         0.2408
   1703  N1       -13.7130   29.0000  -14.7410 N.ar   95  A95        -0.2040
   1704  C2       -13.8910   28.7020  -16.0320 C.ar   95  A95         0.2016
   1705  N3       -13.9490   27.5050  -16.6170 N.ar   95  A95        -0.2048
   1706  C4       -13.7940   26.5080  -15.7240 C.ar   95  A95         0.1692
   1707  C5       -13.6000   26.6450  -14.3580 C.ar   95  A95         0.1518
   1708  C6       -13.5630   27.9800  -13.8600 C.ar   95  A95         0.1919
   1709  N6       -13.3780   28.3250  -12.5800 N.pl3  95  A95        -0.1054
   1710  N7       -13.4840   25.3790  -13.7730 N.ar   95  A95        -0.2193
   1711  C8       -13.6080   24.5350  -14.7770 C.ar   95  A95         0.1816
   1712  N9       -13.8030   25.1560  -15.9900 N.ar   95  A95        -0.2693
   1713  OP1      -18.8430   20.6980  -16.6870 O.2    95  A95        -0.5172
   1714  OP2      -16.9040   21.0750  -15.0720 O.co2  95  A95        -0.4373
   1715  P        -14.0790   22.0630  -21.1650 P.3    96  G96         0.2141
   1716  C5'      -11.8870   20.7520  -20.5560 C.3    96  G96         0.1812
   1717  O5'      -13.2260   20.7240  -21.0290 O.3    96  G96        -0.3114
   1718  C4'      -10.9560   20.0620  -21.5190 C.3    96  G96         0.1773
   1719  O4'      -11.4370   18.7140  -21.7800 O.3    96  G96        -0.3307
   1720  C3'      -10.8500   20.6960  -22.8980 C.3    96  G96         0.1860
   1721  O3'       -9.9320   21.7730  -22.9300 O.3    96  G96        -0.3112
   1722  C2'      -10.4400   19.5210  -23.7710 C.3    96  G96         0.2309
   1723  O2'       -9.0570   19.2490  -23.6120 O.3    96  G96        -0.2156
   1724  C1'      -11.2400   18.3830  -23.1360 C.3    96  G96         0.2408
   1725  N1       -14.2010   16.7590  -27.0520 N.ar   96  G96        -0.1709
   1726  C2       -12.8420   16.6350  -26.9050 C.ar   96  G96         0.2606
   1727  N2       -12.2140   16.0080  -27.9140 N.pl3  96  G96        -0.0859
   1728  N3       -12.1570   17.0880  -25.8580 N.ar   96  G96        -0.1918
   1729  C4       -12.9530   17.6860  -24.9440 C.ar   96  G96         0.1723
   1730  C5       -14.3230   17.8550  -25.0060 C.ar   96  G96         0.1748
   1731  C6       -15.0420   17.3710  -26.1310 C.ar   96  G96         0.3023
   1732  O6       -16.2580   17.4390  -26.3560 O.2    96  G96        -0.2633
   1733  N7       -14.7840   18.5180  -23.8810 N.ar   96  G96        -0.2173
   1734  C8       -13.7160   18.7360  -23.1670 C.ar   96  G96         0.1817
   1735  N9       -12.5730   18.2580  -23.7440 N.ar   96  G96        -0.2693
   1736  OP1      -13.5980   22.8730  -22.3130 O.2    96  G96        -0.5172
   1737  OP2      -15.5010   21.6560  -21.1300 O.co2  96  G96        -0.4373
   1738  P        -10.2110   23.0800  -23.8270 P.3    97  C97         0.2141
   1739  C5'       -8.7850   21.9150  -25.7050 C.3    97  C97         0.1812
   1740  O5'       -9.9890   22.5670  -25.3160 O.3    97  C97        -0.3114
   1741  C4'       -8.9900   21.1810  -27.0040 C.3    97  C97         0.1773
   1742  O4'       -9.9900   20.1490  -26.8050 O.3    97  C97        -0.3307
   1743  C3'       -9.5450   22.0360  -28.1340 C.3    97  C97         0.1860
   1744  O3'       -8.5320   22.7080  -28.8560 O.3    97  C97        -0.3112
   1745  C2'      -10.3380   21.0410  -28.9760 C.3    97  C97         0.2309
   1746  O2'       -9.4820   20.3190  -29.8440 O.3    97  C97        -0.2156
   1747  C1'      -10.8620   20.0840  -27.9120 C.3    97  C97         0.2420
   1748  N1       -12.2200   20.4520  -27.4570 N.ar   97  C97        -0.2535
   1749  C2       -13.3280   20.1150  -28.2390 C.ar   97  C97         0.3532
   1750  O2       -13.1590   19.5090  -29.3100 O.2    97  C97        -0.2443
   1751  N3       -14.5630   20.4660  -27.8030 N.ar   97  C97        -0.1739
   1752  C4       -14.7180   21.1170  -26.6440 C.ar   97  C97         0.1759
   1753  N4       -15.9500   21.4460  -26.2430 N.pl3  97  C97        -0.1070
   1754  C5       -13.6060   21.4650  -25.8310 C.ar   97  C97         0.0566
   1755  C6       -12.3960   21.1170  -26.2770 C.ar   97  C97         0.0850
   1756  OP1       -9.1490   24.0880  -23.5840 O.3    97  C97        -0.4373
   1757  OP2      -11.6110   23.5040  -23.6110 O.co2  97  C97        -0.5172
   1758  P         -8.5220   24.3110  -28.9390 P.3    98  U98         0.2141
   1759  C5'       -9.9740   24.2310  -31.1220 C.3    98  U98         0.1812
   1760  O5'       -9.8090   24.6830  -29.7920 O.3    98  U98        -0.3114
   1761  C4'      -11.4330   24.2040  -31.4650 C.3    98  U98         0.1773
   1762  O4'      -12.1480   23.4950  -30.4270 O.3    98  U98        -0.3307
   1763  C3'      -12.1150   25.5570  -31.5280 C.3    98  U98         0.1860
   1764  O3'      -11.9290   26.1730  -32.7900 O.3    98  U98        -0.3112
   1765  C2'      -13.5780   25.2190  -31.2390 C.3    98  U98         0.2309
   1766  O2'      -14.2180   24.7660  -32.4200 O.3    98  U98        -0.2156
   1767  C1'      -13.4480   24.0220  -30.2910 C.3    98  U98         0.2420
   1768  N1       -13.7030   24.3240  -28.8590 N.ar   98  U98        -0.2534
   1769  C2       -15.0120   24.5360  -28.4470 C.ar   98  U98         0.3546
   1770  O2       -15.9630   24.5450  -29.2050 O.2    98  U98        -0.2443
   1771  N3       -15.1800   24.7750  -27.1040 N.ar   98  U98        -0.1530
   1772  C4       -14.1920   24.7970  -26.1470 C.ar   98  U98         0.2846
   1773  O4       -14.4950   25.0200  -24.9770 O.2    98  U98        -0.2650
   1774  C5       -12.8740   24.5620  -26.6430 C.ar   98  U98         0.0814
   1775  C6       -12.6770   24.3290  -27.9420 C.ar   98  U98         0.0870
   1776  OP1       -7.3710   24.7190  -29.7800 O.2    98  U98        -0.5172
   1777  OP2       -8.7700   24.8740  -27.5850 O.co2  98  U98        -0.4373
   1778  P        -11.3740   27.6750  -32.9090 P.3    99  A99         0.2141
   1779  C5'      -12.1720   27.7310  -35.4060 C.3    99  A99         0.1812
   1780  O5'      -12.2200   28.2950  -34.1020 O.3    99  A99        -0.3114
   1781  C4'      -13.3070   28.2580  -36.2360 C.3    99  A99         0.1773
   1782  O4'      -14.4640   27.3980  -36.0600 O.3    99  A99        -0.3307
   1783  C3'      -13.7940   29.6410  -35.8300 C.3    99  A99         0.1860
   1784  O3'      -13.0380   30.6850  -36.4220 O.3    99  A99        -0.3112
   1785  C2'      -15.2610   29.6220  -36.2400 C.3    99  A99         0.2309
   1786  O2'      -15.3900   29.8490  -37.6320 O.3    99  A99        -0.2156
   1787  C1'      -15.6340   28.1720  -35.9600 C.3    99  A99         0.2408
   1788  N1       -19.9020   28.3650  -33.1870 N.ar   99  A99        -0.2040
   1789  C2       -19.6430   28.6280  -34.4670 C.ar   99  A99         0.2016
   1790  N3       -18.4950   28.5440  -35.1170 N.ar   99  A99        -0.2048
   1791  C4       -17.5140   28.1480  -34.2860 C.ar   99  A99         0.1692
   1792  C5       -17.6220   27.8360  -32.9470 C.ar   99  A99         0.1518
   1793  C6       -18.9060   27.9530  -32.3810 C.ar   99  A99         0.1919
   1794  N6       -19.2120   27.6970  -31.1080 N.pl3  99  A99        -0.1054
   1795  N7       -16.3970   27.4610  -32.4410 N.ar   99  A99        -0.2193
   1796  C8       -15.5930   27.5540  -33.4690 C.ar   99  A99         0.1816
   1797  N9       -16.2030   27.9750  -34.6140 N.ar   99  A99        -0.2693
   1798  OP1       -9.9620   27.5800  -33.3690 O.2    99  A99        -0.5172
   1799  OP2      -11.7280   28.4590  -31.7010 O.co2  99  A99        -0.4373
   1800  P        -13.0400   32.1450  -35.7630 P.3   100  A100        0.2141
   1801  C5'      -15.1330   33.1470  -36.9440 C.3   100  A100        0.1812
   1802  O5'      -14.5650   32.5660  -35.7860 O.3   100  A100       -0.3114
   1803  C4'      -16.5830   33.4030  -36.7030 C.3   100  A100        0.1773
   1804  O4'      -17.1710   32.1750  -36.2170 O.3   100  A100       -0.3307
   1805  C3'      -16.8800   34.4100  -35.6080 C.3   100  A100        0.1860
   1806  O3'      -16.8550   35.7490  -36.0580 O.3   100  A100       -0.3112
   1807  C2'      -18.2460   33.9740  -35.1140 C.3   100  A100        0.2309
   1808  O2'      -19.2570   34.4230  -36.0030 O.3   100  A100       -0.2156
   1809  C1'      -18.1310   32.4590  -35.2280 C.3   100  A100        0.2408
   1810  N1       -19.6000   31.2170  -30.5030 N.ar  100  A100       -0.2040
   1811  C2       -20.2220   31.8320  -31.5060 C.ar  100  A100        0.2016
   1812  N3       -19.7560   32.1190  -32.7120 N.ar  100  A100       -0.2048
   1813  C4       -18.4850   31.7040  -32.8530 C.ar  100  A100        0.1692
   1814  C5       -17.7020   31.0570  -31.9180 C.ar  100  A100        0.1518
   1815  C6       -18.3150   30.8140  -30.6750 C.ar  100  A100        0.1919
   1816  N6       -17.7030   30.2010  -29.6600 N.pl3 100  A100       -0.1054
   1817  N7       -16.4420   30.7720  -32.4380 N.ar  100  A100       -0.2193
   1818  C8       -16.4990   31.2560  -33.6550 C.ar  100  A100        0.1816
   1819  N9       -17.7010   31.8360  -33.9650 N.ar  100  A100       -0.2693
   1820  OP1      -12.3890   33.1270  -36.6640 O.2   100  A100       -0.5172
   1821  OP2      -12.6470   31.9880  -34.3470 O.co2 100  A100       -0.4373
   1822  P        -16.1760   36.8700  -35.1380 P.3   101  C101        0.2141
   1823  C5'      -18.1700   37.2850  -33.5210 C.3   101  C101        0.1812
   1824  O5'      -16.8940   36.7220  -33.7350 O.3   101  C101       -0.3114
   1825  C4'      -18.8060   36.6790  -32.3060 C.3   101  C101        0.1773
   1826  O4'      -18.5090   35.2600  -32.2590 O.3   101  C101       -0.3307
   1827  C3'      -18.2810   37.2050  -30.9920 C.3   101  C101        0.1860
   1828  O3'      -18.8680   38.4390  -30.6350 O.3   101  C101       -0.3112
   1829  C2'      -18.5710   36.0590  -30.0320 C.3   101  C101        0.2309
   1830  O2'      -19.9350   36.0470  -29.6380 O.3   101  C101       -0.2156
   1831  C1'      -18.3220   34.8500  -30.9280 C.3   101  C101        0.2420
   1832  N1       -16.9490   34.3050  -30.8070 N.ar  101  C101       -0.2535
   1833  C2       -16.5120   33.7540  -29.5980 C.ar  101  C101        0.3532
   1834  O2       -17.2520   33.7420  -28.6080 O.2   101  C101       -0.2443
   1835  N3       -15.2620   33.2440  -29.5220 N.ar  101  C101       -0.1739
   1836  C4       -14.4570   33.2500  -30.5860 C.ar  101  C101        0.1759
   1837  N4       -13.2420   32.7210  -30.4370 N.pl3 101  C101       -0.1070
   1838  C5       -14.8770   33.7950  -31.8360 C.ar  101  C101        0.0566
   1839  C6       -16.1170   34.2990  -31.8960 C.ar  101  C101        0.0850
   1840  OP1      -16.5360   38.2380  -35.6150 O.2   101  C101       -0.5172
   1841  OP2      -14.7800   36.4010  -34.9450 O.co2 101  C101       -0.4373
   1842  P        -17.9460   39.5760  -29.9900 P.3   102  C102        0.2141
   1843  C5'      -19.1200   38.7140  -27.8530 C.3   102  C102        0.1812
   1844  O5'      -17.9270   39.1680  -28.4610 O.3   102  C102       -0.3114
   1845  C4'      -18.8190   37.9830  -26.5830 C.3   102  C102        0.1773
   1846  O4'      -18.2200   36.6990  -26.8680 O.3   102  C102       -0.3307
   1847  C3'      -17.8020   38.6590  -25.7060 C.3   102  C102        0.1860
   1848  O3'      -18.3630   39.7310  -24.9890 O.3   102  C102       -0.3112
   1849  C2'      -17.3020   37.5120  -24.8430 C.3   102  C102        0.2309
   1850  O2'      -18.2220   37.2150  -23.8060 O.3   102  C102       -0.2156
   1851  C1'      -17.3170   36.3620  -25.8390 C.3   102  C102        0.2420
   1852  N1       -15.9890   36.1350  -26.4370 N.ar  102  C102       -0.2535
   1853  C2       -15.0580   35.4710  -25.6580 C.ar  102  C102        0.3532
   1854  O2       -15.4140   35.1220  -24.5260 O.2   102  C102       -0.2443
   1855  N3       -13.8320   35.2140  -26.1640 N.ar  102  C102       -0.1739
   1856  C4       -13.5290   35.6180  -27.3960 C.ar  102  C102        0.1759
   1857  N4       -12.3070   35.3580  -27.8550 N.pl3 102  C102       -0.1070
   1858  C5       -14.4670   36.3110  -28.2150 C.ar  102  C102        0.0566
   1859  C6       -15.6810   36.5470  -27.7000 C.ar  102  C102        0.0850
   1860  OP1      -18.6170   40.9010  -30.0620 O.3   102  C102       -0.4373
   1861  OP2      -16.5890   39.3700  -30.5620 O.co2 102  C102       -0.5172
   1862  P        -17.5230   41.0800  -24.7990 P.3   103  U103        0.2141
   1863  C5'      -17.1090   39.9140  -22.5060 C.3   103  U103        0.1812
   1864  O5'      -16.6020   40.7250  -23.5560 O.3   103  U103       -0.3114
   1865  C4'      -15.9890   39.3250  -21.6940 C.3   103  U103        0.1773
   1866  O4'      -15.4170   38.1680  -22.3520 O.3   103  U103       -0.3307
   1867  C3'      -14.8060   40.2450  -21.5000 C.3   103  U103        0.1860
   1868  O3'      -15.0480   41.2110  -20.5160 O.3   103  U103       -0.3112
   1869  C2'      -13.6930   39.2790  -21.1550 C.3   103  U103        0.2309
   1870  O2'      -13.8340   38.8510  -19.8090 O.3   103  U103       -0.2156
   1871  C1'      -14.0290   38.1110  -22.0820 C.3   103  U103        0.2420
   1872  N1       -13.2950   38.1790  -23.3710 N.ar  103  U103       -0.2534
   1873  C2       -12.1530   37.4180  -23.4730 C.ar  103  U103        0.3546
   1874  O2       -11.7590   36.7340  -22.5540 O.2   103  U103       -0.2443
   1875  N3       -11.5020   37.4830  -24.6770 N.ar  103  U103       -0.1530
   1876  C4       -11.8700   38.2280  -25.7770 C.ar  103  U103        0.2846
   1877  O4       -11.1800   38.1920  -26.7960 O.2   103  U103       -0.2650
   1878  C5       -13.0680   38.9890  -25.6020 C.ar  103  U103        0.0814
   1879  C6       -13.7270   38.9390  -24.4380 C.ar  103  U103        0.0870
   1880  OP1      -18.4620   42.1510  -24.3700 O.3   103  U103       -0.4373
   1881  OP2      -16.6810   41.2730  -26.0110 O.co2 103  U103       -0.5172
   1882  P        -13.9930   42.3780  -20.3410 P.3   104  C104        0.2141
   1883  C5'      -11.7590   42.3050  -18.9540 C.3   104  C104        0.1812
   1884  O5'      -13.0470   41.7780  -19.2120 O.3   104  C104       -0.3114
   1885  C4'      -10.8810   41.2420  -18.3570 C.3   104  C104        0.1773
   1886  O4'      -11.0120   40.0320  -19.1480 O.3   104  C104       -0.3307
   1887  C3'       -9.3910   41.5330  -18.3670 C.3   104  C104        0.1860
   1888  O3'       -8.9780   42.3270  -17.2720 O.3   104  C104       -0.3112
   1889  C2'       -8.7900   40.1440  -18.3970 C.3   104  C104        0.2309
   1890  O2'       -8.9120   39.5190  -17.1280 O.3   104  C104       -0.2156
   1891  C1'       -9.7570   39.4450  -19.3410 C.3   104  C104        0.2420
   1892  N1        -9.4100   39.6600  -20.7580 N.ar  104  C104       -0.2535
   1893  C2        -8.2640   39.0720  -21.2760 C.ar  104  C104        0.3532
   1894  O2        -7.5340   38.3910  -20.5350 O.2   104  C104       -0.2443
   1895  N3        -7.9870   39.2740  -22.5810 N.ar  104  C104       -0.1739
   1896  C4        -8.7840   40.0170  -23.3450 C.ar  104  C104        0.1759
   1897  N4        -8.4440   40.1770  -24.6210 N.pl3 104  C104       -0.1070
   1898  C5        -9.9640   40.6310  -22.8390 C.ar  104  C104        0.0566
   1899  C6       -10.2320   40.4180  -21.5490 C.ar  104  C104        0.0850
   1900  OP1      -14.6880   43.5800  -19.7820 O.3   104  C104       -0.4373
   1901  OP2      -13.3020   42.4320  -21.6620 O.co2 104  C104       -0.5172
   1902  P         -8.1680   43.6880  -17.5460 P.3   105  G105        0.2141
   1903  C5'       -6.1550   42.2320  -16.7270 C.3   105  G105        0.1812
   1904  O5'       -6.6480   43.2040  -17.6360 O.3   105  G105       -0.3114
   1905  C4'       -4.8110   41.7090  -17.1380 C.3   105  G105        0.1773
   1906  O4'       -4.9490   40.7110  -18.1820 O.3   105  G105       -0.3307
   1907  C3'       -3.8510   42.7280  -17.7260 C.3   105  G105        0.1860
   1908  O3'       -3.2220   43.5170  -16.7320 O.3   105  G105       -0.3112
   1909  C2'       -2.8910   41.8490  -18.5080 C.3   105  G105        0.2309
   1910  O2'       -1.9830   41.2140  -17.6210 O.3   105  G105       -0.2156
   1911  C1'       -3.8500   40.7900  -19.0630 C.3   105  G105        0.2408
   1912  N1        -2.9940   41.2700  -24.0720 N.ar  105  G105       -0.1709
   1913  C2        -2.1510   40.7980  -23.1040 C.ar  105  G105        0.2606
   1914  N2        -0.9450   40.4130  -23.5300 N.pl3 105  G105       -0.0859
   1915  N3        -2.4740   40.7060  -21.8260 N.ar  105  G105       -0.1918
   1916  C4        -3.7270   41.1440  -21.5900 C.ar  105  G105        0.1723
   1917  C5        -4.6450   41.6340  -22.4870 C.ar  105  G105        0.1748
   1918  C6        -4.2900   41.7190  -23.8520 C.ar  105  G105        0.3023
   1919  O6        -4.9660   42.1310  -24.8000 O.2   105  G105       -0.2633
   1920  N7        -5.8270   41.9750  -21.8550 N.ar  105  G105       -0.2173
   1921  C8        -5.6140   41.6950  -20.6040 C.ar  105  G105        0.1817
   1922  N9        -4.3680   41.1830  -20.3790 N.ar  105  G105       -0.2693
   1923  OP1       -8.3120   44.5850  -16.3690 O.3   105  G105       -0.4373
   1924  OP2       -8.5720   44.1690  -18.8920 O.co2 105  G105       -0.5172
   1925  P         -3.0590   45.1020  -16.9340 P.3   106  C106        0.2141
   1926  C5'       -0.6100   44.5940  -17.7350 C.3   106  C106        0.1812
   1927  O5'       -1.8670   45.2090  -17.9820 O.3   106  C106       -0.3114
   1928  C4'        0.2510   44.6380  -18.9670 C.3   106  C106        0.1773
   1929  O4'       -0.3400   43.8190  -19.9980 O.3   106  C106       -0.3307
   1930  C3'        0.4030   45.9990  -19.6330 C.3   106  C106        0.1860
   1931  O3'        1.3750   46.8170  -19.0080 O.3   106  C106       -0.3112
   1932  C2'        0.7640   45.6410  -21.0730 C.3   106  C106        0.2309
   1933  O2'        2.1580   45.4280  -21.2290 O.3   106  C106       -0.2156
   1934  C1'        0.0410   44.3060  -21.2660 C.3   106  C106        0.2420
   1935  N1        -1.1350   44.4390  -22.1450 N.ar  106  C106       -0.2535
   1936  C2        -0.8530   44.4790  -23.5120 C.ar  106  C106        0.3532
   1937  O2         0.3170   44.3930  -23.9010 O.2   106  C106       -0.2443
   1938  N3        -1.8530   44.6070  -24.3950 N.ar  106  C106       -0.1739
   1939  C4        -3.0950   44.7010  -23.9510 C.ar  106  C106        0.1759
   1940  N4        -4.0320   44.8180  -24.8850 N.pl3 106  C106       -0.1070
   1941  C5        -3.4240   44.6700  -22.5610 C.ar  106  C106        0.0566
   1942  C6        -2.4170   44.5380  -21.6850 C.ar  106  C106        0.0850
   1943  OP1       -2.6200   45.6680  -15.6360 O.3   106  C106       -0.4373
   1944  OP2       -4.2570   45.6750  -17.5840 O.co2 106  C106       -0.5172
   1945  P          0.9580   48.1080  -18.1460 P.3   107  A107        0.2141
   1946  C5'        2.1280   47.1790  -15.9690 C.3   107  A107        0.1812
   1947  O5'        0.9370   47.5710  -16.6420 O.3   107  A107       -0.3114
   1948  C4'        1.8270   46.2780  -14.7960 C.3   107  A107        0.1773
   1949  O4'        1.7790   44.9020  -15.2460 O.3   107  A107       -0.3307
   1950  C3'        2.8560   46.2550  -13.6790 C.3   107  A107        0.1860
   1951  O3'        2.7330   47.3350  -12.7770 O.3   107  A107       -0.3112
   1952  C2'        2.6150   44.9000  -13.0310 C.3   107  A107        0.2309
   1953  O2'        1.4750   44.9340  -12.1900 O.3   107  A107       -0.2156
   1954  C1'        2.2800   44.0460  -14.2400 C.3   107  A107        0.2408
   1955  N1         5.4590   40.0950  -13.5780 N.ar  107  A107       -0.2040
   1956  C2         4.4110   40.5330  -12.8730 C.ar  107  A107        0.2016
   1957  N3         3.6300   41.5850  -13.1040 N.ar  107  A107       -0.2048
   1958  C4         4.0300   42.2250  -14.2160 C.ar  107  A107        0.1692
   1959  C5         5.0870   41.8920  -15.0470 C.ar  107  A107        0.1518
   1960  C6         5.8390   40.7600  -14.6940 C.ar  107  A107        0.1919
   1961  N6         6.8980   40.3090  -15.3880 N.pl3 107  A107       -0.1054
   1962  N7         5.1850   42.7880  -16.1020 N.ar  107  A107       -0.2193
   1963  C8         4.1930   43.6270  -15.8880 C.ar  107  A107        0.1816
   1964  N9         3.4580   43.3420  -14.7650 N.ar  107  A107       -0.2693
   1965  OP1       -0.4190   48.5650  -18.4740 O.2   107  A107       -0.5172
   1966  OP2        2.0760   49.0600  -18.3360 O.co2 107  A107       -0.4373
   1967  P          4.0580   47.9950  -12.1650 P.3   108  A108        0.2141
   1968  C5'        4.3590   46.1390  -10.3320 C.3   108  A108        0.1812
   1969  O5'        4.8300   46.7520  -11.5240 O.3   108  A108       -0.3114
   1970  C4'        5.0190   44.8050  -10.0720 C.3   108  A108        0.1773
   1971  O4'        4.9340   43.9640  -11.2520 O.3   108  A108       -0.3307
   1972  C3'        6.5090   44.8230   -9.7620 C.3   108  A108        0.1860
   1973  O3'        6.8180   45.2070   -8.4400 O.3   108  A108       -0.3112
   1974  C2'        6.9190   43.3990  -10.1010 C.3   108  A108        0.2309
   1975  O2'        6.4700   42.4900   -9.1080 O.3   108  A108       -0.2156
   1976  C1'        6.0990   43.1690  -11.3590 C.3   108  A108        0.2408
   1977  N1         9.9270   42.1030  -14.5990 N.ar  108  A108       -0.2040
   1978  C2         9.4310   41.4430  -13.5420 C.ar  108  A108        0.2016
   1979  N3         8.4310   41.7750  -12.7330 N.ar  108  A108       -0.2048
   1980  C4         7.9050   42.9530  -13.1170 C.ar  108  A108        0.1692
   1981  C5         8.2970   43.7490  -14.1810 C.ar  108  A108        0.1518
   1982  C6         9.3670   43.2820  -14.9550 C.ar  108  A108        0.1919
   1983  N6         9.8520   43.9430  -16.0090 N.pl3 108  A108       -0.1054
   1984  N7         7.5160   44.8930  -14.2700 N.ar  108  A108       -0.2193
   1985  C8         6.6770   44.7670  -13.2680 C.ar  108  A108        0.1816
   1986  N9         6.8500   43.6140  -12.5420 N.ar  108  A108       -0.2693
   1987  OP1        3.6610   48.9620  -11.1040 O.3   108  A108       -0.4373
   1988  OP2        4.8390   48.4990  -13.3230 O.co2 108  A108       -0.5172
   1989  P          8.0470   46.2020   -8.1750 P.3   109  G109        0.2141
   1990  C5'        9.5870   44.2450   -7.3980 C.3   109  G109        0.1812
   1991  O5'        9.3240   45.2690   -8.3440 O.3   109  G109       -0.3114
   1992  C4'       10.3270   43.0800   -8.0070 C.3   109  G109        0.1773
   1993  O4'        9.9200   42.8780   -9.3830 O.3   109  G109       -0.3307
   1994  C3'       11.8330   43.2050   -8.1090 C.3   109  G109        0.1860
   1995  O3'       12.4950   43.0330   -6.8730 O.3   109  G109       -0.3112
   1996  C2'       12.1590   42.1360   -9.1400 C.3   109  G109        0.2309
   1997  O2'       12.0490   40.8460   -8.5590 O.3   109  G109       -0.2156
   1998  C1'       10.9900   42.3030  -10.1070 C.3   109  G109        0.2408
   1999  N1        13.6040   42.7360  -14.4470 N.ar  109  G109       -0.1709
   2000  C2        13.5510   41.6820  -13.5690 C.ar  109  G109        0.2606
   2001  N2        14.2800   40.6080  -13.8990 N.pl3 109  G109       -0.0859
   2002  N3        12.8320   41.6800  -12.4570 N.ar  109  G109       -0.1918
   2003  C4        12.1610   42.8470  -12.2960 C.ar  109  G109        0.1723
   2004  C5        12.1500   43.9560  -13.1150 C.ar  109  G109        0.1748
   2005  C6        12.9240   43.9410  -14.2990 C.ar  109  G109        0.3023
   2006  O6        13.0360   44.8360  -15.1410 O.2   109  G109       -0.2633
   2007  N7        11.3290   44.9470  -12.6040 N.ar  109  G109       -0.2173
   2008  C8        10.8590   44.4360  -11.4990 C.ar  109  G109        0.1817
   2009  N9        11.3250   43.1700  -11.2510 N.ar  109  G109       -0.2693
   2010  OP1        7.9670   46.6160   -6.7530 O.3   109  G109       -0.4373
   2011  OP2        8.0820   47.2310   -9.2480 O.co2 109  G109       -0.5172
   2012  P         13.4990   44.1670   -6.3380 P.3   110  C110        0.2141
   2013  C5'       15.4880   44.8760   -7.9140 C.3   110  C110        0.1812
   2014  O5'       14.0860   44.8300   -7.6650 O.3   110  C110       -0.3114
   2015  C4'       15.9580   43.7140   -8.7630 C.3   110  C110        0.1773
   2016  O4'       15.0780   43.5390   -9.9090 O.3   110  C110       -0.3307
   2017  C3'       17.3470   43.8410   -9.3810 C.3   110  C110        0.1860
   2018  O3'       18.3880   43.5080   -8.4740 O.3   110  C110       -0.3112
   2019  C2'       17.2570   42.8960  -10.5700 C.3   110  C110        0.2309
   2020  O2'       17.3190   41.5450  -10.1390 O.3   110  C110       -0.2156
   2021  C1'       15.8300   43.1490  -11.0390 C.3   110  C110        0.2420
   2022  N1        15.7490   44.2320  -12.0440 N.ar  110  C110       -0.2535
   2023  C2        16.4240   44.1580  -13.2710 C.ar  110  C110        0.3532
   2024  O2        17.1340   43.1870  -13.5600 O.2   110  C110       -0.2443
   2025  N3        16.2950   45.1800  -14.1420 N.ar  110  C110       -0.1739
   2026  C4        15.5290   46.2310  -13.8390 C.ar  110  C110        0.1759
   2027  N4        15.4250   47.2170  -14.7290 N.pl3 110  C110       -0.1070
   2028  C5        14.8310   46.3310  -12.6080 C.ar  110  C110        0.0566
   2029  C6        14.9690   45.3150  -11.7570 C.ar  110  C110        0.0850
   2030  OP1       14.5980   43.4740   -5.6230 O.3   110  C110       -0.4373
   2031  OP2       12.6820   45.1820   -5.6350 O.co2 110  C110       -0.5172
   2032  P         19.8610   44.1540   -8.5970 P.3   111  G111        0.2141
   2033  C5'       20.7930   42.4010  -10.2940 C.3   111  G111        0.1812
   2034  O5'       20.3640   43.7330  -10.0460 O.3   111  G111       -0.3114
   2035  C4'       21.4830   42.2690  -11.6270 C.3   111  G111        0.1773
   2036  O4'       20.7000   42.9580  -12.6430 O.3   111  G111       -0.3307
   2037  C3'       22.8930   42.8520  -11.6940 C.3   111  G111        0.1860
   2038  O3'       23.7330   41.9970  -12.4720 O.3   111  G111       -0.3112
   2039  C2'       22.6790   44.1870  -12.4070 C.3   111  G111        0.2309
   2040  O2'       23.8020   44.6860  -13.1020 O.3   111  G111       -0.2156
   2041  C1'       21.5220   43.8620  -13.3470 C.3   111  G111        0.2408
   2042  N1        20.7480   47.4240  -16.8200 N.ar  111  G111       -0.1709
   2043  C2        21.5960   46.3390  -16.8400 C.ar  111  G111        0.2606
   2044  N2        22.3390   46.1930  -17.9450 N.pl3 111  G111       -0.0859
   2045  N3        21.6990   45.4640  -15.8560 N.ar  111  G111       -0.1918
   2046  C4        20.8680   45.7680  -14.8380 C.ar  111  G111        0.1723
   2047  C5        19.9820   46.8180  -14.7070 C.ar  111  G111        0.1748
   2048  C6        19.8820   47.7520  -15.7770 C.ar  111  G111        0.3023
   2049  O6        19.1590   48.7550  -15.8670 O.2   111  G111       -0.2633
   2050  N7        19.3140   46.7550  -13.4860 N.ar  111  G111       -0.2173
   2051  C8        19.7990   45.6880  -12.9130 C.ar  111  G111        0.1817
   2052  N9        20.7380   45.0470  -13.6860 N.ar  111  G111       -0.2693
   2053  OP1       20.6960   43.3870   -7.6450 O.3   111  G111       -0.4373
   2054  OP2       19.7940   45.6430   -8.5160 O.co2 111  G111       -0.5172
   2055  P         24.9900   41.2620  -11.7820 P.3   112  U112        0.2141
   2056  C5'       24.6670   38.8210  -12.7050 C.3   112  U112        0.1812
   2057  O5'       25.3420   40.0690  -12.7760 O.3   112  U112       -0.3114
   2058  C4'       24.7170   38.1090  -14.0310 C.3   112  U112        0.1773
   2059  O4'       23.8460   38.7770  -14.9660 O.3   112  U112       -0.3307
   2060  C3'       26.0650   38.1260  -14.7230 C.3   112  U112        0.1860
   2061  O3'       26.9450   37.1340  -14.2390 O.3   112  U112       -0.3112
   2062  C2'       25.6990   37.9390  -16.1840 C.3   112  U112        0.2309
   2063  O2'       25.4190   36.5750  -16.4470 O.3   112  U112       -0.2156
   2064  C1'       24.3890   38.7090  -16.2640 C.3   112  U112        0.2420
   2065  N1        24.5230   40.0830  -16.8020 N.ar  112  U112       -0.2534
   2066  C2        25.0050   40.2940  -18.0840 C.ar  112  U112        0.3546
   2067  O2        25.4080   39.4220  -18.8270 O.2   112  U112       -0.2443
   2068  N3        25.0260   41.6010  -18.4840 N.ar  112  U112       -0.1530
   2069  C4        24.6150   42.6970  -17.7670 C.ar  112  U112        0.2846
   2070  O4        24.7060   43.8060  -18.2760 O.2   112  U112       -0.2650
   2071  C5        24.1090   42.4120  -16.4630 C.ar  112  U112        0.0814
   2072  C6        24.0760   41.1430  -16.0480 C.ar  112  U112        0.0870
   2073  OP1       24.5700   40.6720  -10.4800 O.3   112  U112       -0.4373
   2074  OP2       26.1070   42.2260  -11.8640 O.co2 112  U112       -0.5172
   2075  P         28.4990   37.4780  -14.0580 P.3   113  C113        0.2141
   2076  C5'       29.3190   36.7310  -16.4100 C.3   113  C113        0.1812
   2077  O5'       29.0060   37.7920  -15.5320 O.3   113  C113       -0.3114
   2078  C4'       29.5510   37.2220  -17.8090 C.3   113  C113        0.1773
   2079  O4'       28.4490   38.0620  -18.2290 O.3   113  C113       -0.3307
   2080  C3'       30.7540   38.1110  -18.0440 C.3   113  C113        0.1860
   2081  O3'       31.9980   37.4260  -18.0400 O.3   113  C113       -0.3112
   2082  C2'       30.4020   38.7450  -19.3830 C.3   113  C113        0.2309
   2083  O2'       30.5990   37.8180  -20.4440 O.3   113  C113       -0.2156
   2084  C1'       28.9030   38.9730  -19.2110 C.3   113  C113        0.2420
   2085  N1        28.5830   40.3640  -18.8070 N.ar  113  C113       -0.2535
   2086  C2        28.4960   41.3190  -19.8290 C.ar  113  C113        0.3532
   2087  O2        28.6870   40.9710  -21.0060 O.2   113  C113       -0.2443
   2088  N3        28.1980   42.6010  -19.5270 N.ar  113  C113       -0.1739
   2089  C4        27.9920   42.9490  -18.2620 C.ar  113  C113        0.1759
   2090  N4        27.6970   44.2270  -18.0340 N.pl3 113  C113       -0.1070
   2091  C5        28.0760   42.0040  -17.1930 C.ar  113  C113        0.0566
   2092  C6        28.3740   40.7320  -17.5070 C.ar  113  C113        0.0850
   2093  OP1       29.1180   36.2130  -13.5980 O.2   113  C113       -0.5172
   2094  OP2       28.6310   38.7330  -13.2680 O.co2 113  C113       -0.4373
   2095  P         33.2160   37.9380  -17.1200 P.3   114  C114        0.2141
   2096  C5'       34.3110   39.8090  -18.6160 C.3   114  C114        0.1812
   2097  O5'       33.4540   39.4630  -17.5270 O.3   114  C114       -0.3114
   2098  C4'       33.5630   39.7130  -19.9210 C.3   114  C114        0.1773
   2099  O4'       32.6160   40.8150  -20.0150 O.3   114  C114       -0.3307
   2100  C3'       34.3800   39.7160  -21.2200 C.3   114  C114        0.1860
   2101  O3'       33.8980   38.6740  -22.0920 O.3   114  C114       -0.3112
   2102  C2'       34.0810   41.1040  -21.8180 C.3   114  C114        0.2309
   2103  O2'       34.1690   41.1670  -23.2270 O.3   114  C114       -0.2156
   2104  C1'       32.6550   41.3620  -21.3140 C.3   114  C114        0.2420
   2105  N1        32.2050   42.7840  -21.2870 N.ar  114  C114       -0.2535
   2106  C2        31.6390   43.4500  -20.1560 C.ar  114  C114        0.3532
   2107  O2        31.5230   42.9110  -19.0390 O.2   114  C114       -0.2443
   2108  N3        31.2370   44.7460  -20.2750 N.ar  114  C114       -0.1739
   2109  C4        31.3330   45.4040  -21.4350 C.ar  114  C114        0.1759
   2110  N4        30.9210   46.6770  -21.4930 N.pl3 114  C114       -0.1070
   2111  C5        31.8650   44.7670  -22.5910 C.ar  114  C114        0.0566
   2112  C6        32.2630   43.4890  -22.4680 C.ar  114  C114        0.0850
   2113  OP1       34.3900   37.1860  -17.6150 O.2   114  C114       -0.5172
   2114  OP2       32.8200   37.8770  -15.6860 O.co2 114  C114       -0.4373
   2115  P         34.5440   37.1860  -22.0440 P.3   115  G115        0.2141
   2116  C5'       32.5690   35.4130  -21.7340 C.3   115  G115        0.1812
   2117  O5'       33.4040   36.1960  -22.5980 O.3   115  G115       -0.3114
   2118  C4'       33.2460   34.1380  -21.2600 C.3   115  G115        0.1773
   2119  O4'       32.3660   33.3710  -20.3950 O.3   115  G115       -0.3307
   2120  C3'       33.6470   33.1350  -22.3250 C.3   115  G115        0.1860
   2121  O3'       34.8240   33.4900  -23.0150 O.3   115  G115       -0.3112
   2122  C2'       33.7960   31.8510  -21.5270 C.3   115  G115        0.2309
   2123  O2'       35.0150   31.8790  -20.8140 O.3   115  G115       -0.2156
   2124  C1'       32.6600   31.9900  -20.5200 C.3   115  G115        0.2408
   2125  N1        30.2980   27.5360  -21.4700 N.ar  115  G115       -0.1709
   2126  C2        31.5660   27.7340  -20.9990 C.ar  115  G115        0.2606
   2127  N2        32.2150   26.5870  -20.7820 N.pl3 115  G115       -0.0859
   2128  N3        32.1120   28.9290  -20.7790 N.ar  115  G115       -0.1918
   2129  C4        31.2430   29.9250  -21.0780 C.ar  115  G115        0.1723
   2130  C5        29.9460   29.8150  -21.5570 C.ar  115  G115        0.1748
   2131  C6        29.3920   28.5350  -21.7850 C.ar  115  G115        0.3023
   2132  O6        28.2730   28.2300  -22.1960 O.2   115  G115       -0.2633
   2133  N7        29.3710   31.0560  -21.7440 N.ar  115  G115       -0.2173
   2134  C8        30.2990   31.8940  -21.3910 C.ar  115  G115        0.1817
   2135  N9        31.4540   31.2850  -20.9740 N.ar  115  G115       -0.2693
   2136  OP1       34.8310   36.8420  -20.6270 O.3   115  G115       -0.4373
   2137  OP2       35.6660   37.1640  -23.0200 O.co2 115  G115       -0.5172
   2138  P         34.9860   33.0000  -24.5270 P.3   116  A116        0.2141
   2139  C5'       36.2460   30.7980  -23.8620 C.3   116  A116        0.1812
   2140  O5'       35.0970   31.4160  -24.4030 O.3   116  A116       -0.3114
   2141  C4'       36.2120   29.3080  -24.0720 C.3   116  A116        0.1773
   2142  O4'       35.2120   28.7120  -23.2000 O.3   116  A116       -0.3307
   2143  C3'       35.8060   28.8420  -25.4600 C.3   116  A116        0.1860
   2144  O3'       36.8300   28.9400  -26.4270 O.3   116  A116       -0.3112
   2145  C2'       35.3110   27.4310  -25.1870 C.3   116  A116        0.2309
   2146  O2'       36.3860   26.5410  -24.9600 O.3   116  A116       -0.2156
   2147  C1'       34.5650   27.6510  -23.8720 C.3   116  A116        0.2408
   2148  N1        29.9110   26.0870  -25.2540 N.ar  116  A116       -0.2040
   2149  C2        31.0320   25.4170  -24.9860 C.ar  116  A116        0.2016
   2150  N3        32.2090   25.9030  -24.6190 N.ar  116  A116       -0.2048
   2151  C4        32.1690   27.2430  -24.5420 C.ar  116  A116        0.1692
   2152  C5        31.0960   28.0680  -24.7910 C.ar  116  A116        0.1518
   2153  C6        29.9140   27.4330  -25.1670 C.ar  116  A116        0.1919
   2154  N6        28.7990   28.0940  -25.4420 N.pl3 116  A116       -0.1054
   2155  N7        31.4270   29.4020  -24.6110 N.ar  116  A116       -0.2193
   2156  C8        32.6850   29.3530  -24.2590 C.ar  116  A116        0.1816
   2157  N9        33.1870   28.0770  -24.1720 N.ar  116  A116       -0.2693
   2158  OP1       36.2430   33.5560  -25.0850 O.3   116  A116       -0.4373
   2159  OP2       33.6860   33.2580  -25.2010 O.co2 116  A116       -0.5172
   2160  P         36.4810   29.3270  -27.9460 P.3   117  A117        0.2141
   2161  C5'       36.9030   26.8170  -28.4540 C.3   117  A117        0.1812
   2162  O5'       36.0430   27.9350  -28.5680 O.3   117  A117       -0.3114
   2163  C4'       36.2970   25.5760  -29.0530 C.3   117  A117        0.1773
   2164  O4'       35.3030   25.0320  -28.1460 O.3   117  A117       -0.3307
   2165  C3'       35.5520   25.7560  -30.3670 C.3   117  A117        0.1860
   2166  O3'       36.4000   25.7910  -31.5010 O.3   117  A117       -0.3112
   2167  C2'       34.5970   24.5740  -30.3580 C.3   117  A117        0.2309
   2168  O2'       35.2890   23.3790  -30.6840 O.3   117  A117       -0.2156
   2169  C1'       34.2100   24.5260  -28.8830 C.3   117  A117        0.2408
   2170  N1        29.0980   25.1580  -29.3620 N.ar  117  A117       -0.2040
   2171  C2        29.9110   24.1730  -29.7520 C.ar  117  A117        0.2016
   2172  N3        31.2310   24.0700  -29.5970 N.ar  117  A117       -0.2048
   2173  C4        31.7310   25.1380  -28.9480 C.ar  117  A117        0.1692
   2174  C5        31.0180   26.2300  -28.4930 C.ar  117  A117        0.1518
   2175  C6        29.6350   26.2160  -28.7210 C.ar  117  A117        0.1919
   2176  N6        28.8370   27.2000  -28.3270 N.pl3 117  A117       -0.1054
   2177  N7        31.8510   27.1530  -27.8750 N.ar  117  A117       -0.2193
   2178  C8        33.0330   26.6020  -27.9720 C.ar  117  A117        0.1816
   2179  N9        33.0380   25.3830  -28.6060 N.ar  117  A117       -0.2693
   2180  OP1       37.7080   29.7310  -28.6660 O.2   117  A117       -0.5172
   2181  OP2       35.3490   30.2770  -27.9580 O.co2 117  A117       -0.4373
   2182  P         36.0330   26.7320  -32.7550 P.3   118  G118        0.2141
   2183  C5'       35.2030   24.4610  -33.7580 C.3   118  G118        0.1812
   2184  O5'       35.0130   25.8580  -33.6030 O.3   118  G118       -0.3114
   2185  C4'       33.9310   23.7900  -34.2060 C.3   118  G118        0.1773
   2186  O4'       33.0240   23.6390  -33.0850 O.3   118  G118       -0.3307
   2187  C3'       33.1050   24.5540  -35.2250 C.3   118  G118        0.1860
   2188  O3'       33.5890   24.4690  -36.5450 O.3   118  G118       -0.3112
   2189  C2'       31.7350   23.9390  -35.0520 C.3   118  G118        0.2309
   2190  O2'       31.6990   22.6560  -35.6500 O.3   118  G118       -0.2156
   2191  C1'       31.6880   23.7730  -33.5370 C.3   118  G118        0.2408
   2192  N1        27.3050   26.1220  -32.7150 N.ar  118  G118       -0.1709
   2193  C2        27.5790   24.9450  -33.3590 C.ar  118  G118        0.2606
   2194  N2        26.5480   24.2730  -33.8700 N.pl3 118  G118       -0.0859
   2195  N3        28.7870   24.4450  -33.4990 N.ar  118  G118       -0.1918
   2196  C4        29.7230   25.2300  -32.9380 C.ar  118  G118        0.1723
   2197  C5        29.5620   26.4250  -32.2750 C.ar  118  G118        0.1748
   2198  C6        28.2500   26.9540  -32.1290 C.ar  118  G118        0.3023
   2199  O6        27.8870   28.0030  -31.5780 O.2   118  G118       -0.2633
   2200  N7        30.7980   26.9000  -31.8500 N.ar  118  G118       -0.2173
   2201  C8        31.6610   26.0050  -32.2580 C.ar  118  G118        0.1817
   2202  N9        31.0670   24.9560  -32.9110 N.ar  118  G118       -0.2693
   2203  OP1       37.2220   26.9460  -33.6140 O.2   118  G118       -0.5172
   2204  OP2       35.3220   27.9180  -32.2180 O.co2 118  G118       -0.4373
   2205  P         33.3620   25.7240  -37.5110 P.3   119  G119        0.2141
   2206  C5'       31.4960   24.2610  -38.6540 C.3   119  G119        0.1812
   2207  O5'       31.8900   25.5080  -38.0940 O.3   119  G119       -0.3114
   2208  C4'       30.0140   24.2190  -38.9360 C.3   119  G119        0.1773
   2209  O4'       29.2780   24.1470  -37.6860 O.3   119  G119       -0.3307
   2210  C3'       29.4490   25.4420  -39.6400 C.3   119  G119        0.1860
   2211  O3'       29.6240   25.3960  -41.0430 O.3   119  G119       -0.3112
   2212  C2'       27.9880   25.4520  -39.2010 C.3   119  G119        0.2309
   2213  O2'       27.2010   24.5700  -39.9890 O.3   119  G119       -0.2156
   2214  C1'       28.0900   24.9070  -37.7760 C.3   119  G119        0.2408
   2215  N1        25.4900   28.5390  -35.4530 N.ar  119  G119       -0.1709
   2216  C2        25.0660   27.6090  -36.3610 C.ar  119  G119        0.2606
   2217  N2        23.7680   27.6640  -36.6960 N.pl3 119  G119       -0.0859
   2218  N3        25.8530   26.6990  -36.8980 N.ar  119  G119       -0.1918
   2219  C4        27.1170   26.8070  -36.4400 C.ar  119  G119        0.1723
   2220  C5        27.6460   27.6960  -35.5370 C.ar  119  G119        0.1748
   2221  C6        26.7810   28.6600  -34.9780 C.ar  119  G119        0.3023
   2222  O6        27.0440   29.5360  -34.1650 O.2   119  G119       -0.2633
   2223  N7        29.0030   27.4650  -35.3290 N.ar  119  G119       -0.2173
   2224  C8        29.2630   26.4520  -36.1050 C.ar  119  G119        0.1817
   2225  N9        28.1640   26.0060  -36.7990 N.ar  119  G119       -0.2693
   2226  OP1       34.3600   25.6420  -38.6060 O.2   119  G119       -0.5172
   2227  OP2       33.3320   26.9220  -36.6320 O.co2 119  G119       -0.4373
   2228  P         30.1440   26.6950  -41.8310 P.3   120  A120        0.2141
   2229  C5'       27.6730   26.8600  -42.6220 C.3   120  A120        0.1812
   2230  O5'       28.8180   27.5180  -42.1170 O.3   120  A120       -0.3114
   2231  C4'       26.4100   27.5620  -42.2110 C.3   120  A120        0.1773
   2232  O4'       26.1850   27.4310  -40.7830 O.3   120  A120       -0.3307
   2233  C3'       26.3600   29.0590  -42.4290 C.3   120  A120        0.1860
   2234  O3'       26.2480   29.4400  -43.7880 O.3   120  A120       -0.3112
   2235  C2'       25.1830   29.4510  -41.5330 C.3   120  A120        0.2309
   2236  O2'       23.9170   29.0820  -42.0890 O.3   120  A120       -0.2156
   2237  C1'       25.4580   28.5550  -40.3220 C.3   120  A120        0.2408
   2238  N1        25.0350   31.9410  -36.5770 N.ar  120  A120       -0.2040
   2239  C2        24.1540   31.3660  -37.3920 C.ar  120  A120        0.2016
   2240  N3        24.3690   30.4780  -38.3510 N.ar  120  A120       -0.2048
   2241  C4        25.6790   30.1730  -38.4410 C.ar  120  A120        0.1692
   2242  C5        26.7110   30.6820  -37.6870 C.ar  120  A120        0.1518
   2243  C6        26.3370   31.6130  -36.7050 C.ar  120  A120        0.1919
   2244  N6        27.1840   32.2070  -35.8880 N.pl3 120  A120       -0.1054
   2245  N7        27.9240   30.1290  -38.0870 N.ar  120  A120       -0.2193
   2246  C8        27.5930   29.3120  -39.0640 C.ar  120  A120        0.1816
   2247  N9        26.2480   29.2840  -39.3150 N.ar  120  A120       -0.2693
   2248  OP1       30.6450   26.2610  -43.1570 O.2   120  A120       -0.5172
   2249  OP2       30.9640   27.5080  -40.8950 O.co2 120  A120       -0.4373
   2250  P         26.3020   30.9920  -44.1950 P.3   121  G121        0.2141
   2251  C5'       24.4930   32.8560  -44.0160 C.3   121  G121        0.1812
   2252  O5'       24.8210   31.4870  -43.9180 O.3   121  G121       -0.3114
   2253  C4'       23.5980   33.2880  -42.8870 C.3   121  G121        0.1773
   2254  O4'       23.9820   32.6230  -41.6610 O.3   121  G121       -0.3307
   2255  C3'       23.6800   34.7570  -42.5410 C.3   121  G121        0.1860
   2256  O3'       22.9290   35.5600  -43.4190 O.3   121  G121       -0.3112
   2257  C2'       23.1970   34.7930  -41.1030 C.3   121  G121        0.2309
   2258  O2'       21.7870   34.7300  -41.0270 O.3   121  G121       -0.2156
   2259  C1'       23.7560   33.4820  -40.5650 C.3   121  G121        0.2408
   2260  N1        26.0740   36.0640  -36.8860 N.ar  121  G121       -0.1709
   2261  C2        24.7810   36.1700  -37.3360 C.ar  121  G121        0.2606
   2262  N2        24.0250   37.0790  -36.7200 N.pl3 121  G121       -0.0859
   2263  N3        24.2870   35.4370  -38.3110 N.ar  121  G121       -0.1918
   2264  C4        25.2040   34.5760  -38.8140 C.ar  121  G121        0.1723
   2265  C5        26.5200   34.3910  -38.4360 C.ar  121  G121        0.1748
   2266  C6        27.0270   35.1830  -37.3860 C.ar  121  G121        0.3023
   2267  O6        28.1580   35.1670  -36.9100 O.2   121  G121       -0.2633
   2268  N7        27.1390   33.4060  -39.1890 N.ar  121  G121       -0.2173
   2269  C8        26.2020   33.0160  -40.0130 C.ar  121  G121        0.1817
   2270  N9        25.0140   33.6820  -39.8360 N.ar  121  G121       -0.2693
   2271  OP1       26.4790   31.0900  -45.6640 O.2   121  G121       -0.5172
   2272  OP2       27.2030   31.6990  -43.2480 O.co2 121  G121       -0.4373
   2273  P         23.6760   36.5310  -44.4500 P.3   122  A122        0.2141
   2274  C5'       22.4040   38.4920  -43.2950 C.3   122  A122        0.1812
   2275  O5'       23.6430   37.9310  -43.6980 O.3   122  A122       -0.3114
   2276  C4'       22.4930   39.1070  -41.9240 C.3   122  A122        0.1773
   2277  O4'       22.9720   38.1250  -40.9700 O.3   122  A122       -0.3307
   2278  C3'       23.4670   40.2630  -41.7750 C.3   122  A122        0.1860
   2279  O3'       22.9470   41.4920  -42.2460 O.3   122  A122       -0.3112
   2280  C2'       23.7510   40.2550  -40.2830 C.3   122  A122        0.2309
   2281  O2'       22.6640   40.8190  -39.5660 O.3   122  A122       -0.2156
   2282  C1'       23.7860   38.7550  -40.0040 C.3   122  A122        0.2408
   2283  N1        28.5750   38.8110  -38.1500 N.ar  122  A122       -0.2040
   2284  C2        27.4500   39.4360  -37.7640 C.ar  122  A122        0.2016
   2285  N3        26.2280   39.3780  -38.2950 N.ar  122  A122       -0.2048
   2286  C4        26.2190   38.5470  -39.3530 C.ar  122  A122        0.1692
   2287  C5        27.2860   37.8300  -39.8690 C.ar  122  A122        0.1518
   2288  C6        28.5230   37.9810  -39.2190 C.ar  122  A122        0.1919
   2289  N6        29.6310   37.3490  -39.6090 N.pl3 122  A122       -0.1054
   2290  N7        26.9020   37.0770  -40.9710 N.ar  122  A122       -0.2193
   2291  C8        25.6280   37.3540  -41.0920 C.ar  122  A122        0.1816
   2292  N9        25.1510   38.2280  -40.1450 N.ar  122  A122       -0.2693
   2293  OP1       22.8110   36.6410  -45.6550 O.2   122  A122       -0.5172
   2294  OP2       25.0900   36.0930  -44.5960 O.co2 122  A122       -0.4373
   2295  P         23.8370   42.4350  -43.1930 P.3   123  A123        0.2141
   2296  C5'       26.1670   43.1960  -42.2590 C.3   123  A123        0.1813
   2297  O5'       24.7490   43.2530  -42.1760 O.3   123  A123       -0.3114
   2298  C4'       26.7800   42.9880  -40.8970 C.3   123  A123        0.1801
   2299  O4'       27.5340   41.7470  -40.8580 O.3   123  A123       -0.3306
   2300  C3'       27.7840   44.0250  -40.4310 C.3   123  A123        0.2161
   2301  O3'       27.1910   45.2420  -40.0100 O.3   123  A123       -0.2175
   2302  C2'       28.5210   43.2740  -39.3280 C.3   123  A123        0.2337
   2303  O2'       27.7280   43.2140  -38.1520 O.3   123  A123       -0.2155
   2304  C1'       28.5870   41.8640  -39.9230 C.3   123  A123        0.2409
   2305  N1        32.8130   43.5060  -42.6230 N.ar  123  A123       -0.2040
   2306  C2        31.7670   44.1900  -42.1490 C.ar  123  A123        0.2016
   2307  N3        30.7160   43.7380  -41.4690 N.ar  123  A123       -0.2048
   2308  C4        30.7680   42.4010  -41.2600 C.ar  123  A123        0.1692
   2309  C5        31.7920   41.5710  -41.6940 C.ar  123  A123        0.1518
   2310  C6        32.8550   42.1700  -42.4070 C.ar  123  A123        0.1919
   2311  N6        33.9020   41.4880  -42.8790 N.pl3 123  A123       -0.1054
   2312  N7        31.5470   40.2550  -41.3200 N.ar  123  A123       -0.2193
   2313  C8        30.4090   40.3080  -40.6790 C.ar  123  A123        0.1816
   2314  N9        29.8720   41.5660  -40.5940 N.ar  123  A123       -0.2693
   2315  OP1       22.9010   43.3860  -43.8460 O.3   123  A123       -0.4373
   2316  OP2       24.7200   41.5780  -44.0250 O.co2 123  A123       -0.5172
@<TRIPOS>BOND
     1  2271  2250    2
     2  2293  2273    2
     3  2294  2273    1
     4  2273  2275    1
     5  2273  2256    1
     6  2250  2252    1
     7  2250  2234    1
     8  2250  2272    1
     9  2316  2295    2
    10  2251  2252    1
    11  2251  2253    1
    12  2315  2295    1
    13  2234  2233    1
    14  2275  2274    1
    15  2256  2255    1
    16  2274  2276    1
    17  2295  2279    1
    18  2295  2297    1
    19  2248  2228    2
    20  2253  2255    1
    21  2253  2254    1
    22  2311  2310    1
    23  2305  2310   ar
    24  2305  2306   ar
    25  2229  2231    1
    26  2229  2230    1
    27  2255  2257    1
    28  2233  2231    1
    29  2233  2235    1
    30  2310  2309   ar
    31  2296  2297    1
    32  2296  2298    1
    33  2279  2278    1
    34  2231  2232    1
    35  2306  2307   ar
    36  2230  2228    1
    37  2236  2235    1
    38  2276  2278    1
    39  2276  2277    1
    40  2228  2211    1
    41  2228  2249    1
    42  2278  2280    1
    43  2309  2312   ar
    44  2309  2308   ar
    45  2254  2259    1
    46  2235  2237    1
    47  2307  2308   ar
    48  2312  2313   ar
    49  2308  2314   ar
    50  2257  2258    1
    51  2257  2259    1
    52  2291  2290   ar
    53  2291  2292   ar
    54  2211  2210    1
    55  2290  2287   ar
    56  2277  2282    1
    57  2298  2299    1
    58  2298  2300    1
    59  2299  2304    1
    60  2232  2237    1
    61  2313  2314   ar
    62  2314  2304    1
    63  2259  2270    1
    64  2300  2301    1
    65  2300  2302    1
    66  2237  2247    1
    67  2280  2282    1
    68  2280  2281    1
    69  2292  2282    1
    70  2292  2286   ar
    71  2269  2270   ar
    72  2269  2268   ar
    73  2213  2212    1
    74  2304  2302    1
    75  2287  2286   ar
    76  2287  2288   ar
    77  2270  2264   ar
    78  2210  2212    1
    79  2210  2208    1
    80  2289  2288    1
    81  2286  2285   ar
    82  2302  2303    1
    83  2247  2246   ar
    84  2247  2241   ar
    85  2288  2283   ar
    86  2212  2214    1
    87  2268  2265   ar
    88  2246  2245   ar
    89  2208  2206    1
    90  2208  2209    1
    91  2264  2265   ar
    92  2264  2263   ar
    93  2206  2207    1
    94  2226  2205    2
    95  2241  2240   ar
    96  2241  2242   ar
    97  2265  2266   ar
    98  2240  2239   ar
    99  2263  2261   ar
   100  2285  2284   ar
   101  2283  2284   ar
   102  2207  2205    1
   103  2245  2242   ar
   104   235   213    1
   105  2214  2209    1
   106  2214  2225    1
   107  2242  2243   ar
   108  1786  1785    1
   109  2205  2227    1
   110  2205  2188    1
   111  2239  2238   ar
   112  2266  2267    2
   113  2266  2260   ar
   114  2261  2260   ar
   115  2261  2262    1
   116   213   234    1
   117   213   215    1
   118  1801  1803    1
   119  1801  1802    1
   120  2218  2219   ar
   121  2218  2216   ar
   122  2225  2219   ar
   123  2225  2224   ar
   124  2243  2238   ar
   125  2243  2244    1
   126  1803  1804    1
   127  1803  1805    1
   128  2217  2216    1
   129  1820  1800    2
   130   421   420    1
   131  2188  2187    1
   132   405   404    2
   133  2219  2220   ar
   134  1784  1783    1
   135  1784  1800    1
   136  2216  2215   ar
   137  1785  1787    1
   138  1785  1783    1
   139  1781  1782    1
   140  1781  1783    1
   141  1781  1779    1
   142  1804  1809    1
   143   416   417    1
   144   416   414    1
   145   416   418    1
   146  2224  2223   ar
   147   401   400    1
   148  1782  1787    1
   149  1806  1805    1
   150  1806  1822    1
   151  1808  1807    1
   152  1787  1797    1
   153   381   382   ar
   154   381   386   ar
   155   417   422    1
   156   215   214    1
   157  1289  1288    2
   158  1802  1800    1
   159  1800  1821    1
   160   419   418    1
   161   419   433    1
   162   414   415    1
   163  2190  2189    1
   164   451   433    2
   165  1840  1822    2
   166  1805  1807    1
   167   382   383   ar
   168  2220  2223   ar
   169  2220  2221   ar
   170  1309  1308    2
   171  2215  2221   ar
   172   420   422    1
   173   420   418    1
   174  1779  1780    1
   175   422   423    1
   176   387   386    1
   177   404   406   ar
   178   404   403   ar
   179  1809  1807    1
   180  1809  1819    1
   181   214   216    1
   182  2187  2189    1
   183  2187  2185    1
   184  1822  1841    1
   185  1822  1824    1
   186  1269  1268    2
   187  1790  1789   ar
   188  1790  1791   ar
   189  2189  2191    1
   190   400   402    1
   191   400   398    1
   192   386   385   ar
   193  2221  2222    2
   194  1288  1290   ar
   195  1288  1287   ar
   196   406   407   ar
   197  1290  1291   ar
   198  1270  1268   ar
   199  1270  1271   ar
   200   433   452    1
   201   433   435    1
   202  1308  1310   ar
   203  1308  1307   ar
   204   402   403    1
   205   402   397    1
   206  1797  1791   ar
   207  1797  1796   ar
   208  1305  1304    1
   209   254   236    2
   210  1306  1307    1
   211  1306  1301    1
   212  1306  1304    1
   213  1272  1271    1
   214  1789  1788   ar
   215  1310  1311   ar
   216  1268  1267   ar
   217   383   384   ar
   218   434   435    1
   219   434   436    1
   220   415   413    1
   221  1791  1792   ar
   222   403   410   ar
   223   431   413    2
   224  2185  2183    1
   225  2185  2186    1
   226  1307  1314   ar
   227  1292  1291    2
   228  1780  1778    1
   229  1301  1300    1
   230   423   424   ar
   231   423   430   ar
   232  1291  1293   ar
   233   425   424    2
   234  1287  1286    1
   235  1287  1294   ar
   236  1286  1284    1
   237  1286  1281    1
   238  1271  1273   ar
   239  1285  1284    1
   240  1819  1818   ar
   241  1819  1813   ar
   242   399   398    1
   243   399   413    1
   244  1325  1324    1
   245  2194  2193    1
   246   436   437    1
   247   436   438    1
   248   216   218    1
   249   216   217    1
   250  1321  1326    1
   251  1321  1320    1
   252  1326  1327    1
   253  1326  1324    1
   254  1329  1328    2
   255  2183  2184    1
   256   219   236    1
   257   219   218    1
   258   398   396    1
   259  1824  1823    1
   260  1304  1302    1
   261   437   442    1
   262   407   408    1
   263   407   409   ar
   264   385   384   ar
   265   385   388   ar
   266  1818  1817   ar
   267  2203  2182    2
   268  2184  2182    1
   269   413   432    1
   270  1311  1312    1
   271  1311  1313   ar
   272   397   396    1
   273  2191  2186    1
   274  2191  2202    1
   275  1823  1825    1
   276  2195  2193   ar
   277  2195  2196   ar
   278  1796  1795   ar
   279   384   390   ar
   280   236   255    1
   281   236   238    1
   282   424   426   ar
   283  1798  1778    2
   284  2193  2192   ar
   285   430   429   ar
   286  1284  1282    1
   287  1314  1313   ar
   288  1281  1280    1
   289   218   220    1
   290  1328  1327   ar
   291  1328  1330   ar
   292  1788  1793   ar
   293   396   394    1
   294  1327  1334   ar
   295  1300  1302    1
   296  1300  1298    1
   297  1294  1293   ar
   298  1267  1266    1
   299  1267  1274   ar
   300  1320  1318    1
   301  1320  1322    1
   302  1324  1322    1
   303   410   409   ar
   304  1792  1795   ar
   305  1792  1793   ar
   306  2196  2202   ar
   307  2196  2197   ar
   308  2202  2201   ar
   309  1778  1764    1
   310  1778  1799    1
   311   217   222    1
   312  1813  1812   ar
   313  1813  1814   ar
   314  1764  1763    1
   315  2182  2204    1
   316  2182  2166    1
   317  2192  2198   ar
   318  1812  1811   ar
   319   442   440    1
   320   442   443    1
   321  1273  1274   ar
   322  1330  1331   ar
   323   441   440    1
   324  1334  1333   ar
   325  1266  1264    1
   326  1266  1261    1
   327  1302  1303    1
   328   388   389   ar
   329  1817  1814   ar
   330   438   439    1
   331   438   440    1
   332  1766  1765    1
   333   439   453    1
   334  1793  1794    1
   335  1318  1319    1
   336  1825  1826    1
   337  1825  1827    1
   338  2197  2198   ar
   339  2197  2200   ar
   340  1826  1831    1
   341  2201  2200   ar
   342   426   427   ar
   343  1298  1299    1
   344  1280  1282    1
   345  1280  1278    1
   346   390   389   ar
   347   390   380    1
   348  2198  2199    2
   349   429   427   ar
   350  1322  1323    1
   351  1265  1264    1
   352   238   237    1
   353  1331  1333   ar
   354  1331  1332    1
   355  1341  1346    1
   356  1341  1340    1
   357  1282  1283    1
   358  1303  1317    1
   359  1814  1815   ar
   360  1839  1838   ar
   361  1839  1832   ar
   362  1264  1262    1
   363  1838  1836   ar
   364   220   222    1
   365   220   221    1
   366   237   239    1
   367   394   395    1
   368   232   233   ar
   369   232   231   ar
   370   450   443   ar
   371   450   449   ar
   372   443   444   ar
   373   222   233    1
   374  1261  1260    1
   375  1323  1337    1
   376   378   380    1
   377   378   379    1
   378   378   376    1
   379  1763  1761    1
   380  1763  1765    1
   381   427   428    1
   382  1346  1347    1
   383  1346  1344    1
   384  1811  1810   ar
   385  2166  2165    1
   386  1761  1759    1
   387  1761  1762    1
   388  1345  1344    1
   389   380   375    1
   390  1319  1317    1
   391   473   453    2
   392  1299  1297    1
   393  1340  1338    1
   394  1340  1342    1
   395  1765  1767    1
   396  1283  1297    1
   397  1759  1760    1
   398  1338  1339    1
   399  1349  1348    2
   400   233   227   ar
   401   453   474    1
   402   453   455    1
   403   395   393    1
   404  1827  1828    1
   405  1827  1829    1
   406  1278  1279    1
   407  1831  1832    1
   408  1831  1829    1
   409   231   228   ar
   410  1347  1348   ar
   411  1347  1354   ar
   412  1832  1833   ar
   413   449   447   ar
   414  1317  1335    2
   415  1317  1336    1
   416   360   359    1
   417   445   444    2
   418   444   446   ar
   419  2168  2167    1
   420  1815  1810   ar
   421  1815  1816    1
   422  1348  1350   ar
   423  1828  1842    1
   424  1344  1342    1
   425  1836  1837    1
   426  1836  1835   ar
   427  1861  1842    2
   428  1339  1337    1
   429  1762  1767    1
   430  1262  1260    1
   431  1262  1263    1
   432  1279  1277    1
   433  2165  2167    1
   434  2165  2163    1
   435  2167  2169    1
   436   376   377    1
   437   376   374    1
   438   239   241    1
   439   239   240    1
   440  1354  1353   ar
   441  1767  1768    1
   442  1260  1258    1
   443  1297  1316    2
   444  1297  1315    1
   445   242   241    1
   446   242   256    1
   447  1337  1355    2
   448  1337  1356    1
   449   455   454    1
   450  1860  1842    1
   451   375   374    1
   452  1342  1343    1
   453  1829  1830    1
   454   277   256    2
   455  1350  1351   ar
   456  1842  1844    1
   457   377   393    1
   458  1746  1745    1
   459   241   243    1
   460   447   446   ar
   461   447   448    1
   462  1760  1758    1
   463  1776  1758    2
   464  2171  2172   ar
   465  2171  2170   ar
   466   227   228   ar
   467   227   226   ar
   468   393   412    2
   469   393   411    1
   470  1353  1351   ar
   471  1833  1835   ar
   472  1833  1834    2
   473  2172  2173   ar
   474   228   229   ar
   475  1263  1277    1
   476  1351  1352    2
   477   252   253   ar
   478   252   250   ar
   479   359   358   ar
   480   359   361   ar
   481   256   278    1
   482   256   258    1
   483   253   246   ar
   484  1343  1357    1
   485  2170  2175   ar
   486   240   245    1
   487  1750  1749    2
   488   374   372    1
   489  1259  1258    1
   490  1259  1257    1
   491   358   364   ar
   492  1770  1769    2
   493  1277  1296    2
   494  1277  1295    1
   495  2163  2161    1
   496  2163  2164    1
   497   454   456    1
   498  1745  1743    1
   499  1745  1747    1
   500  2173  2179   ar
   501  2173  2174   ar
   502  1758  1744    1
   503  1758  1777    1
   504  2169  2179    1
   505  2169  2164    1
   506  1768  1769   ar
   507  1768  1775   ar
   508  1744  1743    1
   509   226   224   ar
   510  2175  2174   ar
   511  2175  2176    1
   512  2180  2160    2
   513  2179  2178   ar
   514   361   362   ar
   515   481   480    1
   516  2162  2161    1
   517  2162  2160    1
   518  2174  2177   ar
   519  1844  1843    1
   520  1769  1771   ar
   521   243   245    1
   522   243   244    1
   523   471   470   ar
   524   471   472   ar
   525   229   230    2
   526   229   223   ar
   527   246   245    1
   528   246   247   ar
   529  1749  1751   ar
   530  1749  1748   ar
   531   250   251    1
   532   250   249   ar
   533  1858  1859   ar
   534  1858  1856   ar
   535   470   467   ar
   536   457   456    1
   537   457   462    1
   538   372   373    1
   539  1743  1741    1
   540  1276  1257    2
   541  1257  1275    1
   542  1257  1241    1
   543   364   365    2
   544   364   363   ar
   545   258   257    1
   546   201   200    1
   547  2178  2177   ar
   548  2181  2160    1
   549  2160  2144    1
   550  1775  1774   ar
   551  1727  1726    1
   552  1747  1748    1
   553  1747  1742    1
   554   456   458    1
   555   342   341    2
   556  1357  1375    2
   557  1357  1376    1
   558  1357  1359    1
   559  1857  1856    1
   560  1843  1845    1
   561   209   210   ar
   562   209   207   ar
   563  1751  1752   ar
   564   210   203   ar
   565   480   478    1
   566   480   482    1
   567  1361  1366    1
   568  1361  1360    1
   569  1859  1852   ar
   570   373   371    1
   571   224   223   ar
   572   224   225    1
   573   478   476    1
   574   478   479    1
   575  1748  1755   ar
   576    84    63    2
   577   362   363   ar
   578   362   368   ar
   579  1856  1855   ar
   580   476   477    1
   581   200   202    1
   582   200   198    1
   583  1358  1359    1
   584  1358  1360    1
   585   472   462    1
   586   472   466   ar
   587  1771  1772   ar
   588   356   355    1
   589   249   247   ar
   590   363   366   ar
   591  1725  1726   ar
   592  1725  1731   ar
   593   257   259    1
   594   247   248    2
   595   462   460    1
   596  1366  1367    1
   597  1366  1364    1
   598  1741  1742    1
   599  1741  1739    1
   600   467   466   ar
   601   467   468   ar
   602  1360  1362    1
   603  1726  1728   ar
   604  1846  1845    1
   605  1846  1851    1
   606   274   275   ar
   607   274   271   ar
   608   335   341   ar
   609   335   336   ar
   610  1367  1374   ar
   611  1367  1368   ar
   612   341   340   ar
   613  1374  1373   ar
   614  1241  1240    1
   615  1877  1876    2
   616   355   357    1
   617   355   353    1
   618   469   468    1
   619   202   203    1
   620   202   197    1
   621  1752  1753    1
   622  1752  1754   ar
   623  1774  1772   ar
   624  1369  1368    2
   625   275   276   ar
   626  1368  1370   ar
   627   207   208    1
   628   207   206   ar
   629   203   204   ar
   630    61    43    2
   631  1373  1371   ar
   632  1845  1847    1
   633   458   460    1
   634   458   459    1
   635  1852  1851    1
   636  1852  1853   ar
   637  2144  2143    1
   638  1370  1371   ar
   639  1371  1372    2
   640   466   465   ar
   641  1732  1731    2
   642   477   475    1
   643   482   483    1
   644   482   484    1
   645   368   357    1
   646   368   367   ar
   647  1755  1754   ar
   648   468   463   ar
   649   301   279    2
   650   479   484    1
   651   199   198    1
   652  1855  1853   ar
   653   357   352    1
   654  1772  1773    2
   655  1731  1730   ar
   656   319   318    2
   657    63    49    1
   658    63    85    1
   659    63    65    1
   660  1881  1862    2
   661   198   196    1
   662   371   354    1
   663   371   392    2
   664   371   391    1
   665   273   272    2
   666   337   336    1
   667  1365  1364    1
   668   460   461    1
   669  1728  1729   ar
   670  1851  1849    1
   671   459   475    1
   672  1876  1878   ar
   673  1876  1875   ar
   674   354   353    1
   675    49    48    1
   676   260   259    1
   677   260   265    1
   678   366   367   ar
   679   336   338   ar
   680  1364  1362    1
   681   484   495    1
   682  1847  1848    1
   683  1847  1849    1
   684  1739  1740    1
   685   259   261    1
   686  1853  1854    2
   687   353   351    1
   688   271   272   ar
   689   271   270   ar
   690  1878  1879   ar
   691  1362  1363    1
   692   340   343   ar
   693   340   339   ar
   694  1240  1238    1
   695  1240  1242    1
   696  2143  2145    1
   697  2143  2141    1
   698   206   204   ar
   699  2154  2153    1
   700   204   205    2
   701   197   196    1
   702  1740  1738    1
   703   276   265    1
   704   276   270   ar
   705    44    45    1
   706    44    46    1
   707   272   266   ar
   708  2148  2153   ar
   709  2148  2149   ar
   710  2159  2138    2
   711  2145  2146    1
   712  2145  2147    1
   713   465   464   ar
   714  2153  2152   ar
   715    43    29    1
   716    43    45    1
   717    43    62    1
   718   475   497    2
   719   475   496    1
   720  1238  1239    1
   721  1238  1236    1
   722  2158  2138    1
   723   463   464   ar
   724   343   344   ar
   725   279   300    1
   726   279   262    1
   727   279   281    1
   728   196   194    1
   729  1243  1242    1
   730  1730  1729   ar
   731  1730  1733   ar
   732    65    64    1
   733   261   262    1
   734   261   263    1
   735  1848  1862    1
   736  2149  2150   ar
   737  1729  1735   ar
   738  1940  1939    1
   739   318   312   ar
   740   318   317   ar
   741  1849  1850    1
   742  1919  1918    2
   743  1862  1880    1
   744  1862  1864    1
   745   296   295    2
   746  2152  2155   ar
   747  2152  2151   ar
   748    29    28    1
   749   352   351    1
   750   265   263    1
   751  1875  1873   ar
   752  1363  1377    1
   753   270   269   ar
   754  1897  1896    1
   755  2150  2151   ar
   756  2155  2156   ar
   757    46    48    1
   758    46    47    1
   759    48    50    1
   760  2151  2157   ar
   761  1242  1244    1
   762  2138  2140    1
   763  2138  2121    1
   764   338   339   ar
   765   339   345   ar
   766   297   298   ar
   767   297   294   ar
   768   351   349    1
   769  1247  1246   ar
   770  1247  1248   ar
   771  1879  1872   ar
   772  1244  1239    1
   773  1244  1254    1
   774  2140  2139    1
   775  1938  1939   ar
   776  1938  1936   ar
   777   312   313   ar
   778   104    86    2
   779  1236  1237    1
   780  2156  2157   ar
   781   495   494   ar
   782   495   489   ar
   783   191   171    2
   784  1246  1245   ar
   785  2157  2147    1
   786    31    30    1
   787   157   156    1
   788  1912  1918   ar
   789  1912  1913   ar
   790  2141  2139    1
   791  2141  2142    1
   792    64    66    1
   793  1939  1941   ar
   794   320   317   ar
   795   320   321   ar
   796   263   264    1
   797  1255  1235    2
   798  1937  1936    2
   799   266   267   ar
   800  1733  1734   ar
   801  2147  2142    1
   802   317   316   ar
   803  1918  1917   ar
   804   155   171    1
   805   155   154    1
   806  1738  1757    2
   807  1738  1756    1
   808  1738  1721    1
   809   281   280    1
   810  1722  1723    1
   811  1722  1724    1
   812  1722  1720    1
   813   344   345   ar
   814   295   294   ar
   815   295   289   ar
   816   298   299   ar
   817    51    50    1
   818  1735  1734   ar
   819  1735  1724    1
   820   488   489   ar
   821   488   486   ar
   822   294   293   ar
   823   152   150    1
   824   152   153    1
   825   152   154    1
   826  1864  1863    1
   827   194   195    1
   828  1914  1913    1
   829  1936  1935   ar
   830  1873  1872   ar
   831  1873  1874    2
   832   105    86    1
   833   494   493   ar
   834    28    30    1
   835    28    26    1
   836    50    52    1
   837   345   334    1
   838  1872  1871    1
   839   489   490   ar
   840  1896  1898   ar
   841  1896  1895   ar
   842   324   302    2
   843  1248  1254   ar
   844  1248  1249   ar
   845   269   267   ar
   846    86    69    1
   847    86    88    1
   848  1254  1253   ar
   849  2103  2102    1
   850  1256  1235    1
   851    47    52    1
   852    69    68    1
   853   150   151    1
   854   171   192    1
   855   171   173    1
   856  1724  1719    1
   857    30    32    1
   858  1237  1235    1
   859   350   349    1
   860   350   348    1
   861  1377  1396    2
   862  1377  1395    1
   863  1377  1379    1
   864  1913  1915   ar
   865  1381  1386    1
   866  1381  1380    1
   867   313   314    1
   868   313   315   ar
   869   153   158    1
   870  2137  2115    2
   871  2121  2120    1
   872   154   156    1
   873    26    24    1
   874    26    27    1
   875  1235  1221    1
   876  1245  1250   ar
   877   267   268    1
   878    66    68    1
   879    66    67    1
   880  1721  1720    1
   881  1720  1718    1
   882   156   158    1
   883  1898  1899   ar
   884   195   193    1
   885   172   173    1
   886   172   174    1
   887  1392  1391    1
   888   487   486    1
   889  1393  1391   ar
   890  1393  1394   ar
   891  1378  1379    1
   892  1378  1380    1
   893   321   322   ar
   894    24    25    1
   895  1391  1390   ar
   896  1394  1387   ar
   897   486   485   ar
   898  2117  2115    1
   899  2117  2116    1
   900  2111  2112   ar
   901  2111  2109   ar
   902   316   315   ar
   903   316   322   ar
   904  1895  1893   ar
   905   289   290   ar
   906  1234  1215    2
   907  1941  1942   ar
   908   158   168    1
   909   280   282    1
   910  1863  1865    1
   911  1917  1920   ar
   912  1917  1916   ar
   913  2112  2105   ar
   914   299   293   ar
   915   299   288    1
   916  1390  1388   ar
   917    52    53    1
   918    68    70    1
   919  1387  1388   ar
   920  1387  1386    1
   921  1866  1871    1
   922  1866  1865    1
   923   293   292   ar
   924  2120  2122    1
   925  2120  2118    1
   926  1736  1715    2
   927  1388  1389    2
   928  1386  1384    1
   929  1380  1382    1
   930  2132  2131    2
   931  1233  1215    1
   932   493   490   ar
   933  1213  1195    2
   934  1935  1942   ar
   935  1935  1934    1
   936   347   325    2
   937  2101  2115    1
   938  2101  2100    1
   939   490   491   ar
   940    41    23    2
   941  1871  1869    1
   942   332   334    1
   943   332   330    1
   944   332   333    1
   945   370   348    2
   946   334   329    1
   947  2115  2136    1
   948  1249  1250   ar
   949  1249  1252   ar
   950   302   323    1
   951   302   304    1
   952   302   285    1
   953  1253  1252   ar
   954   124   106    2
   955  1250  1251    1
   956    88    87    1
   957  1920  1921   ar
   958   322   311    1
   959    27    32    1
   960    32    33    1
   961  1915  1916   ar
   962  2102  2104    1
   963  2102  2100    1
   964    67    72    1
   965  2131  2130   ar
   966  2131  2125   ar
   967  1193  1172    2
   968   283   282    1
   969   283   288    1
   970  1719  1718    1
   971   348   369    1
   972   348   331    1
   973   151   149    1
   974   174   175    1
   975   174   176    1
   976  2133  2130   ar
   977  2133  2134   ar
   978  2116  2118    1
   979   170   149    2
   980  1865  1867    1
   981  1215  1217    1
   982  1215  1201    1
   983  1901  1882    2
   984  1170  1149    2
   985  1916  1922   ar
   986    25    23    1
   987   284   282    1
   988   284   285    1
   989   284   286    1
   990  2130  2129   ar
   991  1899  1892   ar
   992   330   331    1
   993   330   328    1
   994  2122  2123    1
   995  2122  2124    1
   996  1718  1716    1
   997  1867  1869    1
   998  1867  1868    1
   999  2110  2109    1
  1000  1221  1220    1
  1001  2125  2126   ar
  1002   125   106    1
  1003    87    89    1
  1004    60    53   ar
  1005    60    59   ar
  1006  2109  2108   ar
  1007  2134  2135   ar
  1008    53    54   ar
  1009   304   303    1
  1010   290   292   ar
  1011   290   291    1
  1012   288   286    1
  1013   485   491   ar
  1014  2104  2105    1
  1015  2104  2099    1
  1016  1214  1195    1
  1017  2105  2106   ar
  1018  1893  1892   ar
  1019  1893  1894    2
  1020  1934  1932    1
  1021  1934  1929    1
  1022  1217  1216    1
  1023  1230  1229    2
  1024  2118  2119    1
  1025   143   142    2
  1026  1933  1932    1
  1027  2100  2098    1
  1028   169   149    1
  1029   193   177    1
  1030   193   212    2
  1031   193   211    1
  1032   327   325    1
  1033   327   326    1
  1034  1715  1737    1
  1035  1715  1717    1
  1036  1715  1699    1
  1037  1869  1870    1
  1038   175   180    1
  1039   168   167   ar
  1040   168   162   ar
  1041   329   328    1
  1042   149   132    1
  1043  2129  2135   ar
  1044  2129  2128   ar
  1045  1932  1930    1
  1046  1231  1229   ar
  1047  1231  1232   ar
  1048  1195  1197    1
  1049  1195  1178    1
  1050  1717  1716    1
  1051    71    70    1
  1052  2087  2086    2
  1053  2126  2127    1
  1054  2126  2128   ar
  1055    70    72    1
  1056  1220  1222    1
  1057  1220  1218    1
  1058  2135  2124    1
  1059    23    42    1
  1060    23     7    1
  1061   106    92    1
  1062   106   108    1
  1063   491   492    2
  1064  1194  1172    1
  1065   177   176    1
  1066  1229  1228   ar
  1067   325   346    1
  1068   325   308    1
  1069    35    34    2
  1070  1382  1384    1
  1071  1382  1383    1
  1072  1384  1385    1
  1073   148   126    2
  1074   286   287    1
  1075  1892  1891    1
  1076  1172  1155    1
  1077  1172  1174    1
  1078    33    34   ar
  1079    33    40   ar
  1080    82    83   ar
  1081    82    81   ar
  1082   161   162   ar
  1083   161   160   ar
  1084    72    83    1
  1085  1921  1922   ar
  1086   176   178    1
  1087  1232  1225   ar
  1088  2124  2119    1
  1089  1216  1218    1
  1090  1868  1882    1
  1091   328   326    1
  1092    59    57   ar
  1093  2083  2082    1
  1094   311   309    1
  1095   311   306    1
  1096  1922  1911    1
  1097  1149  1171    1
  1098  1149  1132    1
  1099  1149  1151    1
  1100   167   166   ar
  1101   307   309    1
  1102   307   308    1
  1103   307   305    1
  1104   142   141   ar
  1105   142   136   ar
  1106  1882  1900    1
  1107  1882  1884    1
  1108  1197  1196    1
  1109   162   163   ar
  1110    54    55    2
  1111    54    56   ar
  1112    92    91    1
  1113   144   141   ar
  1114   144   145   ar
  1115  1201  1200    1
  1116  2108  2106   ar
  1117    34    36   ar
  1118  1222  1223    1
  1119  1222  1224    1
  1120  2106  2107    2
  1121   309   310    1
  1122  1228  1226   ar
  1123     9     8    1
  1124   631   610    2
  1125    89    91    1
  1126    89    90    1
  1127    83    77   ar
  1128  2099  2098    1
  1129   306   305    1
  1130     7     6    1
  1131  1929  1928    1
  1132   303   305    1
  1133  1218  1219    1
  1134  1178  1177    1
  1135    40    39   ar
  1136   147   126    1
  1137    81    78   ar
  1138  2098  2096    1
  1139   141   140   ar
  1140  1155  1154    1
  1141  1225  1226   ar
  1142  1225  1224    1
  1143  1414  1413    2
  1144  1196  1198    1
  1145  1383  1397    1
  1146  2086  2088   ar
  1147  2086  2085   ar
  1148  1699  1698    1
  1149   180   178    1
  1150   180   190    1
  1151    91    93    1
  1152   126   128    1
  1153   126   112    1
  1154   136   137   ar
  1155   108   107    1
  1156  1200  1198    1
  1157  1200  1202    1
  1158  1930  1931    1
  1159  1930  1928    1
  1160  1226  1227    2
  1161  1132  1131    1
  1162  1174  1173    1
  1163   160   159   ar
  1164   145   146   ar
  1165   132   131    1
  1166  2088  2089   ar
  1167  1147  1126    2
  1168  1150  1151    1
  1169  1150  1152    1
  1170  1415  1412   ar
  1171  1415  1416   ar
  1172   178   179    1
  1173     8     6    1
  1174     8    10    1
  1175   128   127    1
  1176  1413  1412   ar
  1177  1413  1407   ar
  1178  2082  2084    1
  1179  2082  2080    1
  1180    57    56   ar
  1181    57    58    1
  1182  1173  1175    1
  1183  1891  1886    1
  1184  1891  1889    1
  1185  1224  1219    1
  1186   608   590    2
  1187  1884  1883    1
  1188  2084  2085    1
  1189  2084  2079    1
  1190  1412  1411   ar
  1191   653   633    2
  1192    90    95    1
  1193   166   163   ar
  1194   189   190   ar
  1195   189   188   ar
  1196    36    37   ar
  1197  1886  1885    1
  1198    12    13   ar
  1199    12    11   ar
  1200   163   164   ar
  1201  1416  1417   ar
  1202  1911  1909    1
  1203  1911  1906    1
  1204   131   133    1
  1205   131   129    1
  1206  1177  1175    1
  1207  1177  1179    1
  1208   654   633    1
  1209   632   610    1
  1210  1931  1945    1
  1211    13    14   ar
  1212   103   102   ar
  1213   103    96   ar
  1214     6     4    1
  1215  1407  1408   ar
  1216  1198  1199    1
  1217  1928  1926    1
  1218   190   184   ar
  1219  1883  1885    1
  1220  1211  1212   ar
  1221  1211  1209   ar
  1222   102   100   ar
  1223   610   596    1
  1224   610   612    1
  1225   107   109    1
  1226  1924  1902    2
  1227   140   146   ar
  1228   140   139   ar
  1229    39    37   ar
  1230  2067  2066    2
  1231  1154  1152    1
  1232  1154  1156    1
  1233    77    78   ar
  1234    77    76   ar
  1235  2085  2092   ar
  1236    78    79   ar
  1237  1212  1205   ar
  1238   137   139   ar
  1239   137   138    1
  1240  1698  1696    1
  1241  1698  1700    1
  1242   146   135    1
  1243  1411  1417   ar
  1244  1411  1410   ar
  1245  1696  1694    1
  1246  1696  1697    1
  1247  2096  2097    1
  1248  1417  1406    1
  1249  1152  1153    1
  1250  1909  1907    1
  1251  1909  1910    1
  1252  1202  1203    1
  1253  1202  1204    1
  1254  2068  2066   ar
  1255  2068  2069   ar
  1256  1175  1176    1
  1257  1965  1945    2
  1258    11    16   ar
  1259  1127  1129    1
  1260  1127  1128    1
  1261  1210  1209    2
  1262   133   135    1
  1263   133   134    1
  1264  1408  1410   ar
  1265  1408  1409    1
  1266   112   111    1
  1267  1419  1397    2
  1268    37    38    2
  1269  1889  1887    1
  1270  1889  1890    1
  1271   159   164   ar
  1272  1887  1885    1
  1273  1887  1888    1
  1274  1397  1399    1
  1275  1397  1418    1
  1276  1966  1945    1
  1277   127   129    1
  1278   633   635    1
  1279   633   616    1
  1280  1209  1208   ar
  1281   596   595    1
  1282    93    95    1
  1283    93    94    1
  1284  1401  1406    1
  1285  1401  1400    1
  1286  1131  1129    1
  1287  1131  1133    1
  1288  2070  2069    2
  1289  2089  2090    1
  1290  2089  2091   ar
  1291   188   185   ar
  1292  2079  2078    1
  1293   122   123   ar
  1294   122   120   ar
  1295  1906  1905    1
  1296   634   635    1
  1297   634   636    1
  1298  1694  1695    1
  1299  1945  1947    1
  1300   164   165    1
  1301  1126  1128    1
  1302  1126  1148    1
  1303  1126  1110    1
  1304   111   109    1
  1305   111   113    1
  1306  2066  2065   ar
  1307    95    96    1
  1308  1406  1404    1
  1309    10    20    1
  1310    10     5    1
  1311  2080  2081    1
  1312  2080  2078    1
  1313  2081  2095    1
  1314    14    20   ar
  1315    14    15   ar
  1316  1927  1926    1
  1317  1927  1925    1
  1318    96    97   ar
  1319  2044  2043    1
  1320   129   130    1
  1321  1129  1130    1
  1322  1205  1204    1
  1323  1205  1206   ar
  1324    76    74   ar
  1325  1199  1204    1
  1326   591   592    1
  1327   591   593    1
  1328   123   116   ar
  1329   590   573    1
  1330   590   592    1
  1331   590   609    1
  1332  2078  2076    1
  1333   184   185   ar
  1334   184   183   ar
  1335     4     5    1
  1336     4     2    1
  1337   612   611    1
  1338   100   101    1
  1339   100    99   ar
  1340  2069  2071   ar
  1341  1697  1702    1
  1342  1179  1180    1
  1343  1179  1181    1
  1344   109   110    1
  1345  1399  1398    1
  1346  1907  1905    1
  1347  1907  1908    1
  1348   135   130    1
  1349    79    80    2
  1350    79    73   ar
  1351  1904  1902    1
  1352  1904  1903    1
  1353   121   120    2
  1354  2113  2095    2
  1355  1944  1925    2
  1356   573   572    1
  1357  1902  1888    1
  1358  1902  1923    1
  1359    20    19   ar
  1360  2097  2095    1
  1361  1208  1206   ar
  1362  2092  2091   ar
  1363  1701  1700    1
  1364  1156  1157    1
  1365  1156  1158    1
  1366    16    15   ar
  1367    16    17    1
  1368   588   567    2
  1369  1695  1693    1
  1370  1191  1190   ar
  1371  1191  1192   ar
  1372  1134  1133    1
  1373   611   613    1
  1374   120   119   ar
  1375  1700  1702    1
  1376   185   186   ar
  1377  1702  1712    1
  1378  1206  1207    2
  1379  1176  1181    1
  1380  1153  1158    1
  1381   636   637    1
  1382   636   638    1
  1383  1190  1187   ar
  1384   183   182   ar
  1385    15    18   ar
  1386  1110  1109    1
  1387  1133  1135    1
  1388   616   615    1
  1389   593   595    1
  1390   593   594    1
  1391  1398  1400    1
  1392  1905  1903    1
  1393  2095  2114    1
  1394   595   597    1
  1395  1400  1402    1
  1396   637   642    1
  1397  1925  1908    1
  1398  1925  1943    1
  1399   110   115    1
  1400  1436  1435    1
  1401    74    73   ar
  1402    74    75    1
  1403    97    99   ar
  1404    97    98    2
  1405   113   115    1
  1406   113   114    1
  1407  2043  2042   ar
  1408  2043  2045   ar
  1409  2042  2048   ar
  1410  1192  1181    1
  1411  1192  1186   ar
  1412  2065  2064    1
  1413  2065  2072   ar
  1414     2     3    1
  1415   116   115    1
  1416   116   117   ar
  1417  1713  1693    2
  1418   568   570    1
  1419   568   569    1
  1420  1430  1435   ar
  1421  1430  1431   ar
  1422  1947  1946    1
  1423  1705  1704   ar
  1424  1705  1706   ar
  1425  1404  1405    1
  1426  1404  1402    1
  1427  1168  1169   ar
  1428  1168  1167   ar
  1429  1158  1169    1
  1430    19    18   ar
  1431  1435  1434   ar
  1432  1130  1135    1
  1433  2071  2072   ar
  1434  2063  2062    1
  1435  1187  1186   ar
  1436  1187  1188   ar
  1437  2076  2077    1
  1438   615   613    1
  1439   615   617    1
  1440   119   117   ar
  1441   598   597    1
  1442   570   572    1
  1443   570   571    1
  1444   572   574    1
  1445  2064  2062    1
  1446  2064  2059    1
  1447  1169  1163   ar
  1448   613   614    1
  1449   186   187    1
  1450   186   181   ar
  1451  1431  1432   ar
  1452  1693  1679    1
  1453  1693  1714    1
  1454  2062  2060    1
  1455  1112  1111    1
  1456  1186  1185   ar
  1457  1167  1164   ar
  1458  1962  1963   ar
  1459  1962  1959   ar
  1460   182   181   ar
  1461   575   574    1
  1462   567   569    1
  1463   567   550    1
  1464   567   589    1
  1465  1704  1703   ar
  1466  1681  1680    1
  1467  1983  1982    1
  1468  1402  1403    1
  1469  1712  1706   ar
  1470  1712  1711   ar
  1471  1135  1146    1
  1472  1946  1948    1
  1473  1189  1188    2
  1474   117   118    2
  1475   597   599    1
  1476  1963  1964   ar
  1477  1679  1678    1
  1478  2049  2048    2
  1479  1434  1437   ar
  1480  1434  1433   ar
  1481   638   639    1
  1482   638   640    1
  1483  1188  1182   ar
  1484  2045  2046   ar
  1485  1109  1111    1
  1486  1109  1107    1
  1487   639   655    1
  1488   594   599    1
  1489  2048  2047   ar
  1490   651   652   ar
  1491   651   650   ar
  1492  1706  1707   ar
  1493   550   549    1
  1494   642   652    1
  1495   642   640    1
  1496  1432  1433   ar
  1497  1111  1113    1
  1498  1437  1438   ar
  1499  1163  1164   ar
  1500  1163  1162   ar
  1501     3     1    1
  1502  2077  2075    1
  1503  1164  1165   ar
  1504  1185  1183   ar
  1505  1433  1439   ar
  1506  1961  1960    1
  1507   574   576    1
  1508  1146  1145   ar
  1509  1146  1140   ar
  1510  1145  1144   ar
  1511  1949  1948    1
  1512  1949  1954    1
  1513  2006  2005    2
  1514  1182  1183   ar
  1515   652   646   ar
  1516   614   619    1
  1517   650   647   ar
  1518   629   628   ar
  1519   629   630   ar
  1520  1959  1960   ar
  1521  1959  1958   ar
  1522  1162  1160   ar
  1523   676   655    2
  1524  1438  1439   ar
  1525   599   600    1
  1526  2059  2058    1
  1527   675   655    1
  1528  1982  1977   ar
  1529  1982  1981   ar
  1530  1183  1184    1
  1531   640   641    1
  1532   617   618    1
  1533   617   619    1
  1534  1439  1429    1
  1535   571   576    1
  1536  1107  1105    1
  1537  1107  1108    1
  1538  2046  2047   ar
  1539  2046  2052   ar
  1540   655   657    1
  1541  1165  1166    2
  1542  1165  1159   ar
  1543  1948  1950    1
  1544  1680  1678    1
  1545  1680  1682    1
  1546  1711  1710   ar
  1547  1964  1954    1
  1548  1964  1958   ar
  1549  1703  1708   ar
  1550  2027  2026    1
  1551    22     1    1
  1552  2060  2061    1
  1553  2060  2058    1
  1554  1403  1420    1
  1555  2047  2050   ar
  1556  1960  1955   ar
  1557   552   551    1
  1558  1678  1676    1
  1559  1140  1139   ar
  1560  1140  1141   ar
  1561  1144  1141   ar
  1562   628   625   ar
  1563  1977  1978   ar
  1564  1124  1104    2
  1565  1105  1106    1
  1566  1999  2005   ar
  1567  1999  2000   ar
  1568  1139  1137   ar
  1569  1160  1159   ar
  1570  1160  1161    1
  1571  1707  1708   ar
  1572  1707  1710   ar
  1573   607   600   ar
  1574   607   606   ar
  1575  1424  1429    1
  1576  1424  1423    1
  1577  1429  1427    1
  1578   576   587    1
  1579   549   547    1
  1580   549   551    1
  1581     1    21    1
  1582  2005  2004   ar
  1583  1984  1981   ar
  1584  1984  1985   ar
  1585   619   630    1
  1586  1954  1952    1
  1587  2061  2075    1
  1588  1141  1142   ar
  1589  1958  1957   ar
  1590  1981  1980   ar
  1591   545   547    1
  1592   545   546    1
  1593  2025  2026   ar
  1594  2025  2023   ar
  1595   630   624   ar
  1596   547   548    1
  1597  1441  1420    2
  1598  1113  1108    1
  1599  1113  1123    1
  1600  2075  2093    2
  1601  2075  2094    1
  1602  1457  1456    1
  1603   600   601   ar
  1604  1676  1677    1
  1605  1676  1674    1
  1606  2058  2056    1
  1607   565   544    2
  1608  1106  1104    1
  1609   646   647   ar
  1610   646   645   ar
  1611   647   648   ar
  1612  2001  2000    1
  1613  1708  1709    1
  1614  2026  2028   ar
  1615   551   553    1
  1616  1137  1138    1
  1617  1137  1136   ar
  1618  1455  1456   ar
  1619  1455  1453   ar
  1620  2052  2041    1
  1621  2052  2051   ar
  1622  1950  1952    1
  1623  1950  1951    1
  1624  1682  1677    1
  1625  1682  1683    1
  1626  1116  1115   ar
  1627  1116  1117   ar
  1628  1955  1956   ar
  1629  2000  2002   ar
  1630  2024  2023    2
  1631  1978  1979   ar
  1632  1104  1125    1
  1633  1104  1090    1
  1634   606   604   ar
  1635  1420  1422    1
  1636  1420  1440    1
  1637  1142  1136   ar
  1638  1142  1143    2
  1639  1456  1458   ar
  1640  2050  2051   ar
  1641  1123  1117   ar
  1642  1123  1122   ar
  1643   625   624   ar
  1644   625   626   ar
  1645   657   656    1
  1646  1454  1453    2
  1647  2041  2036    1
  1648  2041  2039    1
  1649  1988  1967    2
  1650  1115  1114   ar
  1651  2023  2022   ar
  1652  1985  1986   ar
  1653  1117  1118   ar
  1654  1453  1452   ar
  1655  1674  1675    1
  1656   587   586   ar
  1657   587   581   ar
  1658  1980  1979   ar
  1659  1980  1986   ar
  1660  2004  2007   ar
  1661  2004  2003   ar
  1662  1957  1956   ar
  1663  2040  2039    1
  1664   624   623   ar
  1665  1952  1953    1
  1666  1422  1421    1
  1667  1423  1421    1
  1668  1423  1425    1
  1669   645   644   ar
  1670   546   544    1
  1671  1427  1428    1
  1672  1427  1425    1
  1673   601   602    2
  1674   601   603   ar
  1675  1122  1121   ar
  1676   656   658    1
  1677   648   649    1
  1678   648   643   ar
  1679  1951  1967    1
  1680  2057  2056    1
  1681  2057  2055    1
  1682   548   553    1
  1683   544   527    1
  1684   544   566    1
  1685   586   585   ar
  1686   529   528    1
  1687  1458  1459   ar
  1688  1477  1476    1
  1689  1114  1119   ar
  1690  1475  1473   ar
  1691  1475  1476   ar
  1692  2036  2035    1
  1693   672   673   ar
  1694   672   669   ar
  1695  2028  2029   ar
  1696  2007  2008   ar
  1697  1474  1473    2
  1698  1118  1121   ar
  1699  1118  1119   ar
  1700   553   564    1
  1701  1986  1976    1
  1702   527   526    1
  1703   627   626    2
  1704  2038  2055    1
  1705  2038  2037    1
  1706  2002  2003   ar
  1707   626   620   ar
  1708  2039  2037    1
  1709  1683  1690   ar
  1710  1683  1684   ar
  1711  1452  1459   ar
  1712  1452  1451    1
  1713   673   674   ar
  1714   580   581   ar
  1715   580   578   ar
  1716  2003  2009   ar
  1717   604   603   ar
  1718   604   605    1
  1719  1119  1120    1
  1720  1675  1673    1
  1721   581   582   ar
  1722  1090  1089    1
  1723  1494  1493    2
  1724  1425  1426    1
  1725  1967  1969    1
  1726  1967  1987    1
  1727  1473  1472   ar
  1728  1476  1478   ar
  1729   671   670    1
  1730  1685  1684    2
  1731  2022  2029   ar
  1732  2022  2021    1
  1733   644   643   ar
  1734   623   621   ar
  1735  2074  2055    2
  1736  1692  1673    2
  1737  1495  1493   ar
  1738  1495  1496   ar
  1739  1690  1689   ar
  1740  2055  2073    1
  1741   659   658    1
  1742   659   664    1
  1743  1451  1446    1
  1744  1451  1449    1
  1745  2037  2035    1
  1746  1684  1686   ar
  1747   669   670   ar
  1748   669   668   ar
  1749  2035  2033    1
  1750  1493  1492   ar
  1751   585   582   ar
  1752   528   526    1
  1753   528   530    1
  1754  1969  1968    1
  1755   658   660    1
  1756  2008  2009   ar
  1757  1497  1496    1
  1758   670   665   ar
  1759  1976  1971    1
  1760  1976  1974    1
  1761   526   524    1
  1762  1446  1445    1
  1763   564   558   ar
  1764   564   563   ar
  1765   578   579    1
  1766   578   577   ar
  1767   582   583   ar
  1768   557   558   ar
  1769   557   555   ar
  1770   620   621   ar
  1771  1971  1970    1
  1772  2009  1998    1
  1773   674   668   ar
  1774   674   664    1
  1775  1673  1691    1
  1776  1673  1659    1
  1777   685   684    1
  1778  1496  1498   ar
  1779  1472  1479   ar
  1780  1472  1471    1
  1781  1514  1513    1
  1782  1478  1479   ar
  1783  2021  2019    1
  1784  2021  2016    1
  1785   621   622    1
  1786  1618  1617    1
  1787  1089  1091    1
  1788  1089  1087    1
  1789   556   555    1
  1790  1426  1442    1
  1791   558   559   ar
  1792   686   681    1
  1793   686   684    1
  1794   686   687    1
  1795   689   688    2
  1796  1092  1091    1
  1797   668   667   ar
  1798   524   522    1
  1799   524   525    1
  1800  1689  1687   ar
  1801   664   662    1
  1802   681   680    1
  1803  1541  1540    1
  1804  1492  1491    1
  1805  1492  1499   ar
  1806  1471  1466    1
  1807  1471  1469    1
  1808  2019  2020    1
  1809  2019  2017    1
  1810  1686  1687   ar
  1811   555   554   ar
  1812   563   562   ar
  1813   660   661    1
  1814   660   662    1
  1815  1091  1093    1
  1816  1449  1450    1
  1817  1449  1447    1
  1818   533   532    1
  1819  1491  1486    1
  1820  1491  1489    1
  1821  1513  1515   ar
  1822  1513  1512   ar
  1823  1968  1970    1
  1824   530   525    1
  1825   530   541    1
  1826  2033  2034    1
  1827   665   666   ar
  1828   577   583   ar
  1829  1461  1442    2
  1830  1559  1558    1
  1831  1515  1516   ar
  1832  1498  1499   ar
  1833   583   584    2
  1834   684   682    1
  1835  1998  1993    1
  1836  1998  1996    1
  1837   688   687   ar
  1838   688   690   ar
  1839  1974  1972    1
  1840  1974  1975    1
  1841  1970  1972    1
  1842   534   532   ar
  1843   534   535   ar
  1844  1622  1621    2
  1845  1659  1658    1
  1846  2034  2032    1
  1847   510   509    1
  1848   687   694   ar
  1849  1687  1688    1
  1850   680   682    1
  1851   680   678    1
  1852   522   523    1
  1853  1445  1447    1
  1854  1445  1443    1
  1855  2016  2015    1
  1856  1619  1614    1
  1857  1619  1617    1
  1858  1619  1620    1
  1859  1102  1084    2
  1860  1486  1485    1
  1861  1466  1465    1
  1862  1087  1085    1
  1863  1087  1088    1
  1864  1512  1518   ar
  1865  1602  1601    2
  1866  1535  1540   ar
  1867  1535  1536   ar
  1868  1972  1973    1
  1869  1540  1539   ar
  1870  1444  1442    1
  1871  1444  1443    1
  1872  1614  1613    1
  1873  1442  1460    1
  1874  1470  1469    1
  1875  1617  1615    1
  1876  1469  1467    1
  1877   661   677    1
  1878   532   531   ar
  1879  1557  1558   ar
  1880  1557  1563   ar
  1881   667   666   ar
  1882   662   663    1
  1883  1085  1086    1
  1884   679   678    1
  1885   679   677    1
  1886  1510  1509    1
  1887   559   562   ar
  1888   559   560   ar
  1889  1086  1084    1
  1890  1598  1597    1
  1891  1490  1489    1
  1892  1613  1615    1
  1893  1613  1611    1
  1894  1511  1506    1
  1895  1511  1522    1
  1896  1511  1509    1
  1897  1516  1522   ar
  1898  1516  1517   ar
  1899  1558  1560   ar
  1900  1447  1448    1
  1901  1993  1992    1
  1902  2017  2015    1
  1903  2017  2018    1
  1904   690   691   ar
  1905  1489  1487    1
  1906   554   560   ar
  1907  1564  1563    2
  1908  1616  1615    1
  1909  1616  1630    1
  1910   694   693   ar
  1911  2011  1989    2
  1912   682   683    1
  1913   541   535   ar
  1914   541   540   ar
  1915  1506  1505    1
  1916   695   677    2
  1917  1582  1581    2
  1918   535   536   ar
  1919  1671  1653    2
  1920  1996  1997    1
  1921  1996  1994    1
  1922  1621  1620   ar
  1923  1621  1623   ar
  1924  1522  1521   ar
  1925  1655  1654    1
  1926  1655  1653    1
  1927  1656  1658    1
  1928  1656  1657    1
  1929  1656  1654    1
  1930  1084  1103    1
  1931  1084  1067    1
  1932  1518  1517   ar
  1933  1518  1519    2
  1934  1093  1088    1
  1935  1093  1094    1
  1936   683   697    1
  1937  1620  1627   ar
  1938  1563  1562   ar
  1939   677   696    1
  1940   509   508   ar
  1941   509   511   ar
  1942  1658  1660    1
  1943  1536  1537   ar
  1944   560   561    2
  1945  1509  1507    1
  1946  1517  1520   ar
  1947  1539  1542   ar
  1948  1539  1538   ar
  1949  2015  2013    1
  1950  1096  1095    2
  1951   523   521    1
  1952  1611  1612    1
  1953  1601  1603   ar
  1954  1601  1600   ar
  1955   701   700    1
  1956   701   706    1
  1957  2032  2054    2
  1958  2032  2018    1
  1959  2032  2053    1
  1960   691   693   ar
  1961   691   692    2
  1962   508   514   ar
  1963   531   537   ar
  1964  1599  1597    1
  1965  1599  1600    1
  1966  1599  1594    1
  1967  1485  1487    1
  1968  1485  1483    1
  1969  1632  1630    1
  1970  1632  1631    1
  1971  1094  1095   ar
  1972  1094  1101   ar
  1973  1597  1595    1
  1974  1542  1543   ar
  1975  1095  1097   ar
  1976  1465  1467    1
  1977  1465  1463    1
  1978  1657  1662    1
  1979  1973  1989    1
  1980  1651  1630    2
  1981   542   521    2
  1982  1467  1468    1
  1983  1991  1989    1
  1984  1991  1990    1
  1985  1560  1561   ar
  1986   698   700    1
  1987   698   699    1
  1988  1623  1624   ar
  1989  1521  1520   ar
  1990  1653  1636    1
  1991  1653  1672    1
  1992   511   512   ar
  1993  1583  1581   ar
  1994  1583  1584   ar
  1995  1581  1580   ar
  1996  1603  1604   ar
  1997  1505  1507    1
  1998  1505  1503    1
  1999  1989  2010    1
  2000  1630  1652    1
  2001  1101  1100   ar
  2002   540   539   ar
  2003  1994  1992    1
  2004  1994  1995    1
  2005   700   702    1
  2006  1448  1462    1
  2007  1487  1488    1
  2008  1097  1098   ar
  2009  1992  1990    1
  2010  1600  1607   ar
  2011  1633  1634    1
  2012  1633  1631    1
  2013  1633  1635    1
  2014   536   537   ar
  2015   536   539   ar
  2016  1634  1639    1
  2017  1627  1626   ar
  2018  1537  1538   ar
  2019  2013  2014    1
  2020  1538  1544   ar
  2021   706   707    1
  2022   706   704    1
  2023  1662  1660    1
  2024  1662  1663    1
  2025  1562  1561   ar
  2026  1562  1565   ar
  2027  1594  1593    1
  2028  1636  1635    1
  2029  1100  1098   ar
  2030  1483  1484    1
  2031  1660  1661    1
  2032  2014  2012    1
  2033  1098  1099    2
  2034   521   504    1
  2035   521   543    1
  2036   537   538    2
  2037   506   505    1
  2038  1067  1066    1
  2039  1561  1567   ar
  2040  1507  1508    1
  2041  1463  1464    1
  2042  1578  1577    1
  2043  1543  1544   ar
  2044   514   515    2
  2045   514   513   ar
  2046   697   715    2
  2047   697   699    1
  2048   697   716    1
  2049  1612  1610    1
  2050  1481  1462    2
  2051   707   714   ar
  2052   707   708   ar
  2053  1593  1595    1
  2054  1593  1591    1
  2055  1624  1626   ar
  2056  1624  1625    1
  2057  1468  1482    1
  2058  1585  1584    1
  2059   705   704    1
  2060  1503  1504    1
  2061   505   503    1
  2062   505   507    1
  2063  1584  1586   ar
  2064  1595  1596    1
  2065  1484  1482    1
  2066   512   513   ar
  2067   512   518   ar
  2068  1579  1580    1
  2069  1579  1577    1
  2070  1579  1574    1
  2071  1596  1610    1
  2072  1580  1587   ar
  2073   714   713   ar
  2074   709   708    2
  2075  1635  1637    1
  2076  1604  1605    1
  2077  1604  1606   ar
  2078  1544  1534    1
  2079  1488  1502    1
  2080  1464  1462    1
  2081  1639  1650    1
  2082  1639  1637    1
  2083  1508  1525    1
  2084  1462  1480    1
  2085   708   710   ar
  2086  1504  1502    1
  2087  1995  2012    1
  2088   504   503    1
  2089  1577  1575    1
  2090  1607  1606   ar
  2091  1565  1566   ar
  2092   704   702    1
  2093   513   516   ar
  2094   702   703    1
  2095   713   711   ar
  2096  1663  1670   ar
  2097  1663  1664   ar
  2098  1066  1068    1
  2099  1066  1064    1
  2100  1567  1566   ar
  2101  1567  1556    1
  2102   710   711   ar
  2103  1482  1501    2
  2104  1482  1500    1
  2105  2012  2031    2
  2106  2012  2030    1
  2107   503   501    1
  2108  1610  1628    2
  2109  1610  1629    1
  2110  1665  1664    2
  2111   518   507    1
  2112   518   517   ar
  2113   507   502    1
  2114  1650  1649   ar
  2115  1650  1644   ar
  2116   711   712    1
  2117  1073  1072    1
  2118  1574  1573    1
  2119  1586  1587   ar
  2120  1591  1592    1
  2121  1637  1638    1
  2122  1068  1069    1
  2123  1068  1070    1
  2124  1534  1529    1
  2125  1534  1532    1
  2126   703   717    1
  2127  1670  1669   ar
  2128  1502  1524    2
  2129  1502  1523    1
  2130  1664  1666   ar
  2131  1529  1528    1
  2132  1649  1648   ar
  2133  1556  1554    1
  2134  1556  1551    1
  2135  1643  1644   ar
  2136  1643  1641   ar
  2137  1072  1071   ar
  2138  1072  1074   ar
  2139  1644  1645   ar
  2140   516   517   ar
  2141  1071  1077   ar
  2142  1074  1075   ar
  2143  1555  1554    1
  2144  1525  1546    2
  2145  1525  1527    1
  2146  1525  1545    1
  2147  1575  1573    1
  2148  1575  1576    1
  2149  1554  1552    1
  2150  1064  1062    1
  2151  1064  1065    1
  2152  1573  1571    1
  2153  1062  1063    1
  2154  1648  1645   ar
  2155  1641  1642    1
  2156  1641  1640   ar
  2157   501   502    1
  2158   501   499    1
  2159  1592  1590    1
  2160  1527  1526    1
  2161  1645  1646   ar
  2162  1077  1078    2
  2163  1077  1076   ar
  2164  1075  1076   ar
  2165  1075  1081   ar
  2166  1669  1667   ar
  2167  1576  1590    1
  2168  1551  1550    1
  2169  1666  1667   ar
  2170  1532  1533    1
  2171  1532  1530    1
  2172  1076  1079   ar
  2173  1070  1081    1
  2174  1070  1065    1
  2175  1526  1528    1
  2176  1528  1530    1
  2177  1081  1080   ar
  2178   717   719    1
  2179   717   735    2
  2180   717   736    1
  2181   719   718    1
  2182   721   726    1
  2183   721   720    1
  2184  1640  1646   ar
  2185  1646  1647    2
  2186  1667  1668    2
  2187  1079  1080   ar
  2188   726   727    1
  2189   726   724    1
  2190  1530  1531    1
  2191  1063  1061    1
  2192  1590  1608    2
  2193  1590  1609    1
  2194  1571  1572    1
  2195  1552  1550    1
  2196  1552  1553    1
  2197   499   500    1
  2198  1082  1061    2
  2199   734   727   ar
  2200   734   733   ar
  2201   725   724    1
  2202   727   728   ar
  2203   720   718    1
  2204   720   722    1
  2205  1083  1061    1
  2206  1550  1548    1
  2207  1572  1570    1
  2208   733   731   ar
  2209  1061  1045    1
  2210   500   498    1
  2211   728   729    2
  2212   728   730   ar
  2213   724   722    1
  2214  1553  1570    1
  2215  1549  1548    1
  2216  1549  1547    1
  2217   731   730   ar
  2218   731   732    2
  2219  1531  1547    1
  2220   722   723    1
  2221  1570  1589    2
  2222  1570  1588    1
  2223  1547  1569    2
  2224  1547  1568    1
  2225   519   498    1
  2226   498   520    1
  2227  1045  1044    1
  2228   723   737    1
  2229  1049  1050   ar
  2230  1049  1054   ar
  2231  1055  1054    1
  2232  1050  1051   ar
  2233  1054  1053   ar
  2234  1046  1047    1
  2235  1046  1044    1
  2236  1046  1048    1
  2237  1044  1042    1
  2238  1051  1052   ar
  2239  1053  1052   ar
  2240  1053  1056   ar
  2241  1052  1058   ar
  2242  1056  1057   ar
  2243  1058  1057   ar
  2244  1058  1048    1
  2245   737   755    2
  2246   737   756    1
  2247   737   739    1
  2248   741   746    1
  2249   741   740    1
  2250  1048  1043    1
  2251   753   754   ar
  2252   753   751   ar
  2253   754   747   ar
  2254  1060  1039    2
  2255   738   739    1
  2256   738   740    1
  2257  1041  1039    1
  2258  1041  1040    1
  2259  1042  1040    1
  2260  1042  1043    1
  2261   752   751    1
  2262   751   750   ar
  2263   747   746    1
  2264   747   748   ar
  2265   746   744    1
  2266   740   742    1
  2267  1059  1039    1
  2268   750   748   ar
  2269   748   749    2
  2270  1039  1022    1
  2271  1033  1032    2
  2272  1032  1026   ar
  2273  1032  1031   ar
  2274  1026  1027   ar
  2275   744   742    1
  2276   744   745    1
  2277   742   743    1
  2278  1031  1034   ar
  2279  1031  1030   ar
  2280  1028  1027    1
  2281  1027  1029   ar
  2282  1034  1035   ar
  2283  1022  1021    1
  2284  1038  1016    2
  2285  1030  1029   ar
  2286  1030  1036   ar
  2287  1021  1023    1
  2288  1021  1019    1
  2289  1035  1036   ar
  2290  1023  1024    1
  2291  1023  1025    1
  2292   743   757    1
  2293  1037  1016    1
  2294  1018  1016    1
  2295  1018  1017    1
  2296  1036  1025    1
  2297  1016  1000    1
  2298   773   774   ar
  2299   773   771   ar
  2300   772   771    2
  2301  1010  1009    1
  2302   774   767   ar
  2303  1025  1020    1
  2304   771   770   ar
  2305  1019  1017    1
  2306  1019  1020    1
  2307   776   757    2
  2308   761   766    1
  2309   761   760    1
  2310   757   759    1
  2311   757   775    1
  2312   767   766    1
  2313   767   768   ar
  2314   770   768   ar
  2315  1009  1004   ar
  2316  1009  1008   ar
  2317  1011  1008   ar
  2318  1011  1012   ar
  2319   766   764    1
  2320   768   769    2
  2321  1000   999    1
  2322  1004  1005   ar
  2323  1008  1007   ar
  2324   759   758    1
  2325   758   760    1
  2326   999  1001    1
  2327   999   997    1
  2328   760   762    1
  2329  1012  1013   ar
  2330  1015   994    2
  2331   995   997    1
  2332   995   996    1
  2333  1005  1006   ar
  2334  1007  1013   ar
  2335  1007  1006   ar
  2336  1014   994    1
  2337   970   949    2
  2338  1013  1003    1
  2339  1001  1003    1
  2340  1001  1002    1
  2341   997   998    1
  2342   764   765    1
  2343   764   762    1
  2344   994   996    1
  2345   994   978    1
  2346   993   972    2
  2347   992   972    1
  2348   762   763    1
  2349   988   987    1
  2350   971   949    1
  2351   947   926    2
  2352  1003   998    1
  2353   949   951    1
  2354   949   932    1
  2355   972   974    1
  2356   972   955    1
  2357   792   791    2
  2358   989   986   ar
  2359   989   990   ar
  2360   793   791   ar
  2361   793   794   ar
  2362   974   973    1
  2363   987   986   ar
  2364   987   982   ar
  2365   791   790   ar
  2366   951   950    1
  2367   986   985   ar
  2368   978   977    1
  2369   763   777    1
  2370   990   991   ar
  2371   927   928    1
  2372   927   929    1
  2373   794   787   ar
  2374   926   928    1
  2375   926   948    1
  2376   926   910    1
  2377   982   983   ar
  2378   790   788   ar
  2379   977   979    1
  2380   977   975    1
  2381   932   931    1
  2382   955   954    1
  2383   973   975    1
  2384   787   788   ar
  2385   787   786    1
  2386   950   952    1
  2387   985   991   ar
  2388   985   984   ar
  2389   788   789    2
  2390   781   786    1
  2391   781   780    1
  2392   991   981    1
  2393   967   968   ar
  2394   967   964   ar
  2395   796   777    2
  2396   931   929    1
  2397   931   933    1
  2398   979   981    1
  2399   979   980    1
  2400   954   952    1
  2401   954   956    1
  2402   983   984   ar
  2403   966   965    2
  2404   929   930    1
  2405   910   909    1
  2406   777   779    1
  2407   777   795    1
  2408   786   784    1
  2409   975   976    1
  2410   968   969   ar
  2411   779   778    1
  2412   778   780    1
  2413   952   953    1
  2414   964   965   ar
  2415   964   963   ar
  2416   981   976    1
  2417   965   959   ar
  2418   780   782    1
  2419   812   811    1
  2420   969   963   ar
  2421   969   958    1
  2422   956   958    1
  2423   956   957    1
  2424   945   944   ar
  2425   945   946   ar
  2426   930   935    1
  2427   924   904    2
  2428   933   935    1
  2429   933   934    1
  2430   944   941   ar
  2431   963   962   ar
  2432   909   911    1
  2433   909   907    1
  2434   953   958    1
  2435   959   960   ar
  2436   784   782    1
  2437   784   785    1
  2438   912   911    1
  2439   811   810   ar
  2440   811   813   ar
  2441   782   783    1
  2442   946   935    1
  2443   946   940   ar
  2444   810   808   ar
  2445   911   913    1
  2446   905   907    1
  2447   905   906    1
  2448   907   908    1
  2449   941   940   ar
  2450   941   942   ar
  2451   962   960   ar
  2452   960   961    1
  2453   904   925    1
  2454   904   906    1
  2455   904   888    1
  2456   813   814   ar
  2457   940   939   ar
  2458   943   942    2
  2459   942   936   ar
  2460   808   809    2
  2461   808   807   ar
  2462   814   807   ar
  2463   783   797    1
  2464   807   806    1
  2465   939   937   ar
  2466   913   908    1
  2467   913   923    1
  2468   816   797    2
  2469   888   887    1
  2470   936   937   ar
  2471   832   831    1
  2472   937   938    1
  2473   801   806    1
  2474   801   800    1
  2475   923   922   ar
  2476   923   917   ar
  2477   922   921   ar
  2478   806   804    1
  2479   797   815    1
  2480   797   799    1
  2481   849   848    1
  2482   831   830   ar
  2483   831   833   ar
  2484   921   918   ar
  2485   917   916   ar
  2486   917   918   ar
  2487   847   848   ar
  2488   847   853   ar
  2489   887   889    1
  2490   887   885    1
  2491   830   828   ar
  2492   890   889    1
  2493   854   853    2
  2494   916   915   ar
  2495   848   850   ar
  2496   918   919   ar
  2497   798   799    1
  2498   798   800    1
  2499   889   891    1
  2500   800   802    1
  2501   833   834   ar
  2502   853   852   ar
  2503   804   802    1
  2504   804   805    1
  2505   915   914   ar
  2506   828   829    2
  2507   828   827   ar
  2508   919   914   ar
  2509   919   920    1
  2510   885   883    1
  2511   885   886    1
  2512   850   851   ar
  2513   802   803    1
  2514   883   884    1
  2515   834   827   ar
  2516   852   851   ar
  2517   852   855   ar
  2518   827   826    1
  2519   851   857   ar
  2520   891   901    1
  2521   891   886    1
  2522   902   882    2
  2523   884   882    1
  2524   900   901   ar
  2525   900   899   ar
  2526   901   895   ar
  2527   855   856   ar
  2528   899   896   ar
  2529   803   817    1
  2530   826   821    1
  2531   826   824    1
  2532   857   856   ar
  2533   857   846    1
  2534   882   903    1
  2535   882   866    1
  2536   836   817    2
  2537   895   896   ar
  2538   895   894   ar
  2539   821   820    1
  2540   896   897   ar
  2541   894   893   ar
  2542   846   844    1
  2543   846   841    1
  2544   819   817    1
  2545   819   818    1
  2546   817   835    1
  2547   897   898    1
  2548   897   892   ar
  2549   893   892   ar
  2550   824   822    1
  2551   824   825    1
  2552   844   845    1
  2553   844   842    1
  2554   866   865    1
  2555   818   820    1
  2556   820   822    1
  2557   841   840    1
  2558   822   823    1
  2559   868   867    1
  2560   867   865    1
  2561   867   869    1
  2562   865   863    1
  2563   842   840    1
  2564   842   843    1
  2565   877   878   ar
  2566   877   874   ar
  2567   878   879   ar
  2568   840   838    1
  2569   876   875    1
  2570   839   837    1
  2571   839   838    1
  2572   823   837    1
  2573   874   875   ar
  2574   874   873   ar
  2575   859   837    2
  2576   879   869    1
  2577   879   873   ar
  2578   869   864    1
  2579   875   870   ar
  2580   873   872   ar
  2581   843   860    1
  2582   863   861    1
  2583   863   864    1
  2584   862   861    1
  2585   862   860    1
  2586   837   858    1
  2587   870   871   ar
  2588   872   871   ar
  2589   860   881    2
  2590   860   880    1
