1fmn_cryst
  Insight           3D                             0

 37 39  0  0  1  0              1 V2000
   -8.4290   -6.5070    3.6590 N   0  0  0  0  0  0
   -7.5150   -6.9330    3.6940 H   0  0  0  0  0  0
   -9.2010   -6.6050    4.7930 C   0  0  0  0  0  0
   -8.8050   -7.1860    5.8040 O   0  0  0  0  0  0
  -10.4810   -6.0000    4.7220 N   0  0  0  0  0  0
  -11.1000   -6.0330    5.5190 H   0  0  0  0  0  0
  -11.0320   -5.3180    3.6150 C   0  0  0  0  0  0
  -12.1680   -4.8330    3.6900 O   0  0  0  0  0  0
  -10.1490   -5.2580    2.4480 C   0  0  0  0  0  0
  -10.6110   -4.6110    1.3290 N   0  0  0  0  0  0
  -11.4720   -4.0860    1.3690 H   0  0  0  0  0  0
   -9.8660   -4.7120    0.1900 C   0  0  0  0  0  0
  -10.4110   -4.2230   -0.9840 C   0  0  0  0  0  0
   -9.7290   -4.2890   -2.1510 C   0  0  0  0  0  0
  -10.3620   -3.7430   -3.3910 C   0  0  0  0  0  0
   -8.4870   -4.8430   -2.1910 C   0  0  0  0  0  0
   -7.7440   -4.9180   -3.4850 C   0  0  0  0  0  0
   -7.9120   -5.3350   -1.0640 C   0  0  0  0  0  0
   -8.5720   -5.2910    0.1640 C   0  0  0  0  0  0
   -8.0320   -5.7800    1.3720 N   0  0  0  0  0  0
   -8.8440   -5.8720    2.5210 C   0  0  0  0  0  0
   -6.5430   -5.6540    1.5850 C   0  0  0  0  0  0
   -5.6760   -6.8740    1.1490 C   0  0  0  0  0  0
   -4.3670   -6.4450    0.8020 O   0  0  0  0  0  0
   -3.8380   -7.2090    0.5330 H   0  0  0  0  0  0
   -5.6570   -8.0140    2.1950 C   0  0  0  0  0  0
   -5.1730   -9.2170    1.6050 O   0  0  0  0  0  0
   -5.1660   -9.9210    2.2680 H   0  0  0  0  0  0
   -4.9050   -7.7370    3.5200 C   0  0  0  0  0  0
   -5.5030   -8.5190    4.5480 O   0  0  0  0  0  0
   -5.0440   -8.3580    5.3840 H   0  0  0  0  0  0
   -3.4010   -8.0830    3.4430 C   0  0  0  0  0  0
   -2.6440   -7.4470    4.4660 O   0  0  0  0  0  0
   -2.3710   -8.1210    5.8740 P   0  0  0  0  0  0
   -3.0660   -9.4240    5.9800 O   0  0  0  0  0  0
   -0.9330   -8.0560    6.2130 O   0  5  0  0  0  0
   -3.1130   -7.1590    6.9030 O   0  5  0  0  0  0
  1  2  1  0  0  0
  1 21  1  0  0  0
  1  3  1  0  0  0
  3  5  1  0  0  0
  3  4  2  0  0  0
  5  6  1  0  0  0
  5  7  1  0  0  0
  7  9  1  0  0  0
  7  8  2  0  0  0
  9 21  2  0  0  0
  9 10  1  0  0  0
 10 11  1  0  0  0
 10 12  1  0  0  0
 12 13  2  0  0  0
 12 19  1  0  0  0
 13 14  1  0  0  0
 14 15  1  0  0  0
 14 16  2  0  0  0
 16 17  1  0  0  0
 16 18  1  0  0  0
 18 19  2  0  0  0
 19 20  1  0  0  0
 20 22  1  0  0  0
 20 21  1  0  0  0
 22 23  1  0  0  0
 23 26  1  0  0  0
 23 24  1  0  0  0
 24 25  1  0  0  0
 26 29  1  0  0  0
 26 27  1  0  0  0
 27 28  1  0  0  0
 29 32  1  0  0  0
 29 30  1  0  0  0
 30 31  1  0  0  0
 32 33  1  0  0  0
 33 34  1  0  0  0
 34 36  1  0  0  0
 34 35  2  0  0  0
 34 37  1  0  0  0
M  END
>  <SYMMETRIC_BONDS>
33 34 3

$$$$
